249

C         -7.30010      -10.68320        3.83040
C         -7.66440      -10.48760        5.15270
C         -6.77400       -9.90190        6.15210
O         -5.62650       -9.53000        5.99650
C         -7.50060      -10.00970        7.44250
C         -7.09120       -9.61190        8.69950
Cl        -5.64150       -8.73660        8.92370
C         -7.90460       -9.92820        9.79600
Cl        -7.46300       -9.41100       11.36660
C         -9.05190      -10.69460        9.61110
Cl        -9.97940      -11.15690       10.97420
C         -9.45860      -11.10230        8.32950
Cl       -10.78760      -12.18010        8.20350
C         -8.71510      -10.69150        7.23270
C         -8.89050      -10.87230        5.79090
C        -10.07110      -11.08180        5.11730
C        -11.36780      -11.03400        5.66000
N        -12.46440      -10.89220        5.97290
C        -10.14650      -11.14780        3.71000
N        -10.28840      -11.20080        2.57140
C         -6.33720       -9.96510        3.13030
C         -5.77930       -8.67900        3.34130
N         -6.20750       -7.73020        4.21760
C         -7.51520       -7.65820        4.71510
C         -8.61940       -7.94990        3.91480
C         -9.89310       -7.86410        4.43590
C        -10.11040       -7.49480        5.76250
C        -11.49910       -7.42310        6.31130
C         -9.00600       -7.18880        6.54650
C         -7.72410       -7.26160        6.03500
C         -5.30340       -6.71610        4.61520
C         -4.04460       -7.05160        5.10430
C         -3.16740       -6.05440        5.47740
C         -3.51940       -4.71210        5.37290
C         -2.54480       -3.64660        5.76910
C         -4.78620       -4.39260        4.90190
C         -5.67650       -5.38080        4.52650
C         -4.73630       -8.44340        2.41890
S         -3.66900       -7.11520        2.11270
C         -2.95400       -7.95470        0.74430
C         -3.52800       -9.19480        0.53420
N         -3.24810      -10.07220       -0.53220
C         -4.07550       -9.85680       -1.66170
C         -4.95620      -10.83640       -2.11530
C         -5.75430      -10.59880       -3.21540
C         -5.71870       -9.37860       -3.88240
C         -6.58210       -9.14690       -5.08430
C         -4.86740       -8.39430       -3.40120
C         -4.05720       -8.62410       -2.30460
C         -2.74650      -11.34420       -0.24110
C         -2.45020      -12.23440       -1.27230
C         -1.91330      -13.47550       -0.99940
C         -1.63940      -13.87500        0.30160
C         -1.07610      -15.23140        0.59960
C         -1.90680      -12.97520        1.32350
C         -2.44240      -11.72970        1.06360
C         -4.53930       -9.45320        1.48650
S         -5.64890      -10.75350        1.69800
C         -1.93660       -7.25220        0.02920
C         -0.85880       -7.70590       -0.70440
C         -0.40110       -9.09740       -0.81470
C         -0.07140       -9.75730        0.36610
C          0.51820      -11.00450        0.33700
C          0.77660      -11.60600       -0.88140
C          0.43280      -10.96170       -2.05460
C         -0.16050       -9.70570       -2.04940
C         -0.51000       -9.03590       -3.35180
C         -1.37950       -9.89990       -4.26370
C         -0.09680       -6.62930       -1.20700
S          1.40580       -6.57640       -2.09740
C          1.36680       -4.84790       -2.00830
C          2.16310       -3.74690       -2.36010
C          3.45450       -3.69120       -2.92700
C          4.11490       -2.42200       -3.01790
N          5.34090       -2.52290       -3.50740
S          5.63530       -4.08150       -3.83300
N          4.21120       -4.68840       -3.35790
C          3.41010       -1.25850       -2.64160
C          3.77490        0.09540       -2.70540
S          5.15170        1.07600       -3.09190
C          4.20510        2.50220       -2.73160
C          4.50240        3.87440       -2.73130
C          5.81230        4.41520       -3.14030
C          6.89280        4.45390       -2.25930
C          6.76740        3.98700       -0.83680
C          7.53600        2.68640       -0.60340
C          8.10440        4.95260       -2.71910
C          8.24690        5.40860       -4.01520
C          7.16960        5.36950       -4.88410
C          5.95880        4.87040       -4.44710
C          3.40190        4.64070       -2.37860
S          1.98890        3.64690       -2.05030
C          2.89070        2.21140       -2.36230
C          2.65170        0.83300       -2.32810
N          1.62230       -0.00500       -1.99740
C          2.06650       -1.30780       -2.16840
C          1.47740       -2.57790       -1.92260
N          0.30340       -2.97560       -1.30080
C          0.25020       -4.34320       -1.33930
C         -0.58370       -5.36580       -0.86810
S         -2.01930       -5.49070        0.08500
C         -0.56970       -2.25790       -0.40090
C          0.18380       -1.74480        0.82400
C          0.28360        0.53060       -1.88760
C         -0.58440        0.12020       -3.07420
C          3.36490        6.05840       -2.24310
C          2.29090        6.94390       -2.27440
N          0.94600        6.63650       -2.48870
C          0.28670        7.40280       -3.46570
C          0.93500        7.67940       -4.66750
C          0.31840        8.45380       -5.62860
C         -0.95850        8.96490       -5.42710
C         -1.60830        9.82370       -6.46750
C         -1.59940        8.67990       -4.22780
C         -0.98910        7.91570       -3.25290
C          0.23790        5.83870       -1.59160
C          0.65850        5.70370       -0.26870
C         -0.00090        4.84380        0.58730
C         -1.09440        4.10230        0.15940
C         -1.79790        3.16590        1.09480
C         -1.52640        4.26420       -1.15240
C         -0.87750        5.11730       -2.01950
C          2.73090        8.27990       -2.14420
S          1.91630        9.79710       -2.19660
C          3.44150       10.65020       -1.89390
C          4.54460        9.76370       -1.86620
N          5.86550       10.09950       -1.86580
C          6.33850       11.33020       -2.34450
C          5.79960       11.91660       -3.48930
C          6.25300       13.14590       -3.91780
C          7.25220       13.82910       -3.22700
C          7.69350       15.18510       -3.67900
C          7.81450       13.21800       -2.11460
C          7.37070       11.98440       -1.67530
C          6.81900        9.18320       -1.36820
C          7.98800        8.94530       -2.08180
C          8.94710        8.09310       -1.56990
C          8.76410        7.46090       -0.34680
C          9.82320        6.57570        0.23610
C          7.58270        7.69480        0.34960
C          6.61740        8.54640       -0.14750
C          4.09940        8.42760       -1.97070
S          4.89700        6.89200       -1.99720
C          3.36510       12.03210       -1.74840
C          4.28860       12.83200       -1.09840
C          5.14460       12.35980       -0.00350
O          5.20970       11.23580        0.46020
C          5.82300       13.56970        0.51600
C          6.72690       13.68190        1.55200
C          7.24550       14.93490        1.84650
C          6.83780       16.03410        1.10670
Br         7.56290       17.74170        1.52800
C          5.92040       15.94020        0.06580
C          5.41380       14.68810       -0.22880
C          4.47070       14.24300       -1.25650
C          3.98520       15.00950       -2.28900
C          3.19730       14.49950       -3.33900
N          2.58200       14.14290       -4.24140
C          4.28590       16.37130       -2.46900
N          4.51490       17.47900       -2.67170
H         -7.75500      -11.50460        3.29070
H         -8.47870       -8.23450        2.88270
H        -10.73920       -8.08830        3.80290
H        -11.49540       -7.05140        7.33240
H        -12.11480       -6.76550        5.69960
H        -11.96500       -8.40810        6.30190
H         -9.14610       -6.89260        7.57580
H         -6.87490       -7.01790        6.65530
H         -3.78450       -8.09280        5.21080
H         -2.19340       -6.31910        5.86180
H         -2.25900       -3.76350        6.81350
H         -2.97150       -2.65620        5.63410
H         -1.63970       -3.72200        5.16760
H         -5.08200       -3.35670        4.82190
H         -6.65870       -5.12350        4.15760
H         -5.01640      -11.78130       -1.59600
H         -6.42880      -11.37090       -3.55640
H         -6.24590       -9.76840       -5.91420
H         -7.61590       -9.41190       -4.86930
H         -6.54450       -8.10640       -5.39680
H         -4.83050       -7.43190       -3.89140
H         -3.40260       -7.84480       -1.94860
H         -2.63170      -11.94880       -2.29630
H         -1.69710      -14.14470       -1.82000
H         -0.62670      -15.66860       -0.28880
H         -1.86550      -15.90010        0.94490
H         -0.32320      -15.17310        1.38330
H         -1.68970      -13.25000        2.34610
H         -2.61030      -11.05300        1.88740
H         -0.25830       -9.26590        1.31050
H          0.78270      -11.49940        1.25870
H          1.24780      -12.57650       -0.91720
H          0.64660      -11.43850       -2.99930
H          0.41890       -8.79000       -3.87550
H         -1.03880       -8.10210       -3.15820
H         -2.32380      -10.13200       -3.77800
H         -1.59500       -9.36180       -5.18420
H         -0.88220      -10.83050       -4.52250
H          5.71580        3.83600       -0.58690
H          7.15880        4.76660       -0.17850
H          8.59240        2.82030       -0.82290
H          7.43440        2.36740        0.43150
H          7.15230        1.89960       -1.24820
H          8.94540        4.98770       -2.04400
H          9.19740        5.79660       -4.34990
H          7.27270        5.72490       -5.89850
H          5.11030        4.83190       -5.11550
H         -1.08220       -1.45140       -0.92570
H         -1.33520       -2.96850       -0.07900
H          1.00610       -1.09400        0.53610
H         -0.49270       -1.19470        1.47270
H          0.59470       -2.58280        1.38230
H         -0.17090        0.24450       -0.93900
H          0.38310        1.61910       -1.87490
H         -0.65320       -0.96210       -3.15740
H         -0.15550        0.50440       -3.99660
H         -1.58410        0.53090       -2.96120
H          1.92560        7.28320       -4.84080
H          0.83540        8.66310       -6.55390
H         -1.23790       10.84610       -6.38800
H         -1.37750        9.46220       -7.46750
H         -2.68760        9.84310       -6.33870
H         -2.58880        9.07380       -4.04600
H         -1.49400        7.72280       -2.31810
H          1.51050        6.26910        0.08000
H          0.34340        4.74540        1.60670
H         -2.38490        2.43470        0.54370
H         -2.47410        3.72160        1.74510
H         -1.08300        2.64310        1.72730
H         -2.37940        3.70180       -1.50520
H         -1.21010        5.21230       -3.04200
H          5.02170       11.40840       -4.03940
H          5.81930       13.59040       -4.80170
H          8.54540       15.53160       -3.09970
H          7.96790       15.16650       -4.73240
H          6.88340       15.90560       -3.56430
H          8.60300       13.71840       -1.57120
H          7.81200       11.52600       -0.80310
H          8.14350        9.43590       -3.03140
H          9.85480        7.92290       -2.12980
H          9.39960        5.63070        0.57190
H         10.60770        6.37410       -0.48900
H         10.27640        7.05850        1.10220
H          7.42680        7.21860        1.30690
H          5.72460        8.76280        0.41740
H          2.47070       12.49810       -2.14480
H          7.02540       12.80950        2.11250
H          7.96140       15.06010        2.64410
H          5.62410       16.82340       -0.47660
