249

C         -9.59580        6.59390        3.94860
C         -9.46580        7.31460        5.12420
C         -8.79490        6.85900        6.33340
O         -8.12270        5.85640        6.49300
C         -9.10260        7.87110        7.37110
C         -8.64120        7.93180        8.67160
Cl        -7.65570        6.70040        9.32400
C         -8.99210        9.04350        9.44990
Cl        -8.47560        9.14660       11.07750
C         -9.73010       10.08000        8.88460
Cl       -10.08520       11.46220        9.83020
C        -10.17430       10.02330        7.55280
Cl       -10.94020       11.41450        6.90320
C         -9.91170        8.87950        6.80780
C        -10.19140        8.52270        5.41830
C        -11.05850        9.16580        4.55470
C        -10.99350        9.05950        3.15420
N        -10.95650        9.10480        2.00490
C        -12.19960        9.90110        4.92070
N        -13.23920       10.35790        5.10100
C         -9.08040        5.36320        3.57520
C         -9.39580        4.72680        2.33790
N        -10.37450        5.11420        1.46800
C        -10.21530        4.83140        0.09540
C        -11.27370        4.32090       -0.64730
C        -11.10230        4.03610       -1.98820
C         -9.88330        4.25140       -2.61770
C         -9.68580        3.92640       -4.06570
C         -8.83730        4.78350       -1.87030
C         -8.99590        5.07620       -0.53190
C        -11.57890        5.71290        1.88850
C        -12.19150        5.32280        3.07850
C        -13.33720        5.96100        3.50510
C        -13.92050        6.97710        2.75210
C        -15.12120        7.71160        3.25690
C        -13.33860        7.31000        1.53600
C        -12.17630        6.69770        1.10680
C         -8.55440        3.62290        2.12520
S         -8.40900        2.44300        0.86320
C         -7.10880        1.64260        1.72930
C         -6.86280        2.22410        2.96930
N         -5.97290        1.75910        3.91630
C         -5.42840        2.68460        4.83040
C         -4.90060        3.88970        4.37890
C         -4.43430        4.82280        5.28440
C         -4.47420        4.57580        6.65010
C         -4.03350        5.61450        7.63350
C         -4.96740        3.35180        7.08780
C         -5.44020        2.41290        6.19440
C         -5.66460        0.40010        4.05110
C         -6.61450       -0.59080        3.81460
C         -6.25360       -1.92250        3.86760
C         -4.94970       -2.30720        4.15230
C         -4.55030       -3.75020        4.11650
C         -4.02210       -1.31400        4.44410
C         -4.36940        0.02090        4.40150
C         -7.67960        3.36270        3.17340
S         -7.85640        4.47070        4.48530
C         -6.35700        0.56590        1.15440
C         -6.75860       -0.64490        0.63180
C         -8.13770       -1.08150        0.39930
C         -8.56700       -2.30000        0.91730
C         -9.85960       -2.73030        0.68830
C        -10.73140       -1.95410       -0.05460
C        -10.31300       -0.74580       -0.59780
C        -11.27350        0.11950       -1.36060
C        -12.12780        0.92850       -0.38350
C         -9.01040       -0.32620       -0.37500
C         -5.65200       -1.48420        0.37890
S         -5.53470       -3.11620       -0.23070
C         -3.80970       -3.00360       -0.13030
C         -2.67340       -3.74520       -0.49530
C         -2.53580       -4.94720       -1.22450
C         -1.23670       -5.31930       -1.71590
N         -1.27320       -6.41250       -2.46110
S         -2.80400       -6.93690       -2.53030
N         -3.48270       -5.78410       -1.61770
C         -0.11670       -4.54430       -1.34370
C          1.25290       -4.65490       -1.64520
S          2.30770       -5.60180       -2.63930
C          3.65670       -4.62840       -2.10110
C          5.03100       -4.64310       -2.41020
C          5.63740       -5.61540       -3.32070
C          6.82070       -6.27290       -2.99300
C          7.36270       -7.19510       -3.86610
C          6.72160       -7.49130       -5.05640
C          5.52590       -6.86800       -5.38690
C          4.76720       -7.25980       -6.62160
C          3.76940       -8.37150       -6.28920
C          4.99970       -5.92580       -4.51670
C          5.71130       -3.65320       -1.72070
S          4.64800       -2.70630       -0.68320
C          3.29020       -3.64750       -1.17930
C          1.91430       -3.65940       -0.92370
N          1.01360       -2.92940       -0.18820
C         -0.24750       -3.43340       -0.46800
C         -1.54310       -2.95150       -0.15720
N         -1.98790       -1.75320        0.36780
C         -3.35660       -1.78150        0.37290
C         -4.41470       -0.90880        0.65930
S         -4.59980        0.70320        1.24270
C         -1.28960       -0.50570        0.57850
C         -1.24200       -0.12190        2.05730
C          1.45460       -2.29700        1.03660
C          2.06610       -3.31640        1.99810
C          7.05840       -3.22850       -1.90240
C          7.87730       -2.54370       -1.00970
N          7.59390       -2.30490        0.32420
C          6.97610       -3.27680        1.11840
C          7.14850       -4.63480        0.85610
C          6.48640       -5.58050        1.61060
C          5.65220       -5.20870        2.65970
C          4.93540       -6.25000        3.46350
C          5.51100       -3.85550        2.93680
C          6.15240       -2.89780        2.17620
C          8.05380       -1.10430        0.89290
C          8.64200       -1.09100        2.15440
C          9.10270        0.09460        2.68920
C          9.00010        1.28980        1.98600
C          9.53560        2.56390        2.56300
C          8.41200        1.26650        0.72790
C          7.93820        0.08860        0.18500
C          9.08240       -2.14760       -1.63340
S         10.49240       -1.32170       -1.08130
C         11.22730       -1.45090       -2.69140
C         10.43290       -2.22960       -3.56880
N         10.79540       -2.72970       -4.77920
C          9.77960       -3.17250       -5.66340
C          9.79550       -4.47870       -6.13480
C          8.79030       -4.91600       -6.97650
C          7.76710       -4.06360       -7.36950
C          6.67010       -4.52970       -8.27430
C          7.77740       -2.75120       -6.90780
C          8.76980       -2.30240       -6.06070
C         12.12260       -2.88680       -5.20130
C         13.12110       -3.32370       -4.33160
C         14.42380       -3.42840       -4.77060
C         14.77430       -3.10330       -6.07970
C         16.20310       -3.16720       -6.51810
C         13.76530       -2.71830       -6.95210
C         12.45410       -2.61440       -6.52670
C          9.20040       -2.54860       -2.95750
S          7.80690       -3.43570       -3.47820
C         12.43840       -0.79920       -2.88760
C         12.95290       -0.40600       -4.11330
C         12.11940       -0.07710       -5.27440
O         10.90500       -0.12490       -5.36040
C         13.05350        0.45230       -6.29430
C         12.78230        0.90950       -7.56710
C         13.83970        1.34060       -8.35570
C         15.12800        1.31220       -7.84510
Br        16.56250        1.90470       -8.94560
C         15.41730        0.86530       -6.56040
C         14.36130        0.42840       -5.78260
C         14.31960       -0.12040       -4.42550
C         15.41230       -0.45820       -3.66220
C         15.32670       -1.11520       -2.41970
N         15.32980       -1.68310       -1.42090
C         16.74510       -0.26830       -4.06690
N         17.85030       -0.14960       -4.35850
H        -10.21890        7.05590        3.19470
H        -12.22500        4.14580       -0.16780
H        -11.93050        3.63380       -2.55300
H         -8.91610        3.16360       -4.17960
H         -9.35910        4.80960       -4.61260
H        -10.60590        3.56020       -4.51340
H         -7.88740        4.97540       -2.34740
H         -8.18120        5.50230        0.03490
H        -11.75460        4.53350        3.67250
H        -13.79130        5.66370        4.43920
H        -14.80110        8.56910        3.85220
H        -15.72450        8.08420        2.43290
H        -15.73380        7.07350        3.88930
H        -13.77990        8.08440        0.92760
H        -11.71720        6.99580        0.17740
H         -4.86910        4.09210        3.31770
H         -4.03980        5.76140        4.92280
H         -3.58250        5.15640        8.51100
H         -3.32080        6.30280        7.18510
H         -4.89960        6.18940        7.96230
H         -5.00010        3.14000        8.14660
H         -5.83790        1.47160        6.54500
H         -7.63400       -0.31590        3.58670
H         -7.00250       -2.67870        3.68350
H         -5.38700       -4.39220        4.38190
H         -4.22750       -4.01980        3.10920
H         -3.72530       -3.94440        4.79810
H         -3.00780       -1.58950        4.69550
H         -3.63630        0.78500        4.61580
H         -7.88610       -2.90130        1.49920
H        -10.18940       -3.67610        1.09230
H        -11.74280       -2.29370       -0.22590
H        -10.72520        0.80500       -2.00930
H        -11.92290       -0.50190       -1.98080
H        -12.67690        0.26460        0.28050
H        -11.49160        1.57240        0.21980
H        -12.84050        1.54800       -0.92200
H         -8.66060        0.58640       -0.83510
H          7.30240       -6.06810       -2.04860
H          8.28490       -7.69660       -3.61150
H          7.14650       -8.22300       -5.72850
H          5.45780       -7.61180       -7.39020
H          4.22190       -6.40000       -7.01500
H          3.06570       -8.03210       -5.53250
H          3.21330       -8.66180       -7.17760
H          4.29070       -9.24500       -5.90410
H          4.08000       -5.42060       -4.77370
H         -1.83740        0.27500        0.03820
H         -0.29300       -0.57430        0.14190
H         -0.80480       -0.91170        2.66440
H         -0.65440        0.78310        2.18330
H         -2.24750        0.06310        2.42530
H          2.19810       -1.53320        0.78660
H          0.60380       -1.83320        1.52350
H          2.32290       -2.82300        2.93150
H          1.35270       -4.11150        2.20600
H          2.96920       -3.75620        1.58390
H          7.80940       -4.94410        0.06000
H          6.62330       -6.62860        1.38660
H          5.65040       -6.89770        3.96960
H          4.29430       -5.79100        4.21170
H          4.32280       -6.87590        2.81560
H          4.87830       -3.54210        3.75480
H          6.01020       -1.84890        2.38860
H          8.74100       -2.01400        2.70620
H          9.56180        0.09100        3.66720
H         10.60060        2.65050        2.34540
H          9.03260        3.42740        2.13410
H          9.41260        2.58270        3.64350
H          8.31870        2.18390        0.16500
H          7.47350        0.08610       -0.79050
H         10.58860       -5.14630       -5.83140
H          8.80070       -5.93690       -7.32800
H          6.84410       -5.54900       -8.60720
H          5.71680       -4.49390       -7.74950
H          6.59480       -3.88320       -9.14740
H          6.99630       -2.07330       -7.21910
H          8.79390       -1.28130       -5.71320
H         12.87560       -3.57550       -3.31080
H         15.18840       -3.75920       -4.08280
H         16.61600       -4.15730       -6.33150
H         16.80420       -2.45100       -5.95770
H         16.29690       -2.94190       -7.57710
H         14.00740       -2.48030       -7.97780
H         11.68040       -2.30280       -7.21240
H         12.98960       -0.54270       -1.99080
H         11.76930        0.92190       -7.93830
H         13.66760        1.69620       -9.35990
H         16.43360        0.87070       -6.20110
