222

C         -1.97690        4.07850      -10.62200
C         -3.22740        3.66760      -11.05060
C         -4.07630        2.67300      -10.41440
O         -3.89450        2.07900       -9.36690
C         -5.22970        2.48090      -11.32780
C         -6.27730        1.58720      -11.21720
Cl        -6.48430        0.62810       -9.82180
C         -7.17170        1.47580      -12.29070
Cl        -8.51040        0.41550      -12.18300
C         -6.94130        2.19210      -13.46220
Cl        -7.98010        1.95830      -14.80230
C         -5.86580        3.08990      -13.57180
Cl        -5.54430        3.77920      -15.10980
C         -5.05450        3.29600      -12.46400
C         -3.90490        4.17040      -12.22140
C         -3.63810        5.35710      -12.86450
C         -2.52980        6.18790      -12.60310
N         -1.65940        6.92810      -12.47210
C         -4.50720        6.03620      -13.74320
N         -5.17240        6.72350      -14.37890
C         -1.24500        3.73180       -9.49840
C          0.04110        4.27710       -9.20700
N          0.83700        4.95180      -10.07990
C          0.83550        4.72530      -11.47240
C          1.03640        5.79950      -12.33400
C          1.04450        5.59450      -13.69910
C          0.85510        4.32610      -14.23610
C          0.82670        4.12960      -15.72000
C          0.68430        3.25670      -13.36430
C          0.68230        3.44480      -11.99660
C          1.89390        5.73860       -9.56390
C          3.20420        5.48430       -9.95310
C          4.23780        6.21660       -9.40600
C          3.99180        7.21710       -8.47290
C          5.12150        7.96580       -7.83920
C          2.67490        7.48720       -8.12050
C          1.63080        6.75870       -8.65620
C          0.40980        3.98880       -7.88330
S          1.78510        4.38650       -6.90340
C          1.18460        3.35220       -5.61610
C         -0.00620        2.71200       -5.95270
N         -0.65490        1.74120       -5.20980
C         -2.05490        1.64240       -5.32670
C         -2.66460        0.40230       -5.48660
C         -4.03230        0.32270       -5.65040
C         -4.82310        1.46610       -5.66310
C         -6.29750        1.37100       -5.90120
C         -4.20730        2.69710       -5.48080
C         -2.84040        2.79050       -5.30880
C          0.05170        0.82310       -4.42700
C          1.32640        0.39470       -4.79450
C          2.07820       -0.37880       -3.93490
C          1.57670       -0.77470       -2.70000
C          2.43410       -1.54370       -1.74180
C          0.27380       -0.41690       -2.37660
C         -0.48310        0.37080       -3.22120
C         -0.45980        3.12440       -7.22890
S         -1.83930        2.71010       -8.18030
C          1.92630        3.23700       -4.40370
C          3.29790        3.23110       -4.22350
C          4.29240        3.44200       -5.27940
C          5.29260        4.38920       -5.08180
C          6.21130        4.64190       -6.08250
C          6.14040        3.95940       -7.28340
C          5.16150        2.99630       -7.49070
C          5.11060        2.21590       -8.77260
C          5.95340        0.94420       -8.66040
C          4.25330        2.73670       -6.47670
C          3.63500        2.98450       -2.87800
S          5.15930        2.67360       -2.07990
C          4.29470        2.28620       -0.62790
C          4.54360        1.83790        0.68050
C          5.75310        1.63020        1.37770
C          5.70110        1.22470        2.75330
N          6.90450        1.11050        3.29330
S          8.00850        1.47850        2.16670
N          6.99340        1.79660        0.94570
C          4.44600        0.94420        3.33470
C          4.11090        0.39300        4.58280
S          4.88680       -0.15540        6.03090
C          3.33520       -0.69180        6.63420
C          2.93610       -1.32520        7.83470
C          3.86320       -1.59840        8.93480
C          3.51360       -1.29960       10.24990
C          4.41610       -1.52650       11.27030
C          5.66940       -2.04590       10.99340
C          6.03840       -2.33990        9.68720
C          7.38190       -2.93640        9.38040
C          7.30130       -4.46430        9.37930
C          5.12690       -2.11290        8.66690
C          1.57900       -1.56480        7.84860
S          0.78110       -0.97290        6.39840
C          2.28810       -0.43430        5.75230
C          2.73110        0.19000        4.57810
N          2.19330        0.62560        3.39760
C          3.23120        1.09850        2.60970
C          3.27670        1.65640        1.30460
N          2.29100        2.03590        0.40580
C          2.91080        2.41250       -0.75430
C          2.53350        2.82080       -2.03810
S          1.05450        3.07890       -2.88300
C          0.91820        2.42910        0.63230
C          0.81550        3.52010        1.69510
C          0.85590        0.21840        3.03250
C          0.87100       -0.83780        1.93010
C          0.76500       -2.30150        8.79140
C         -0.59000       -1.97280        8.92830
C         -1.39270       -2.72310        9.75230
C         -2.86690       -2.56920       10.04340
C         -3.13950       -1.36940       10.98200
C         -2.72710       -0.00520       10.44540
C         -3.71060       -2.49240        8.76310
C         -3.52900       -3.71820        7.87500
C         -3.14390       -3.82690       10.83890
C         -1.94990       -4.52900       11.09050
C         -0.86730       -3.84270       10.42210
C          0.47830       -4.16470       10.30560
C          1.28670       -3.39160        9.49800
C         -1.96630       -5.69430       11.84560
C         -3.17450       -6.18440       12.29520
C         -4.37570       -5.51590       12.01730
C         -4.33860       -4.29360       11.31970
C         -5.65640       -5.99880       12.44980
C         -6.07900       -7.28670       12.57200
C         -5.42180       -8.48480       11.98270
O         -4.32410       -8.57420       11.47850
C         -6.43000       -9.56070       12.05770
C         -6.33450      -10.84110       11.59440
C         -7.42920      -11.71750       11.76180
C         -7.38380      -13.05060       11.30490
C         -8.45230      -13.88760       11.46770
C         -9.60420      -13.40110       12.10110
F        -10.64560      -14.23970       12.25200
C         -9.70080      -12.11830       12.56340
C         -8.60930      -11.24190       12.40450
C         -8.67900       -9.90960       12.87300
C         -7.60160       -9.08000       12.70530
C         -7.38410       -7.68670       13.07460
C         -8.23210       -6.92050       13.82980
C         -9.47970       -7.36770       14.31310
N        -10.50640       -7.67120       14.72780
C         -7.97370       -5.60020       14.25580
N         -7.83430       -4.53290       14.65650
H         -1.48120        4.78900      -11.26950
H          1.16770        6.79010      -11.92840
H          1.18430        6.43660      -14.35950
H          0.83660        3.07320      -15.97580
H          1.68180        4.61390      -16.18780
H         -0.07560        4.57690      -16.13710
H          0.55730        2.25930      -13.75980
H          0.55310        2.60370      -11.33120
H          3.40320        4.70170      -10.67020
H          5.25430        6.00250       -9.70040
H          5.98450        8.00280       -8.49930
H          5.41910        7.45950       -6.92030
H          4.82410        8.98050       -7.58540
H          2.46350        8.27460       -7.41240
H          0.60970        6.97090       -8.37570
H         -2.05820       -0.49170       -5.49580
H         -4.49400       -0.64410       -5.78940
H         -6.48870        1.33290       -6.97350
H         -6.70860        0.46800       -5.45530
H         -6.81660        2.23600       -5.49610
H         -4.80450        3.59740       -5.47690
H         -2.37160        3.75370       -5.16570
H          1.72960        0.68680       -5.75250
H          3.07660       -0.67450       -4.22350
H          3.09620       -0.86140       -1.20500
H          1.82690       -2.07630       -1.01350
H          3.05850       -2.26040       -2.27070
H         -0.15010       -0.73990       -1.43630
H         -1.48020        0.67350       -2.93840
H          5.33570        4.93320       -4.15010
H          6.98650        5.37780       -5.92520
H          6.85540        4.16970       -8.06580
H          5.49020        2.82900       -9.59210
H          4.07680        1.94670       -8.99930
H          5.91770        0.37920       -9.58900
H          5.58240        0.31430       -7.85520
H          6.98940        1.19570       -8.44580
H          3.50150        1.97390       -6.61960
H          2.54090       -0.88180       10.46360
H          4.14330       -1.29110       12.28870
H          6.37060       -2.21710       11.79750
H          7.72200       -2.59270        8.40180
H          8.10890       -2.61470       10.12840
H          6.97240       -4.82710       10.35080
H          8.27450       -4.89650        9.15850
H          6.59180       -4.80560        8.62870
H          5.40080       -2.34790        7.64860
H          0.30260        1.56490        0.88270
H          0.54820        2.81580       -0.32060
H          1.23950        3.19030        2.64070
H          1.35870        4.40500        1.37160
H         -0.22560        3.79020        1.85020
H          0.40540       -0.20830        3.93200
H          0.25300        1.08310        2.75300
H          1.37300       -0.46850        1.03920
H         -0.14720       -1.11910        1.67350
H          1.39860       -1.72440        2.27490
H         -0.98780       -1.14180        8.36430
H         -4.20840       -1.35840       11.20620
H         -2.60850       -1.55140       11.92020
H         -2.99810        0.76150       11.16800
H         -1.65260        0.04210       10.29030
H         -3.22980        0.22270        9.50920
H         -3.42730       -1.60220        8.20030
H         -4.76240       -2.39420        9.03960
H         -4.14570       -3.62990        6.98340
H         -3.81540       -4.62480        8.40350
H         -2.49040       -3.81640        7.56670
H          0.88470       -5.02410       10.81680
H          2.32710       -3.64950        9.37440
H         -1.04930       -6.21720       12.07020
H         -3.19540       -7.07980       12.89340
H         -5.26160       -3.76360       11.13220
H         -6.38590       -5.21950       12.64230
H         -5.43320      -11.18030       11.10580
H         -6.48550      -13.40180       10.81970
H         -8.43450      -14.90930       11.12300
H        -10.60310      -11.77850       13.04740
H         -9.58840       -9.57740       13.34740
