
  xtb     02082204273D
 energy: -378.626261598023 gnorm: 0.000501760613 xtb: 6.4.1 (unknown)
211233  0     0  0            999 V2000
    0.1961   11.6526    4.0292 C   0  0  0  0  0  0  0  0  0  0  0  0
    1.2358   12.2426    4.7292 C   0  0  0  0  0  0  0  0  0  0  0  0
    1.9059   11.6046    5.8601 C   0  0  0  0  0  0  0  0  0  0  0  0
    1.6573   10.5216    6.3544 O   0  0  0  0  0  0  0  0  0  0  0  0
    2.8451   12.6244    6.3920 C   0  0  0  0  0  0  0  0  0  0  0  0
    3.7066   12.5274    7.4663 C   0  0  0  0  0  0  0  0  0  0  0  0
    3.9287   11.0490    8.2935 Cl  0  0  0  0  0  0  0  0  0  0  0  0
    4.4149   13.6717    7.8573 C   0  0  0  0  0  0  0  0  0  0  0  0
    5.5309   13.5865    9.1520 Cl  0  0  0  0  0  0  0  0  0  0  0  0
    4.1825   14.8850    7.2157 C   0  0  0  0  0  0  0  0  0  0  0  0
    4.9819   16.2935    7.7717 Cl  0  0  0  0  0  0  0  0  0  0  0  0
    3.2992   14.9775    6.1269 C   0  0  0  0  0  0  0  0  0  0  0  0
    2.9448   16.5341    5.4982 Cl  0  0  0  0  0  0  0  0  0  0  0  0
    2.6839   13.8219    5.6682 C   0  0  0  0  0  0  0  0  0  0  0  0
    1.7848   13.5551    4.5444 C   0  0  0  0  0  0  0  0  0  0  0  0
    1.6874   14.2670    3.3716 C   0  0  0  0  0  0  0  0  0  0  0  0
    2.5225   15.3193    2.9556 C   0  0  0  0  0  0  0  0  0  0  0  0
    3.2171   16.0936    2.4669 N   0  0  0  0  0  0  0  0  0  0  0  0
    0.8556   13.8693    2.3037 C   0  0  0  0  0  0  0  0  0  0  0  0
    0.2116   13.6036    1.3905 N   0  0  0  0  0  0  0  0  0  0  0  0
   -0.0415   10.2880    3.9044 C   0  0  0  0  0  0  0  0  0  0  0  0
    0.8082    9.1641    4.0525 C   0  0  0  0  0  0  0  0  0  0  0  0
    2.1617    9.1722    4.1961 N   0  0  0  0  0  0  0  0  0  0  0  0
    2.9833   10.2073    3.7308 C   0  0  0  0  0  0  0  0  0  0  0  0
    4.1074   10.5773    4.4676 C   0  0  0  0  0  0  0  0  0  0  0  0
    4.9300   11.5945    4.0214 C   0  0  0  0  0  0  0  0  0  0  0  0
    4.6664   12.2626    2.8332 C   0  0  0  0  0  0  0  0  0  0  0  0
    5.5525   13.3633    2.3452 C   0  0  0  0  0  0  0  0  0  0  0  0
    3.5526   11.8708    2.0919 C   0  0  0  0  0  0  0  0  0  0  0  0
    2.7191   10.8631    2.5284 C   0  0  0  0  0  0  0  0  0  0  0  0
    2.7940    8.0599    4.7997 C   0  0  0  0  0  0  0  0  0  0  0  0
    3.9007    7.4773    4.1939 C   0  0  0  0  0  0  0  0  0  0  0  0
    4.5224    6.3973    4.7911 C   0  0  0  0  0  0  0  0  0  0  0  0
    4.0594    5.8801    5.9942 C   0  0  0  0  0  0  0  0  0  0  0  0
    4.7197    4.6995    6.6359 C   0  0  0  0  0  0  0  0  0  0  0  0
    2.9570    6.4800    6.5950 C   0  0  0  0  0  0  0  0  0  0  0  0
    2.3264    7.5590    6.0108 C   0  0  0  0  0  0  0  0  0  0  0  0
    0.0657    7.9687    3.9195 C   0  0  0  0  0  0  0  0  0  0  0  0
    0.4966    6.2911    3.9439 S   0  0  0  0  0  0  0  0  0  0  0  0
   -1.1604    5.8422    3.5840 C   0  0  0  0  0  0  0  0  0  0  0  0
   -1.9880    6.9403    3.3844 C   0  0  0  0  0  0  0  0  0  0  0  0
   -3.3049    6.8887    2.9707 N   0  0  0  0  0  0  0  0  0  0  0  0
   -3.7459    5.8651    2.1195 C   0  0  0  0  0  0  0  0  0  0  0  0
   -5.0086    5.3029    2.2882 C   0  0  0  0  0  0  0  0  0  0  0  0
   -5.4010    4.2298    1.5141 C   0  0  0  0  0  0  0  0  0  0  0  0
   -4.5598    3.6914    0.5477 C   0  0  0  0  0  0  0  0  0  0  0  0
   -4.9635    2.4735   -0.2260 C   0  0  0  0  0  0  0  0  0  0  0  0
   -3.3300    4.3025    0.3382 C   0  0  0  0  0  0  0  0  0  0  0  0
   -2.9264    5.3783    1.1040 C   0  0  0  0  0  0  0  0  0  0  0  0
   -4.2079    7.8664    3.4203 C   0  0  0  0  0  0  0  0  0  0  0  0
   -4.1415    8.3491    4.7234 C   0  0  0  0  0  0  0  0  0  0  0  0
   -5.0293    9.3167    5.1513 C   0  0  0  0  0  0  0  0  0  0  0  0
   -6.0041    9.8229    4.3021 C   0  0  0  0  0  0  0  0  0  0  0  0
   -6.9512   10.8892    4.7598 C   0  0  0  0  0  0  0  0  0  0  0  0
   -6.0657    9.3311    3.0027 C   0  0  0  0  0  0  0  0  0  0  0  0
   -5.1809    8.3696    2.5604 C   0  0  0  0  0  0  0  0  0  0  0  0
   -1.2751    8.1434    3.6029 C   0  0  0  0  0  0  0  0  0  0  0  0
   -1.6913    9.8101    3.4617 S   0  0  0  0  0  0  0  0  0  0  0  0
   -1.5272    4.4622    3.4666 C   0  0  0  0  0  0  0  0  0  0  0  0
   -2.6308    3.8369    4.0105 C   0  0  0  0  0  0  0  0  0  0  0  0
   -3.4714    4.4157    5.0563 C   0  0  0  0  0  0  0  0  0  0  0  0
   -2.9211    5.2385    6.0377 C   0  0  0  0  0  0  0  0  0  0  0  0
   -3.7257    5.7681    7.0276 C   0  0  0  0  0  0  0  0  0  0  0  0
   -5.0817    5.4904    7.0523 C   0  0  0  0  0  0  0  0  0  0  0  0
   -5.6444    4.6573    6.0951 C   0  0  0  0  0  0  0  0  0  0  0  0
   -7.1009    4.2953    6.1366 C   0  0  0  0  0  0  0  0  0  0  0  0
   -7.2916    2.9271    6.7940 C   0  0  0  0  0  0  0  0  0  0  0  0
   -4.8287    4.1181    5.1122 C   0  0  0  0  0  0  0  0  0  0  0  0
   -2.7885    2.5381    3.4776 C   0  0  0  0  0  0  0  0  0  0  0  0
   -3.9923    1.2967    3.7141 S   0  0  0  0  0  0  0  0  0  0  0  0
   -3.1450    0.2879    2.5932 C   0  0  0  0  0  0  0  0  0  0  0  0
   -3.2820   -0.9672    1.9766 C   0  0  0  0  0  0  0  0  0  0  0  0
   -4.3243   -1.9171    2.0314 C   0  0  0  0  0  0  0  0  0  0  0  0
   -4.2570   -3.0694    1.1792 C   0  0  0  0  0  0  0  0  0  0  0  0
   -5.3251   -3.8439    1.2900 N   0  0  0  0  0  0  0  0  0  0  0  0
   -6.3268   -3.1826    2.3767 S   0  0  0  0  0  0  0  0  0  0  0  0
   -5.4383   -1.8806    2.7462 N   0  0  0  0  0  0  0  0  0  0  0  0
   -3.0976   -3.2728    0.4009 C   0  0  0  0  0  0  0  0  0  0  0  0
   -2.7049   -4.3531   -0.4048 C   0  0  0  0  0  0  0  0  0  0  0  0
   -3.3339   -5.8691   -0.9522 S   0  0  0  0  0  0  0  0  0  0  0  0
   -1.8104   -6.1803   -1.7469 C   0  0  0  0  0  0  0  0  0  0  0  0
   -1.3640   -7.2487   -2.5473 C   0  0  0  0  0  0  0  0  0  0  0  0
   -2.2179   -8.3839   -2.9103 C   0  0  0  0  0  0  0  0  0  0  0  0
   -2.8794   -9.1019   -1.9203 C   0  0  0  0  0  0  0  0  0  0  0  0
   -3.6981  -10.1605   -2.2699 C   0  0  0  0  0  0  0  0  0  0  0  0
   -3.8750  -10.4961   -3.5996 C   0  0  0  0  0  0  0  0  0  0  0  0
   -3.2383   -9.7741   -4.6035 C   0  0  0  0  0  0  0  0  0  0  0  0
   -3.4912  -10.0935   -6.0491 C   0  0  0  0  0  0  0  0  0  0  0  0
   -4.7618   -9.3910   -6.5317 C   0  0  0  0  0  0  0  0  0  0  0  0
   -2.4103   -8.7217   -4.2467 C   0  0  0  0  0  0  0  0  0  0  0  0
   -0.0703   -7.0371   -2.9861 C   0  0  0  0  0  0  0  0  0  0  0  0
    0.5883   -5.5075   -2.4298 S   0  0  0  0  0  0  0  0  0  0  0  0
   -0.8791   -5.1504   -1.5902 C   0  0  0  0  0  0  0  0  0  0  0  0
   -1.3960   -4.0990   -0.8216 C   0  0  0  0  0  0  0  0  0  0  0  0
   -0.9720   -2.8962   -0.3194 N   0  0  0  0  0  0  0  0  0  0  0  0
   -2.0100   -2.3550    0.4182 C   0  0  0  0  0  0  0  0  0  0  0  0
   -2.1586   -1.1300    1.1201 C   0  0  0  0  0  0  0  0  0  0  0  0
   -1.3809    0.0193    1.1908 N   0  0  0  0  0  0  0  0  0  0  0  0
   -1.9899    0.8732    2.0758 C   0  0  0  0  0  0  0  0  0  0  0  0
   -1.7903    2.1673    2.5773 C   0  0  0  0  0  0  0  0  0  0  0  0
   -0.6271    3.4259    2.3702 S   0  0  0  0  0  0  0  0  0  0  0  0
   -0.5099    0.5844    0.1820 C   0  0  0  0  0  0  0  0  0  0  0  0
   -1.2888    0.9002   -1.0927 C   0  0  0  0  0  0  0  0  0  0  0  0
    0.4401   -2.5885   -0.2965 C   0  0  0  0  0  0  0  0  0  0  0  0
    0.9415   -2.0518   -1.6359 C   0  0  0  0  0  0  0  0  0  0  0  0
    0.7505   -7.9062   -3.7639 C   0  0  0  0  0  0  0  0  0  0  0  0
    0.6601   -9.2650   -3.8787 C   0  0  0  0  0  0  0  0  0  0  0  0
    1.6147   -9.8272   -4.7579 C   0  0  0  0  0  0  0  0  0  0  0  0
    1.7790  -11.1763   -5.1036 C   0  0  0  0  0  0  0  0  0  0  0  0
    0.8898  -12.2488   -4.5509 C   0  0  0  0  0  0  0  0  0  0  0  0
   -0.4375  -12.3027   -5.3092 C   0  0  0  0  0  0  0  0  0  0  0  0
    2.7739  -11.4568   -6.0198 C   0  0  0  0  0  0  0  0  0  0  0  0
    3.6183  -10.4623   -6.5926 C   0  0  0  0  0  0  0  0  0  0  0  0
    3.4619   -9.1096   -6.2322 C   0  0  0  0  0  0  0  0  0  0  0  0
    4.3589   -8.0410   -6.7751 C   0  0  0  0  0  0  0  0  0  0  0  0
    5.6899   -8.0136   -6.0203 C   0  0  0  0  0  0  0  0  0  0  0  0
    2.4653   -8.8361   -5.3215 C   0  0  0  0  0  0  0  0  0  0  0  0
    2.0588   -7.2459   -4.7232 S   0  0  0  0  0  0  0  0  0  0  0  0
    4.5462  -11.0057   -7.4976 C   0  0  0  0  0  0  0  0  0  0  0  0
    4.4528  -12.3721   -7.6395 C   0  0  0  0  0  0  0  0  0  0  0  0
    3.1649  -13.0367   -6.6324 S   0  0  0  0  0  0  0  0  0  0  0  0
    5.1481  -13.2875   -8.4539 C   0  0  0  0  0  0  0  0  0  0  0  0
    6.2539  -13.1355   -9.2471 C   0  0  0  0  0  0  0  0  0  0  0  0
    7.1630  -11.9797   -9.3700 C   0  0  0  0  0  0  0  0  0  0  0  0
    7.0093  -10.8430   -8.9807 O   0  0  0  0  0  0  0  0  0  0  0  0
    8.3686  -12.4996  -10.0622 C   0  0  0  0  0  0  0  0  0  0  0  0
    9.5682  -11.8526  -10.3027 C   0  0  0  0  0  0  0  0  0  0  0  0
    9.7849  -10.2024   -9.9288 Cl  0  0  0  0  0  0  0  0  0  0  0  0
   10.6206  -12.5934  -10.8594 C   0  0  0  0  0  0  0  0  0  0  0  0
   12.1107  -11.8294  -11.2060 Cl  0  0  0  0  0  0  0  0  0  0  0  0
   10.4698  -13.9597  -11.0908 C   0  0  0  0  0  0  0  0  0  0  0  0
   11.7996  -14.8617  -11.6766 Cl  0  0  0  0  0  0  0  0  0  0  0  0
    9.2516  -14.6116  -10.8394 C   0  0  0  0  0  0  0  0  0  0  0  0
    9.1936  -16.3198  -10.9812 Cl  0  0  0  0  0  0  0  0  0  0  0  0
    8.1766  -13.8562  -10.3895 C   0  0  0  0  0  0  0  0  0  0  0  0
    6.7919  -14.2003  -10.0833 C   0  0  0  0  0  0  0  0  0  0  0  0
    6.0503  -15.1906  -10.6684 C   0  0  0  0  0  0  0  0  0  0  0  0
    4.6818  -15.4272  -10.4013 C   0  0  0  0  0  0  0  0  0  0  0  0
    3.5739  -15.6864  -10.2506 N   0  0  0  0  0  0  0  0  0  0  0  0
    6.4606  -15.9991  -11.7515 C   0  0  0  0  0  0  0  0  0  0  0  0
    6.6563  -16.6300  -12.6896 N   0  0  0  0  0  0  0  0  0  0  0  0
   -0.5431   12.2981    3.5710 H   0  0  0  0  0  0  0  0  0  0  0  0
    4.3284   10.0638    5.3909 H   0  0  0  0  0  0  0  0  0  0  0  0
    5.7899   11.8735    4.6126 H   0  0  0  0  0  0  0  0  0  0  0  0
    6.4003   13.5041    3.0103 H   0  0  0  0  0  0  0  0  0  0  0  0
    5.9230   13.1362    1.3467 H   0  0  0  0  0  0  0  0  0  0  0  0
    5.0001   14.3005    2.2831 H   0  0  0  0  0  0  0  0  0  0  0  0
    3.3381   12.3657    1.1560 H   0  0  0  0  0  0  0  0  0  0  0  0
    1.8659   10.5753    1.9327 H   0  0  0  0  0  0  0  0  0  0  0  0
    4.2674    7.8718    3.2575 H   0  0  0  0  0  0  0  0  0  0  0  0
    5.3803    5.9494    4.3111 H   0  0  0  0  0  0  0  0  0  0  0  0
    5.6760    4.4833    6.1668 H   0  0  0  0  0  0  0  0  0  0  0  0
    4.8803    4.8796    7.6971 H   0  0  0  0  0  0  0  0  0  0  0  0
    4.0832    3.8197    6.5407 H   0  0  0  0  0  0  0  0  0  0  0  0
    2.5951    6.1002    7.5392 H   0  0  0  0  0  0  0  0  0  0  0  0
    1.4936    8.0457    6.4932 H   0  0  0  0  0  0  0  0  0  0  0  0
   -5.6670    5.7012    3.0452 H   0  0  0  0  0  0  0  0  0  0  0  0
   -6.3740    3.7885    1.6751 H   0  0  0  0  0  0  0  0  0  0  0  0
   -4.6460    1.5733    0.3040 H   0  0  0  0  0  0  0  0  0  0  0  0
   -6.0439    2.4267   -0.3387 H   0  0  0  0  0  0  0  0  0  0  0  0
   -4.5070    2.4665   -1.2137 H   0  0  0  0  0  0  0  0  0  0  0  0
   -2.6715    3.9345   -0.4361 H   0  0  0  0  0  0  0  0  0  0  0  0
   -1.9671    5.8407    0.9219 H   0  0  0  0  0  0  0  0  0  0  0  0
   -3.4014    7.9538    5.4023 H   0  0  0  0  0  0  0  0  0  0  0  0
   -4.9649    9.6792    6.1669 H   0  0  0  0  0  0  0  0  0  0  0  0
   -7.9371   10.7457    4.3230 H   0  0  0  0  0  0  0  0  0  0  0  0
   -6.5864   11.8684    4.4481 H   0  0  0  0  0  0  0  0  0  0  0  0
   -7.0410   10.8913    5.8433 H   0  0  0  0  0  0  0  0  0  0  0  0
   -6.8138    9.7145    2.3240 H   0  0  0  0  0  0  0  0  0  0  0  0
   -5.2350    8.0039    1.5456 H   0  0  0  0  0  0  0  0  0  0  0  0
   -1.8609    5.4441    6.0344 H   0  0  0  0  0  0  0  0  0  0  0  0
   -3.2922    6.4008    7.7888 H   0  0  0  0  0  0  0  0  0  0  0  0
   -5.7050    5.9170    7.8247 H   0  0  0  0  0  0  0  0  0  0  0  0
   -7.6554    5.0496    6.6981 H   0  0  0  0  0  0  0  0  0  0  0  0
   -7.5009    4.2623    5.1209 H   0  0  0  0  0  0  0  0  0  0  0  0
   -8.3458    2.6617    6.8204 H   0  0  0  0  0  0  0  0  0  0  0  0
   -6.7536    2.1624    6.2385 H   0  0  0  0  0  0  0  0  0  0  0  0
   -6.9114    2.9416    7.8131 H   0  0  0  0  0  0  0  0  0  0  0  0
   -5.2611    3.4702    4.3654 H   0  0  0  0  0  0  0  0  0  0  0  0
   -2.7393   -8.8381   -0.8829 H   0  0  0  0  0  0  0  0  0  0  0  0
   -4.2025  -10.7241   -1.4991 H   0  0  0  0  0  0  0  0  0  0  0  0
   -4.5164  -11.3236   -3.8662 H   0  0  0  0  0  0  0  0  0  0  0  0
   -3.6062  -11.1720   -6.1757 H   0  0  0  0  0  0  0  0  0  0  0  0
   -2.6456   -9.7658   -6.6576 H   0  0  0  0  0  0  0  0  0  0  0  0
   -4.9495   -9.6222   -7.5775 H   0  0  0  0  0  0  0  0  0  0  0  0
   -4.6612   -8.3131   -6.4259 H   0  0  0  0  0  0  0  0  0  0  0  0
   -5.6189   -9.7129   -5.9448 H   0  0  0  0  0  0  0  0  0  0  0  0
   -1.9104   -8.1479   -5.0145 H   0  0  0  0  0  0  0  0  0  0  0  0
    0.3256   -0.0753   -0.0358 H   0  0  0  0  0  0  0  0  0  0  0  0
   -0.1033    1.5072    0.6032 H   0  0  0  0  0  0  0  0  0  0  0  0
   -2.0925    1.5982   -0.8719 H   0  0  0  0  0  0  0  0  0  0  0  0
   -0.6297    1.3481   -1.8318 H   0  0  0  0  0  0  0  0  0  0  0  0
   -1.7274   -0.0046   -1.5090 H   0  0  0  0  0  0  0  0  0  0  0  0
    0.6345   -1.8970    0.5243 H   0  0  0  0  0  0  0  0  0  0  0  0
    0.9766   -3.5183   -0.0739 H   0  0  0  0  0  0  0  0  0  0  0  0
    1.9880   -1.7718   -1.5502 H   0  0  0  0  0  0  0  0  0  0  0  0
    0.8563   -2.8209   -2.3988 H   0  0  0  0  0  0  0  0  0  0  0  0
    0.3691   -1.1879   -1.9602 H   0  0  0  0  0  0  0  0  0  0  0  0
   -0.0671   -9.8415   -3.3381 H   0  0  0  0  0  0  0  0  0  0  0  0
    1.3964  -13.2121   -4.6423 H   0  0  0  0  0  0  0  0  0  0  0  0
    0.6970  -12.0620   -3.4929 H   0  0  0  0  0  0  0  0  0  0  0  0
   -0.2609  -12.5032   -6.3633 H   0  0  0  0  0  0  0  0  0  0  0  0
   -0.9667  -11.3573   -5.2183 H   0  0  0  0  0  0  0  0  0  0  0  0
   -1.0672  -13.0922   -4.9070 H   0  0  0  0  0  0  0  0  0  0  0  0
    3.8645   -7.0726   -6.6687 H   0  0  0  0  0  0  0  0  0  0  0  0
    4.5488   -8.2168   -7.8348 H   0  0  0  0  0  0  0  0  0  0  0  0
    6.2143   -8.9586   -6.1376 H   0  0  0  0  0  0  0  0  0  0  0  0
    5.5198   -7.8388   -4.9601 H   0  0  0  0  0  0  0  0  0  0  0  0
    6.3207   -7.2176   -6.4068 H   0  0  0  0  0  0  0  0  0  0  0  0
    5.2665  -10.4231   -8.0401 H   0  0  0  0  0  0  0  0  0  0  0  0
    4.7389  -14.2906   -8.4076 H   0  0  0  0  0  0  0  0  0  0  0  0
  1  2  2  0  0  0  0
  2  3  1  0  0  0  0
  3  4  2  0  0  0  0
  3  5  1  0  0  0  0
  5  6  2  0  0  0  0
  6  7  1  0  0  0  0
  6  8  1  0  0  0  0
  8  9  1  0  0  0  0
  8 10  2  0  0  0  0
 10 11  1  0  0  0  0
 10 12  1  0  0  0  0
 12 13  1  0  0  0  0
 12 14  2  0  0  0  0
 14 15  1  0  0  0  0
 15 16  2  0  0  0  0
 16 17  1  0  0  0  0
 17 18  3  0  0  0  0
 16 19  1  0  0  0  0
 19 20  3  0  0  0  0
  1 21  1  0  0  0  0
 21 22  2  0  0  0  0
 22 23  1  0  0  0  0
 23 24  1  0  0  0  0
 24 25  2  0  0  0  0
 25 26  1  0  0  0  0
 26 27  2  0  0  0  0
 27 28  1  0  0  0  0
 27 29  1  0  0  0  0
 29 30  2  0  0  0  0
 23 31  1  0  0  0  0
 31 32  2  0  0  0  0
 32 33  1  0  0  0  0
 33 34  2  0  0  0  0
 34 35  1  0  0  0  0
 34 36  1  0  0  0  0
 36 37  2  0  0  0  0
 22 38  1  0  0  0  0
 38 39  1  0  0  0  0
 39 40  1  0  0  0  0
 40 41  2  0  0  0  0
 41 42  1  0  0  0  0
 42 43  1  0  0  0  0
 43 44  2  0  0  0  0
 44 45  1  0  0  0  0
 45 46  2  0  0  0  0
 46 47  1  0  0  0  0
 46 48  1  0  0  0  0
 48 49  2  0  0  0  0
 42 50  1  0  0  0  0
 50 51  2  0  0  0  0
 51 52  1  0  0  0  0
 52 53  2  0  0  0  0
 53 54  1  0  0  0  0
 53 55  1  0  0  0  0
 55 56  2  0  0  0  0
 41 57  1  0  0  0  0
 57 58  1  0  0  0  0
 40 59  1  0  0  0  0
 59 60  2  0  0  0  0
 60 61  1  0  0  0  0
 61 62  2  0  0  0  0
 62 63  1  0  0  0  0
 63 64  2  0  0  0  0
 64 65  1  0  0  0  0
 65 66  1  0  0  0  0
 66 67  1  0  0  0  0
 65 68  2  0  0  0  0
 60 69  1  0  0  0  0
 69 70  1  0  0  0  0
 70 71  1  0  0  0  0
 71 72  1  0  0  0  0
 72 73  1  0  0  0  0
 73 74  1  0  0  0  0
 74 75  2  0  0  0  0
 75 76  1  0  0  0  0
 76 77  1  0  0  0  0
 74 78  1  0  0  0  0
 78 79  1  0  0  0  0
 79 80  1  0  0  0  0
 80 81  1  0  0  0  0
 81 82  1  0  0  0  0
 82 83  1  0  0  0  0
 83 84  2  0  0  0  0
 84 85  1  0  0  0  0
 85 86  2  0  0  0  0
 86 87  1  0  0  0  0
 87 88  1  0  0  0  0
 88 89  1  0  0  0  0
 87 90  2  0  0  0  0
 82 91  2  0  0  0  0
 91 92  1  0  0  0  0
 92 93  1  0  0  0  0
 93 94  1  0  0  0  0
 94 95  1  0  0  0  0
 95 96  1  0  0  0  0
 96 97  1  0  0  0  0
 97 98  1  0  0  0  0
 98 99  1  0  0  0  0
 99100  1  0  0  0  0
100101  1  0  0  0  0
 98102  1  0  0  0  0
102103  1  0  0  0  0
 95104  1  0  0  0  0
104105  1  0  0  0  0
 91106  1  0  0  0  0
106107  2  0  0  0  0
107108  1  0  0  0  0
108109  2  0  0  0  0
109110  1  0  0  0  0
110111  1  0  0  0  0
109112  1  0  0  0  0
112113  2  0  0  0  0
113114  1  0  0  0  0
114115  1  0  0  0  0
115116  1  0  0  0  0
114117  2  0  0  0  0
117118  1  0  0  0  0
113119  1  0  0  0  0
119120  2  0  0  0  0
120121  1  0  0  0  0
120122  1  0  0  0  0
122123  2  0  0  0  0
123124  1  0  0  0  0
124125  2  0  0  0  0
124126  1  0  0  0  0
126127  2  0  0  0  0
127128  1  0  0  0  0
127129  1  0  0  0  0
129130  1  0  0  0  0
129131  2  0  0  0  0
131132  1  0  0  0  0
131133  1  0  0  0  0
133134  1  0  0  0  0
133135  2  0  0  0  0
135136  1  0  0  0  0
136137  2  0  0  0  0
137138  1  0  0  0  0
138139  3  0  0  0  0
137140  1  0  0  0  0
140141  3  0  0  0  0
 15  2  1  0  0  0  0
 58 21  1  0  0  0  0
101 59  1  0  0  0  0
118106  1  0  0  0  0
136123  1  0  0  0  0
 14  5  1  0  0  0  0
 30 24  1  0  0  0  0
 37 31  1  0  0  0  0
 57 38  2  0  0  0  0
 68 61  1  0  0  0  0
100 69  2  0  0  0  0
117108  1  0  0  0  0
135126  1  0  0  0  0
 49 43  1  0  0  0  0
 56 50  1  0  0  0  0
 99 71  2  0  0  0  0
121112  1  0  0  0  0
 97 72  2  0  0  0  0
 77 73  2  0  0  0  0
 96 78  2  0  0  0  0
 94 79  2  0  0  0  0
 93 81  2  0  0  0  0
 90 83  1  0  0  0  0
  1142  1  0  0  0  0
 25143  1  0  0  0  0
 26144  1  0  0  0  0
 28145  1  0  0  0  0
 28146  1  0  0  0  0
 28147  1  0  0  0  0
 29148  1  0  0  0  0
 30149  1  0  0  0  0
 32150  1  0  0  0  0
 33151  1  0  0  0  0
 35152  1  0  0  0  0
 35153  1  0  0  0  0
 35154  1  0  0  0  0
 36155  1  0  0  0  0
 37156  1  0  0  0  0
 44157  1  0  0  0  0
 45158  1  0  0  0  0
 47159  1  0  0  0  0
 47160  1  0  0  0  0
 47161  1  0  0  0  0
 48162  1  0  0  0  0
 49163  1  0  0  0  0
 51164  1  0  0  0  0
 52165  1  0  0  0  0
 54166  1  0  0  0  0
 54167  1  0  0  0  0
 54168  1  0  0  0  0
 55169  1  0  0  0  0
 56170  1  0  0  0  0
 62171  1  0  0  0  0
 63172  1  0  0  0  0
 64173  1  0  0  0  0
 66174  1  0  0  0  0
 66175  1  0  0  0  0
 67176  1  0  0  0  0
 67177  1  0  0  0  0
 67178  1  0  0  0  0
 68179  1  0  0  0  0
 84180  1  0  0  0  0
 85181  1  0  0  0  0
 86182  1  0  0  0  0
 88183  1  0  0  0  0
 88184  1  0  0  0  0
 89185  1  0  0  0  0
 89186  1  0  0  0  0
 89187  1  0  0  0  0
 90188  1  0  0  0  0
102189  1  0  0  0  0
102190  1  0  0  0  0
103191  1  0  0  0  0
103192  1  0  0  0  0
103193  1  0  0  0  0
104194  1  0  0  0  0
104195  1  0  0  0  0
105196  1  0  0  0  0
105197  1  0  0  0  0
105198  1  0  0  0  0
107199  1  0  0  0  0
110200  1  0  0  0  0
110201  1  0  0  0  0
111202  1  0  0  0  0
111203  1  0  0  0  0
111204  1  0  0  0  0
115205  1  0  0  0  0
115206  1  0  0  0  0
116207  1  0  0  0  0
116208  1  0  0  0  0
116209  1  0  0  0  0
119210  1  0  0  0  0
122211  1  0  0  0  0
M  END
