
  xtb     02082210473D
 energy: -423.344733259137 gnorm: 0.000749878183 xtb: 6.4.1 (unknown)
249274  0     0  0            999 V2000
    4.2727  -10.9494   -2.2916 C   0  0  0  0  0  0  0  0  0  0  0  0
    5.5334  -10.5616   -2.7158 C   0  0  0  0  0  0  0  0  0  0  0  0
    6.2522   -9.4188   -2.1571 C   0  0  0  0  0  0  0  0  0  0  0  0
    5.8908   -8.6827   -1.2589 O   0  0  0  0  0  0  0  0  0  0  0  0
    7.5918   -9.4419   -2.7979 C   0  0  0  0  0  0  0  0  0  0  0  0
    8.6542   -8.5812   -2.6086 C   0  0  0  0  0  0  0  0  0  0  0  0
    8.5001   -7.1829   -1.6394 Cl  0  0  0  0  0  0  0  0  0  0  0  0
    9.8675   -8.8696   -3.2478 C   0  0  0  0  0  0  0  0  0  0  0  0
   11.1954   -7.8022   -3.0853 Cl  0  0  0  0  0  0  0  0  0  0  0  0
   10.0019  -10.0424   -3.9854 C   0  0  0  0  0  0  0  0  0  0  0  0
   11.5198  -10.4276   -4.6781 Cl  0  0  0  0  0  0  0  0  0  0  0  0
    8.9189  -10.9191   -4.1658 C   0  0  0  0  0  0  0  0  0  0  0  0
    9.2095  -12.4193   -4.9457 Cl  0  0  0  0  0  0  0  0  0  0  0  0
    7.6869  -10.5755   -3.6283 C   0  0  0  0  0  0  0  0  0  0  0  0
    6.3681  -11.2076   -3.6870 C   0  0  0  0  0  0  0  0  0  0  0  0
    5.8908  -12.0474   -4.6667 C   0  0  0  0  0  0  0  0  0  0  0  0
    4.5655  -12.5309   -4.6796 C   0  0  0  0  0  0  0  0  0  0  0  0
    3.5017  -12.9558   -4.7646 N   0  0  0  0  0  0  0  0  0  0  0  0
    6.5211  -12.3645   -5.8832 C   0  0  0  0  0  0  0  0  0  0  0  0
    6.8849  -12.5857   -6.9508 N   0  0  0  0  0  0  0  0  0  0  0  0
    3.3059  -10.1257   -1.7262 C   0  0  0  0  0  0  0  0  0  0  0  0
    3.1172   -8.7233   -1.7651 C   0  0  0  0  0  0  0  0  0  0  0  0
    3.7951   -7.8135   -2.5205 N   0  0  0  0  0  0  0  0  0  0  0  0
    4.4146   -8.1187   -3.7377 C   0  0  0  0  0  0  0  0  0  0  0  0
    3.8615   -9.0388   -4.6285 C   0  0  0  0  0  0  0  0  0  0  0  0
    4.4985   -9.3190   -5.8188 C   0  0  0  0  0  0  0  0  0  0  0  0
    5.7017   -8.7033   -6.1596 C   0  0  0  0  0  0  0  0  0  0  0  0
    6.3842   -9.0342   -7.4480 C   0  0  0  0  0  0  0  0  0  0  0  0
    6.2335   -7.7722   -5.2774 C   0  0  0  0  0  0  0  0  0  0  0  0
    5.6022   -7.4758   -4.0844 C   0  0  0  0  0  0  0  0  0  0  0  0
    3.8258   -6.4682   -2.0830 C   0  0  0  0  0  0  0  0  0  0  0  0
    3.4875   -5.4411   -2.9570 C   0  0  0  0  0  0  0  0  0  0  0  0
    3.4924   -4.1333   -2.5133 C   0  0  0  0  0  0  0  0  0  0  0  0
    3.8322   -3.8223   -1.2015 C   0  0  0  0  0  0  0  0  0  0  0  0
    3.8365   -2.4003   -0.7307 C   0  0  0  0  0  0  0  0  0  0  0  0
    4.1927   -4.8562   -0.3457 C   0  0  0  0  0  0  0  0  0  0  0  0
    4.1930   -6.1682   -0.7754 C   0  0  0  0  0  0  0  0  0  0  0  0
    2.0149   -8.3597   -0.9604 C   0  0  0  0  0  0  0  0  0  0  0  0
    1.2868   -6.8492   -0.5527 S   0  0  0  0  0  0  0  0  0  0  0  0
    0.0521   -7.6598    0.4113 C   0  0  0  0  0  0  0  0  0  0  0  0
    0.2197   -9.0382    0.4266 C   0  0  0  0  0  0  0  0  0  0  0  0
   -0.5134   -9.9651    1.1496 N   0  0  0  0  0  0  0  0  0  0  0  0
   -0.6387  -11.2471    0.5736 C   0  0  0  0  0  0  0  0  0  0  0  0
   -0.3659  -12.4036    1.2972 C   0  0  0  0  0  0  0  0  0  0  0  0
   -0.4758  -13.6417    0.6945 C   0  0  0  0  0  0  0  0  0  0  0  0
   -0.8452  -13.7642   -0.6386 C   0  0  0  0  0  0  0  0  0  0  0  0
   -0.9433  -15.1025   -1.3026 C   0  0  0  0  0  0  0  0  0  0  0  0
   -1.1026  -12.6034   -1.3586 C   0  0  0  0  0  0  0  0  0  0  0  0
   -1.0009  -11.3616   -0.7667 C   0  0  0  0  0  0  0  0  0  0  0  0
   -0.8449   -9.7592    2.4920 C   0  0  0  0  0  0  0  0  0  0  0  0
   -1.8403  -10.5337    3.0864 C   0  0  0  0  0  0  0  0  0  0  0  0
   -2.1304  -10.3897    4.4278 C   0  0  0  0  0  0  0  0  0  0  0  0
   -1.4697   -9.4519    5.2138 C   0  0  0  0  0  0  0  0  0  0  0  0
   -1.8193   -9.2751    6.6598 C   0  0  0  0  0  0  0  0  0  0  0  0
   -0.4971   -8.6673    4.6100 C   0  0  0  0  0  0  0  0  0  0  0  0
   -0.1749   -8.8227    3.2758 C   0  0  0  0  0  0  0  0  0  0  0  0
    1.3269   -9.4145   -0.3782 C   0  0  0  0  0  0  0  0  0  0  0  0
    2.0281  -10.9337   -0.7986 S   0  0  0  0  0  0  0  0  0  0  0  0
   -0.8768   -6.7598    1.0241 C   0  0  0  0  0  0  0  0  0  0  0  0
   -2.2421   -6.8150    1.2372 C   0  0  0  0  0  0  0  0  0  0  0  0
   -3.0782   -7.9743    0.8947 C   0  0  0  0  0  0  0  0  0  0  0  0
   -2.9693   -8.4794   -0.4001 C   0  0  0  0  0  0  0  0  0  0  0  0
   -3.7216   -9.5606   -0.8107 C   0  0  0  0  0  0  0  0  0  0  0  0
   -4.5749  -10.1756    0.0889 C   0  0  0  0  0  0  0  0  0  0  0  0
   -4.6909   -9.6763    1.3708 C   0  0  0  0  0  0  0  0  0  0  0  0
   -3.9739   -8.5618    1.7931 C   0  0  0  0  0  0  0  0  0  0  0  0
   -4.1856   -8.0654    3.1963 C   0  0  0  0  0  0  0  0  0  0  0  0
   -5.6381   -7.6543    3.4453 C   0  0  0  0  0  0  0  0  0  0  0  0
   -2.7372   -5.5631    1.6709 C   0  0  0  0  0  0  0  0  0  0  0  0
   -4.3533   -4.9352    1.9182 S   0  0  0  0  0  0  0  0  0  0  0  0
   -3.6922   -3.3617    2.2078 C   0  0  0  0  0  0  0  0  0  0  0  0
   -4.1195   -2.0466    2.4743 C   0  0  0  0  0  0  0  0  0  0  0  0
   -5.3855   -1.4848    2.7514 C   0  0  0  0  0  0  0  0  0  0  0  0
   -5.4842   -0.0728    3.0131 C   0  0  0  0  0  0  0  0  0  0  0  0
   -6.7205    0.3002    3.3023 N   0  0  0  0  0  0  0  0  0  0  0  0
   -7.6789   -1.0030    3.2475 S   0  0  0  0  0  0  0  0  0  0  0  0
   -6.5543   -2.0979    2.8507 N   0  0  0  0  0  0  0  0  0  0  0  0
   -4.3377    0.7387    2.8554 C   0  0  0  0  0  0  0  0  0  0  0  0
   -4.1716    2.1338    2.7938 C   0  0  0  0  0  0  0  0  0  0  0  0
   -5.1173    3.5778    2.9525 S   0  0  0  0  0  0  0  0  0  0  0  0
   -3.7311    4.5117    2.4413 C   0  0  0  0  0  0  0  0  0  0  0  0
   -3.5621    5.8884    2.1845 C   0  0  0  0  0  0  0  0  0  0  0  0
   -4.6893    6.8236    2.3284 C   0  0  0  0  0  0  0  0  0  0  0  0
   -5.3079    7.3940    1.2145 C   0  0  0  0  0  0  0  0  0  0  0  0
   -4.8278    7.1230   -0.1836 C   0  0  0  0  0  0  0  0  0  0  0  0
   -5.3779    5.7881   -0.6905 C   0  0  0  0  0  0  0  0  0  0  0  0
   -6.4505    8.1573    1.4113 C   0  0  0  0  0  0  0  0  0  0  0  0
   -6.9658    8.3678    2.6756 C   0  0  0  0  0  0  0  0  0  0  0  0
   -6.3416    7.8068    3.7760 C   0  0  0  0  0  0  0  0  0  0  0  0
   -5.2141    7.0298    3.5995 C   0  0  0  0  0  0  0  0  0  0  0  0
   -2.2813    6.1568    1.7492 C   0  0  0  0  0  0  0  0  0  0  0  0
   -1.2901    4.7038    1.6302 S   0  0  0  0  0  0  0  0  0  0  0  0
   -2.6038    3.7301    2.1815 C   0  0  0  0  0  0  0  0  0  0  0  0
   -2.8525    2.3696    2.3934 C   0  0  0  0  0  0  0  0  0  0  0  0
   -2.1858    1.1821    2.2417 N   0  0  0  0  0  0  0  0  0  0  0  0
   -3.0786    0.1669    2.5295 C   0  0  0  0  0  0  0  0  0  0  0  0
   -2.9497   -1.2410    2.4845 C   0  0  0  0  0  0  0  0  0  0  0  0
   -1.8400   -2.0497    2.3069 N   0  0  0  0  0  0  0  0  0  0  0  0
   -2.2994   -3.3281    2.1192 C   0  0  0  0  0  0  0  0  0  0  0  0
   -1.7581   -4.5789    1.8093 C   0  0  0  0  0  0  0  0  0  0  0  0
   -0.1927   -5.1846    1.4261 S   0  0  0  0  0  0  0  0  0  0  0  0
   -0.5041   -1.8313    2.8183 C   0  0  0  0  0  0  0  0  0  0  0  0
   -0.2703   -2.6047    4.1160 C   0  0  0  0  0  0  0  0  0  0  0  0
   -0.9517    1.1273    1.4886 C   0  0  0  0  0  0  0  0  0  0  0  0
    0.2475    1.6256    2.2947 C   0  0  0  0  0  0  0  0  0  0  0  0
   -1.6302    7.3727    1.3810 C   0  0  0  0  0  0  0  0  0  0  0  0
   -1.8348    8.6808    1.7753 C   0  0  0  0  0  0  0  0  0  0  0  0
   -2.7842    9.1194    2.7191 N   0  0  0  0  0  0  0  0  0  0  0  0
   -3.7845    9.9994    2.3068 C   0  0  0  0  0  0  0  0  0  0  0  0
   -4.6887   10.5242    3.2296 C   0  0  0  0  0  0  0  0  0  0  0  0
   -5.7114   11.3516    2.8156 C   0  0  0  0  0  0  0  0  0  0  0  0
   -5.8829   11.6769    1.4760 C   0  0  0  0  0  0  0  0  0  0  0  0
   -7.0127   12.5567    1.0335 C   0  0  0  0  0  0  0  0  0  0  0  0
   -4.9969   11.1315    0.5585 C   0  0  0  0  0  0  0  0  0  0  0  0
   -3.9660   10.3053    0.9595 C   0  0  0  0  0  0  0  0  0  0  0  0
   -2.2717    9.1644    4.0413 C   0  0  0  0  0  0  0  0  0  0  0  0
   -2.0619   10.3759    4.6951 C   0  0  0  0  0  0  0  0  0  0  0  0
   -1.5466   10.3938    5.9749 C   0  0  0  0  0  0  0  0  0  0  0  0
   -1.2084    9.2147    6.6312 C   0  0  0  0  0  0  0  0  0  0  0  0
   -0.6596    9.2552    8.0247 C   0  0  0  0  0  0  0  0  0  0  0  0
   -1.3920    8.0141    5.9604 C   0  0  0  0  0  0  0  0  0  0  0  0
   -1.9147    7.9839    4.6804 C   0  0  0  0  0  0  0  0  0  0  0  0
   -0.8780    9.5416    1.1884 C   0  0  0  0  0  0  0  0  0  0  0  0
   -0.6209   11.2437    1.2469 S   0  0  0  0  0  0  0  0  0  0  0  0
    0.8036   11.0922    0.2013 C   0  0  0  0  0  0  0  0  0  0  0  0
    0.9964    9.7614   -0.2355 C   0  0  0  0  0  0  0  0  0  0  0  0
    1.8731    9.3169   -1.1820 N   0  0  0  0  0  0  0  0  0  0  0  0
    2.3754   10.1235   -2.2106 C   0  0  0  0  0  0  0  0  0  0  0  0
    1.5761   11.0759   -2.8426 C   0  0  0  0  0  0  0  0  0  0  0  0
    2.1070   11.8830   -3.8260 C   0  0  0  0  0  0  0  0  0  0  0  0
    3.4419   11.7714   -4.2101 C   0  0  0  0  0  0  0  0  0  0  0  0
    4.0117   12.6944   -5.2400 C   0  0  0  0  0  0  0  0  0  0  0  0
    4.2177   10.7899   -3.6085 C   0  0  0  0  0  0  0  0  0  0  0  0
    3.6972    9.9709   -2.6241 C   0  0  0  0  0  0  0  0  0  0  0  0
    2.2606    7.9579   -1.1510 C   0  0  0  0  0  0  0  0  0  0  0  0
    2.1987    7.1876   -2.3069 C   0  0  0  0  0  0  0  0  0  0  0  0
    2.5353    5.8489   -2.2585 C   0  0  0  0  0  0  0  0  0  0  0  0
    2.9388    5.2533   -1.0689 C   0  0  0  0  0  0  0  0  0  0  0  0
    3.2454    3.7883   -1.0121 C   0  0  0  0  0  0  0  0  0  0  0  0
    3.0283    6.0422    0.0718 C   0  0  0  0  0  0  0  0  0  0  0  0
    2.6967    7.3821    0.0382 C   0  0  0  0  0  0  0  0  0  0  0  0
    0.0486    8.9086    0.3710 C   0  0  0  0  0  0  0  0  0  0  0  0
   -0.2641    7.2105    0.2885 S   0  0  0  0  0  0  0  0  0  0  0  0
    1.5104   12.2601   -0.0788 C   0  0  0  0  0  0  0  0  0  0  0  0
    2.8290   12.3263   -0.4898 C   0  0  0  0  0  0  0  0  0  0  0  0
    3.8422   11.3197   -0.1418 C   0  0  0  0  0  0  0  0  0  0  0  0
    3.6831   10.2976    0.5002 O   0  0  0  0  0  0  0  0  0  0  0  0
    5.1279   11.8716   -0.6239 C   0  0  0  0  0  0  0  0  0  0  0  0
    6.3933   11.3278   -0.5447 C   0  0  0  0  0  0  0  0  0  0  0  0
    7.4539   12.0302   -1.0985 C   0  0  0  0  0  0  0  0  0  0  0  0
    7.2262   13.2582   -1.7043 C   0  0  0  0  0  0  0  0  0  0  0  0
    8.5572   14.1173   -2.3869 Cl  0  0  0  0  0  0  0  0  0  0  0  0
    5.9562   13.8235   -1.7809 C   0  0  0  0  0  0  0  0  0  0  0  0
    4.9015   13.1156   -1.2357 C   0  0  0  0  0  0  0  0  0  0  0  0
    3.4684   13.4079   -1.1787 C   0  0  0  0  0  0  0  0  0  0  0  0
    2.8311   14.4380   -1.8273 C   0  0  0  0  0  0  0  0  0  0  0  0
    3.4881   15.4120   -2.6002 C   0  0  0  0  0  0  0  0  0  0  0  0
    3.9684   16.2214   -3.2595 N   0  0  0  0  0  0  0  0  0  0  0  0
    1.4312   14.5884   -1.8706 C   0  0  0  0  0  0  0  0  0  0  0  0
    0.2984   14.7478   -1.9762 N   0  0  0  0  0  0  0  0  0  0  0  0
    4.0116  -11.9987   -2.3534 H   0  0  0  0  0  0  0  0  0  0  0  0
    2.9290   -9.5278   -4.3896 H   0  0  0  0  0  0  0  0  0  0  0  0
    4.0568  -10.0320   -6.4997 H   0  0  0  0  0  0  0  0  0  0  0  0
    7.3160   -8.4846   -7.5469 H   0  0  0  0  0  0  0  0  0  0  0  0
    6.5996  -10.0999   -7.5048 H   0  0  0  0  0  0  0  0  0  0  0  0
    5.7410   -8.7857   -8.2905 H   0  0  0  0  0  0  0  0  0  0  0  0
    7.1604   -7.2737   -5.5206 H   0  0  0  0  0  0  0  0  0  0  0  0
    6.0287   -6.7513   -3.4074 H   0  0  0  0  0  0  0  0  0  0  0  0
    3.2130   -5.6743   -3.9754 H   0  0  0  0  0  0  0  0  0  0  0  0
    3.2189   -3.3412   -3.1951 H   0  0  0  0  0  0  0  0  0  0  0  0
    3.6779   -2.3487    0.3438 H   0  0  0  0  0  0  0  0  0  0  0  0
    3.0628   -1.8241   -1.2330 H   0  0  0  0  0  0  0  0  0  0  0  0
    4.7982   -1.9369   -0.9531 H   0  0  0  0  0  0  0  0  0  0  0  0
    4.4790   -4.6318    0.6713 H   0  0  0  0  0  0  0  0  0  0  0  0
    4.4955   -6.9692   -0.1197 H   0  0  0  0  0  0  0  0  0  0  0  0
   -0.0561  -12.3294    2.3290 H   0  0  0  0  0  0  0  0  0  0  0  0
   -0.2554  -14.5285    1.2710 H   0  0  0  0  0  0  0  0  0  0  0  0
   -0.1714  -15.1977   -2.0658 H   0  0  0  0  0  0  0  0  0  0  0  0
   -1.9091  -15.2174   -1.7920 H   0  0  0  0  0  0  0  0  0  0  0  0
   -0.8176  -15.9065   -0.5823 H   0  0  0  0  0  0  0  0  0  0  0  0
   -1.3816  -12.6751   -2.3997 H   0  0  0  0  0  0  0  0  0  0  0  0
   -1.1925  -10.4680   -1.3400 H   0  0  0  0  0  0  0  0  0  0  0  0
   -2.3833  -11.2511    2.4905 H   0  0  0  0  0  0  0  0  0  0  0  0
   -2.8884  -11.0188    4.8736 H   0  0  0  0  0  0  0  0  0  0  0  0
   -2.6224   -8.5440    6.7634 H   0  0  0  0  0  0  0  0  0  0  0  0
   -0.9627   -8.9156    7.2253 H   0  0  0  0  0  0  0  0  0  0  0  0
   -2.1606  -10.2122    7.0935 H   0  0  0  0  0  0  0  0  0  0  0  0
    0.0364   -7.9337    5.1977 H   0  0  0  0  0  0  0  0  0  0  0  0
    0.6218   -8.2305    2.8523 H   0  0  0  0  0  0  0  0  0  0  0  0
   -2.2961   -7.9935   -1.0929 H   0  0  0  0  0  0  0  0  0  0  0  0
   -3.6430   -9.9260   -1.8236 H   0  0  0  0  0  0  0  0  0  0  0  0
   -5.1504  -11.0385   -0.2113 H   0  0  0  0  0  0  0  0  0  0  0  0
   -5.3553  -10.1626    2.0698 H   0  0  0  0  0  0  0  0  0  0  0  0
   -3.5214   -7.2281    3.4072 H   0  0  0  0  0  0  0  0  0  0  0  0
   -3.9274   -8.8661    3.8927 H   0  0  0  0  0  0  0  0  0  0  0  0
   -5.7341   -7.2072    4.4317 H   0  0  0  0  0  0  0  0  0  0  0  0
   -5.9684   -6.9299    2.7059 H   0  0  0  0  0  0  0  0  0  0  0  0
   -6.2987   -8.5158    3.3949 H   0  0  0  0  0  0  0  0  0  0  0  0
   -5.1693    7.9249   -0.8404 H   0  0  0  0  0  0  0  0  0  0  0  0
   -3.7379    7.1003   -0.2188 H   0  0  0  0  0  0  0  0  0  0  0  0
   -5.0329    4.9689   -0.0638 H   0  0  0  0  0  0  0  0  0  0  0  0
   -6.4651    5.7966   -0.6695 H   0  0  0  0  0  0  0  0  0  0  0  0
   -5.0499    5.6048   -1.7113 H   0  0  0  0  0  0  0  0  0  0  0  0
   -6.9423    8.5927    0.5536 H   0  0  0  0  0  0  0  0  0  0  0  0
   -7.8551    8.9665    2.8023 H   0  0  0  0  0  0  0  0  0  0  0  0
   -6.7375    7.9643    4.7679 H   0  0  0  0  0  0  0  0  0  0  0  0
   -4.7282    6.5775    4.4519 H   0  0  0  0  0  0  0  0  0  0  0  0
   -0.3780   -0.7735    3.0237 H   0  0  0  0  0  0  0  0  0  0  0  0
    0.2203   -2.1515    2.0617 H   0  0  0  0  0  0  0  0  0  0  0  0
    0.7151   -2.3667    4.5074 H   0  0  0  0  0  0  0  0  0  0  0  0
   -0.3241   -3.6763    3.9477 H   0  0  0  0  0  0  0  0  0  0  0  0
   -1.0177   -2.3292    4.8571 H   0  0  0  0  0  0  0  0  0  0  0  0
   -1.0683    1.7731    0.6101 H   0  0  0  0  0  0  0  0  0  0  0  0
   -0.8012    0.1079    1.1326 H   0  0  0  0  0  0  0  0  0  0  0  0
    0.1497    2.6888    2.4944 H   0  0  0  0  0  0  0  0  0  0  0  0
    1.1603    1.4648    1.7280 H   0  0  0  0  0  0  0  0  0  0  0  0
    0.3340    1.1123    3.2496 H   0  0  0  0  0  0  0  0  0  0  0  0
   -4.5950   10.2707    4.2743 H   0  0  0  0  0  0  0  0  0  0  0  0
   -6.3952   11.7497    3.5518 H   0  0  0  0  0  0  0  0  0  0  0  0
   -7.2532   13.2922    1.7978 H   0  0  0  0  0  0  0  0  0  0  0  0
   -7.9062   11.9576    0.8512 H   0  0  0  0  0  0  0  0  0  0  0  0
   -6.7617   13.0761    0.1115 H   0  0  0  0  0  0  0  0  0  0  0  0
   -5.1102   11.3576   -0.4924 H   0  0  0  0  0  0  0  0  0  0  0  0
   -3.3041    9.8899    0.2146 H   0  0  0  0  0  0  0  0  0  0  0  0
   -2.2996   11.3010    4.1909 H   0  0  0  0  0  0  0  0  0  0  0  0
   -1.3914   11.3409    6.4714 H   0  0  0  0  0  0  0  0  0  0  0  0
   -1.4200    9.6125    8.7188 H   0  0  0  0  0  0  0  0  0  0  0  0
   -0.3368    8.2682    8.3457 H   0  0  0  0  0  0  0  0  0  0  0  0
    0.1876    9.9369    8.0818 H   0  0  0  0  0  0  0  0  0  0  0  0
   -1.1257    7.0851    6.4444 H   0  0  0  0  0  0  0  0  0  0  0  0
   -2.0479    7.0412    4.1738 H   0  0  0  0  0  0  0  0  0  0  0  0
    0.5401   11.1847   -2.5586 H   0  0  0  0  0  0  0  0  0  0  0  0
    1.4773   12.6215   -4.3004 H   0  0  0  0  0  0  0  0  0  0  0  0
    3.4251   12.6531   -6.1565 H   0  0  0  0  0  0  0  0  0  0  0  0
    5.0415   12.4339   -5.4695 H   0  0  0  0  0  0  0  0  0  0  0  0
    3.9878   13.7234   -4.8813 H   0  0  0  0  0  0  0  0  0  0  0  0
    5.2513   10.6723   -3.8997 H   0  0  0  0  0  0  0  0  0  0  0  0
    4.3151    9.2191   -2.1565 H   0  0  0  0  0  0  0  0  0  0  0  0
    1.8766    7.6396   -3.2337 H   0  0  0  0  0  0  0  0  0  0  0  0
    2.4732    5.2544   -3.1583 H   0  0  0  0  0  0  0  0  0  0  0  0
    3.9652    3.5719   -0.2264 H   0  0  0  0  0  0  0  0  0  0  0  0
    3.6398    3.4351   -1.9619 H   0  0  0  0  0  0  0  0  0  0  0  0
    2.3323    3.2315   -0.7972 H   0  0  0  0  0  0  0  0  0  0  0  0
    3.3622    5.6022    1.0000 H   0  0  0  0  0  0  0  0  0  0  0  0
    2.7882    8.0008    0.9171 H   0  0  0  0  0  0  0  0  0  0  0  0
    0.9720   13.1869    0.0800 H   0  0  0  0  0  0  0  0  0  0  0  0
    6.5457   10.3718   -0.0678 H   0  0  0  0  0  0  0  0  0  0  0  0
    8.4553   11.6309   -1.0635 H   0  0  0  0  0  0  0  0  0  0  0  0
    5.8227   14.7841   -2.2505 H   0  0  0  0  0  0  0  0  0  0  0  0
  1  2  2  0  0  0  0
  2  3  1  0  0  0  0
  3  4  2  0  0  0  0
  3  5  1  0  0  0  0
  5  6  2  0  0  0  0
  6  7  1  0  0  0  0
  6  8  1  0  0  0  0
  8  9  1  0  0  0  0
  8 10  2  0  0  0  0
 10 11  1  0  0  0  0
 10 12  1  0  0  0  0
 12 13  1  0  0  0  0
 12 14  2  0  0  0  0
 14 15  1  0  0  0  0
 15 16  2  0  0  0  0
 16 17  1  0  0  0  0
 17 18  3  0  0  0  0
 16 19  1  0  0  0  0
 19 20  3  0  0  0  0
  1 21  1  0  0  0  0
 21 22  2  0  0  0  0
 22 23  1  0  0  0  0
 23 24  1  0  0  0  0
 24 25  2  0  0  0  0
 25 26  1  0  0  0  0
 26 27  2  0  0  0  0
 27 28  1  0  0  0  0
 27 29  1  0  0  0  0
 29 30  2  0  0  0  0
 23 31  1  0  0  0  0
 31 32  2  0  0  0  0
 32 33  1  0  0  0  0
 33 34  2  0  0  0  0
 34 35  1  0  0  0  0
 34 36  1  0  0  0  0
 36 37  2  0  0  0  0
 22 38  1  0  0  0  0
 38 39  1  0  0  0  0
 39 40  1  0  0  0  0
 40 41  2  0  0  0  0
 41 42  1  0  0  0  0
 42 43  1  0  0  0  0
 43 44  2  0  0  0  0
 44 45  1  0  0  0  0
 45 46  2  0  0  0  0
 46 47  1  0  0  0  0
 46 48  1  0  0  0  0
 48 49  2  0  0  0  0
 42 50  1  0  0  0  0
 50 51  2  0  0  0  0
 51 52  1  0  0  0  0
 52 53  2  0  0  0  0
 53 54  1  0  0  0  0
 53 55  1  0  0  0  0
 55 56  2  0  0  0  0
 41 57  1  0  0  0  0
 57 58  1  0  0  0  0
 40 59  1  0  0  0  0
 59 60  2  0  0  0  0
 60 61  1  0  0  0  0
 61 62  2  0  0  0  0
 62 63  1  0  0  0  0
 63 64  2  0  0  0  0
 64 65  1  0  0  0  0
 65 66  2  0  0  0  0
 66 67  1  0  0  0  0
 67 68  1  0  0  0  0
 60 69  1  0  0  0  0
 69 70  1  0  0  0  0
 70 71  1  0  0  0  0
 71 72  1  0  0  0  0
 72 73  1  0  0  0  0
 73 74  1  0  0  0  0
 74 75  2  0  0  0  0
 75 76  1  0  0  0  0
 76 77  1  0  0  0  0
 74 78  1  0  0  0  0
 78 79  1  0  0  0  0
 79 80  1  0  0  0  0
 80 81  1  0  0  0  0
 81 82  1  0  0  0  0
 82 83  1  0  0  0  0
 83 84  2  0  0  0  0
 84 85  1  0  0  0  0
 85 86  1  0  0  0  0
 84 87  1  0  0  0  0
 87 88  2  0  0  0  0
 88 89  1  0  0  0  0
 89 90  2  0  0  0  0
 82 91  2  0  0  0  0
 91 92  1  0  0  0  0
 92 93  1  0  0  0  0
 93 94  1  0  0  0  0
 94 95  1  0  0  0  0
 95 96  1  0  0  0  0
 96 97  1  0  0  0  0
 97 98  1  0  0  0  0
 98 99  1  0  0  0  0
 99100  1  0  0  0  0
100101  1  0  0  0  0
 98102  1  0  0  0  0
102103  1  0  0  0  0
 95104  1  0  0  0  0
104105  1  0  0  0  0
 91106  1  0  0  0  0
106107  2  0  0  0  0
107108  1  0  0  0  0
108109  1  0  0  0  0
109110  2  0  0  0  0
110111  1  0  0  0  0
111112  2  0  0  0  0
112113  1  0  0  0  0
112114  1  0  0  0  0
114115  2  0  0  0  0
108116  1  0  0  0  0
116117  2  0  0  0  0
117118  1  0  0  0  0
118119  2  0  0  0  0
119120  1  0  0  0  0
119121  1  0  0  0  0
121122  2  0  0  0  0
107123  1  0  0  0  0
123124  1  0  0  0  0
124125  1  0  0  0  0
125126  2  0  0  0  0
126127  1  0  0  0  0
127128  1  0  0  0  0
128129  2  0  0  0  0
129130  1  0  0  0  0
130131  2  0  0  0  0
131132  1  0  0  0  0
131133  1  0  0  0  0
133134  2  0  0  0  0
127135  1  0  0  0  0
135136  2  0  0  0  0
136137  1  0  0  0  0
137138  2  0  0  0  0
138139  1  0  0  0  0
138140  1  0  0  0  0
140141  2  0  0  0  0
126142  1  0  0  0  0
142143  1  0  0  0  0
125144  1  0  0  0  0
144145  2  0  0  0  0
145146  1  0  0  0  0
146147  2  0  0  0  0
146148  1  0  0  0  0
148149  2  0  0  0  0
149150  1  0  0  0  0
150151  2  0  0  0  0
151152  1  0  0  0  0
151153  1  0  0  0  0
153154  2  0  0  0  0
154155  1  0  0  0  0
155156  2  0  0  0  0
156157  1  0  0  0  0
157158  3  0  0  0  0
156159  1  0  0  0  0
159160  3  0  0  0  0
 15  2  1  0  0  0  0
 58 21  1  0  0  0  0
101 59  1  0  0  0  0
143106  1  0  0  0  0
155145  1  0  0  0  0
 14  5  1  0  0  0  0
 30 24  1  0  0  0  0
 37 31  1  0  0  0  0
 57 38  2  0  0  0  0
 66 61  1  0  0  0  0
100 69  2  0  0  0  0
115109  1  0  0  0  0
122116  1  0  0  0  0
142123  2  0  0  0  0
154148  1  0  0  0  0
 49 43  1  0  0  0  0
 56 50  1  0  0  0  0
 99 71  2  0  0  0  0
134128  1  0  0  0  0
141135  1  0  0  0  0
 97 72  2  0  0  0  0
 77 73  2  0  0  0  0
 96 78  2  0  0  0  0
 94 79  2  0  0  0  0
 93 81  2  0  0  0  0
 90 83  1  0  0  0  0
  1161  1  0  0  0  0
 25162  1  0  0  0  0
 26163  1  0  0  0  0
 28164  1  0  0  0  0
 28165  1  0  0  0  0
 28166  1  0  0  0  0
 29167  1  0  0  0  0
 30168  1  0  0  0  0
 32169  1  0  0  0  0
 33170  1  0  0  0  0
 35171  1  0  0  0  0
 35172  1  0  0  0  0
 35173  1  0  0  0  0
 36174  1  0  0  0  0
 37175  1  0  0  0  0
 44176  1  0  0  0  0
 45177  1  0  0  0  0
 47178  1  0  0  0  0
 47179  1  0  0  0  0
 47180  1  0  0  0  0
 48181  1  0  0  0  0
 49182  1  0  0  0  0
 51183  1  0  0  0  0
 52184  1  0  0  0  0
 54185  1  0  0  0  0
 54186  1  0  0  0  0
 54187  1  0  0  0  0
 55188  1  0  0  0  0
 56189  1  0  0  0  0
 62190  1  0  0  0  0
 63191  1  0  0  0  0
 64192  1  0  0  0  0
 65193  1  0  0  0  0
 67194  1  0  0  0  0
 67195  1  0  0  0  0
 68196  1  0  0  0  0
 68197  1  0  0  0  0
 68198  1  0  0  0  0
 85199  1  0  0  0  0
 85200  1  0  0  0  0
 86201  1  0  0  0  0
 86202  1  0  0  0  0
 86203  1  0  0  0  0
 87204  1  0  0  0  0
 88205  1  0  0  0  0
 89206  1  0  0  0  0
 90207  1  0  0  0  0
102208  1  0  0  0  0
102209  1  0  0  0  0
103210  1  0  0  0  0
103211  1  0  0  0  0
103212  1  0  0  0  0
104213  1  0  0  0  0
104214  1  0  0  0  0
105215  1  0  0  0  0
105216  1  0  0  0  0
105217  1  0  0  0  0
110218  1  0  0  0  0
111219  1  0  0  0  0
113220  1  0  0  0  0
113221  1  0  0  0  0
113222  1  0  0  0  0
114223  1  0  0  0  0
115224  1  0  0  0  0
117225  1  0  0  0  0
118226  1  0  0  0  0
120227  1  0  0  0  0
120228  1  0  0  0  0
120229  1  0  0  0  0
121230  1  0  0  0  0
122231  1  0  0  0  0
129232  1  0  0  0  0
130233  1  0  0  0  0
132234  1  0  0  0  0
132235  1  0  0  0  0
132236  1  0  0  0  0
133237  1  0  0  0  0
134238  1  0  0  0  0
136239  1  0  0  0  0
137240  1  0  0  0  0
139241  1  0  0  0  0
139242  1  0  0  0  0
139243  1  0  0  0  0
140244  1  0  0  0  0
141245  1  0  0  0  0
144246  1  0  0  0  0
149247  1  0  0  0  0
150248  1  0  0  0  0
153249  1  0  0  0  0
M  END
