255

C        -10.21480       -4.45970        7.60850
C        -11.32670       -4.62000        6.79690
C        -11.25680       -5.12620        5.42880
O        -10.26680       -5.48510        4.81990
C        -12.66750       -5.27080        4.98750
C        -13.15100       -5.72430        3.77670
Cl       -12.09980       -6.06270        2.47300
C        -14.53540       -5.88700        3.63100
Cl       -15.18390       -6.39910        2.13220
C        -15.37840       -5.66660        4.71650
Cl       -17.05610       -5.96550        4.54920
C        -14.87840       -5.21140        5.94820
Cl       -15.95660       -5.12120        7.27970
C        -13.52190       -4.94300        6.05820
C        -12.70150       -4.40580        7.14480
C        -13.11040       -3.58500        8.17010
C        -12.21410       -3.03540        9.11100
N        -11.54650       -2.53810        9.90240
C        -14.37540       -2.98900        8.31850
N        -15.32310       -2.35610        8.46770
C         -8.91050       -4.24430        7.18120
C         -8.38440       -3.74910        5.96110
N         -9.07890       -3.17970        4.93850
C         -8.50080       -3.16450        3.64690
C         -8.00500       -4.33780        3.08680
C         -7.44200       -4.31060        1.82770
C         -7.36010       -3.12570        1.10260
C         -6.72940       -3.11610       -0.25540
C         -7.87270       -1.96520        1.66760
C         -8.44090       -1.97730        2.92750
C        -10.31720       -2.54450        5.09840
C        -11.28000       -2.65600        4.09650
C        -12.50830       -2.03840        4.23810
C        -12.80890       -1.28820        5.36700
C        -14.13690       -0.62060        5.52820
C        -11.83040       -1.16060        6.35160
C        -10.60390       -1.77800        6.22780
C         -6.97440       -3.81810        5.97400
S         -5.73940       -3.35340        4.85190
C         -4.49030       -3.79120        6.00140
C         -5.00670       -4.25120        7.20010
N         -4.23540       -4.54840        8.33780
C         -4.38680       -5.78220        8.97100
C         -5.10800       -6.82450        8.39250
C         -5.18500       -8.05350        9.01610
C         -4.53800       -8.29550       10.21980
C         -4.64050       -9.63180       10.89130
C         -3.80210       -7.26060       10.78100
C         -3.72180       -6.02550       10.17200
C         -3.96790       -3.39780        9.14170
C         -2.91930       -2.54540        8.83220
C         -2.69190       -1.41780        9.60220
C         -3.49780       -1.11850       10.69120
C         -3.24590        0.09110       11.53810
C         -4.54880       -1.97920       10.99230
C         -4.78770       -3.10240       10.22730
C         -6.41860       -4.26230        7.16770
S         -7.62550       -4.62480        8.34240
C         -3.12900       -3.58400        5.62860
C         -2.00170       -4.28930        6.00180
C         -1.98990       -5.56270        6.72390
C         -2.75450       -6.62900        6.26330
C         -2.66660       -7.85680        6.89040
C         -1.83690       -8.02360        7.98400
C         -1.08000       -6.96350        8.46540
C         -0.15150       -7.14950        9.62950
C          1.23720       -7.56680        9.14140
C         -1.14980       -5.74130        7.81580
C         -0.83370       -3.68580        5.49400
S          0.85770       -4.11010        5.60040
C          1.23620       -2.76450        4.57710
C          2.35710       -2.15110        3.98640
C          3.74420       -2.39040        4.09850
C          4.66000       -1.53630        3.39030
N          5.92450       -1.85220        3.62190
S          5.96380       -3.11060        4.63960
N          4.36670       -3.30680        4.82290
C          4.14690       -0.56670        2.50010
C          4.76730        0.22650        1.51920
S          6.35330        0.53910        0.90000
C          5.64240        1.43140       -0.41970
C          6.18280        2.02510       -1.58160
C          7.60070        2.19890       -1.89410
C          8.54800        1.23550       -1.56100
C          9.87270        1.42450       -1.90700
C         10.27190        2.57450       -2.56610
C          9.34920        3.56870       -2.86670
C          9.75520        4.83780       -3.56410
C          9.26500        4.87250       -5.01340
C          8.02100        3.36810       -2.52350
C          5.18260        2.48640       -2.41130
S          3.58300        2.31950       -1.71430
C          4.25210        1.50100       -0.34810
C          3.75010        0.82390        0.77170
N          2.52810        0.47010        1.27760
C          2.74670       -0.37730        2.34760
C          1.86060       -1.07620        3.20200
N          0.48700       -0.99550        3.36280
C          0.11460       -2.03110        4.18390
C         -1.07070       -2.55320        4.71250
S         -2.75780       -2.19830        4.60880
C         -0.33330        0.19590        3.31350
C         -0.50640        0.80830        4.70360
C          1.33090        0.67480        0.49420
C          0.86600        2.13060        0.51860
C          5.35810        2.82240       -3.79660
C          5.96650        1.99830       -4.72730
N          6.38010        0.69720       -4.49720
C          7.53310        0.21950       -5.13840
C          8.63360        1.04990       -5.32290
C          9.76060        0.57840       -5.96650
C          9.82580       -0.72670       -6.43530
C         11.04040       -1.23160       -7.15240
C          8.72380       -1.55230       -6.23960
C          7.58880       -1.09170       -5.60470
C          5.68010       -0.13730       -3.61380
C          6.37150       -1.00100       -2.76530
C          5.68920       -1.77110       -1.84760
C          4.30170       -1.72190       -1.75530
C          3.58240       -2.54730       -0.73200
C          3.61680       -0.90410       -2.64230
C          4.28970       -0.12020       -3.56130
C          6.06940        2.65560       -5.98010
S          6.78040        2.24300       -7.49780
C          6.27010        3.78030       -8.17810
C          5.63480        4.59060       -7.25040
N          5.24710        5.90590       -7.44750
C          4.08830        6.37750       -6.81460
C          2.98020        5.55070       -6.64700
C          1.84930        6.02120       -6.00880
C          1.78390        7.32350       -5.53290
C          0.56410        7.82630       -4.82340
C          2.89070        8.14640       -5.71240
C          4.03010        7.68540       -6.33850
C          5.97150        6.74400       -8.31000
C          7.36150        6.67350       -8.36560
C          8.05820        7.41890       -9.29490
C          7.39890        8.26330      -10.18080
C          8.16210        9.03810      -11.21050
C          6.01840        8.37650      -10.07500
C          5.30910        7.63120       -9.15420
C          5.51270        3.92330       -6.00350
S          4.83030        4.35420       -4.47360
C          6.67160        4.13300       -9.52290
C          7.97510        3.91030       -9.93380
C          8.45930        4.46170      -11.11300
C          7.64580        5.25380      -11.90150
C          8.20490        5.94430      -13.06840
O          9.37970        5.87830      -13.37520
N          7.32300        6.71490      -13.81070
C          7.87150        7.42100      -14.96400
C          7.81570        6.55390      -16.21500
C          5.96430        6.84440      -13.58240
O          5.27510        7.53590      -14.30650
C          5.42240        6.12850      -12.41660
C          4.07170        6.19140      -12.14350
C          3.54730        5.51680      -11.04070
C          4.37670        4.83950      -10.18310
C          5.76470        4.78640      -10.40800
C          6.28170        5.39050      -11.57900
H        -10.34500       -4.56230        8.67880
H         -8.09690       -5.26090        3.63690
H         -7.06490       -5.22510        1.39390
H         -5.66750       -3.34730       -0.17650
H         -7.18630       -3.87080       -0.89350
H         -6.83740       -2.14450       -0.73020
H         -7.82520       -1.03620        1.11830
H         -8.83500       -1.06920        3.36000
H        -11.05880       -3.23330        3.21160
H        -13.24560       -2.14760        3.45630
H        -14.00630        0.44950        5.68190
H        -14.75950       -0.77570        4.65120
H        -14.65940       -1.01420        6.39960
H        -12.03640       -0.56610        7.22970
H         -9.86150       -1.65940        7.00280
H         -5.60100       -6.68460        7.44270
H         -5.75730       -8.84360        8.55100
H         -5.58680       -9.71320       11.42740
H         -3.83370       -9.76940       11.60720
H         -4.60310      -10.43600       10.15900
H         -3.27650       -7.42230       11.71160
H         -3.13230       -5.24150       10.62260
H         -2.27700       -2.76750        7.99630
H         -1.86830       -0.76430        9.35150
H         -2.88000       -0.20850       12.52010
H         -2.50550        0.74180       11.07980
H         -4.16630        0.65350       11.68520
H         -5.19160       -1.76040       11.83260
H         -5.60880       -3.76310       10.46590
H         -3.39720       -6.49450        5.40530
H         -3.24870       -8.68910        6.52380
H         -1.78060       -8.98430        8.47420
H         -0.54890       -7.91660       10.29660
H         -0.07160       -6.21620       10.18990
H          1.17860       -8.50480        8.59370
H          1.91390       -7.69730        9.98260
H          1.64780       -6.80930        8.47760
H         -0.55740       -4.91130        8.17330
H          8.24390        0.34190       -1.03910
H         10.60230        0.66780       -1.65900
H         11.31000        2.70810       -2.83460
H         10.84230        4.93490       -3.54950
H          9.33110        5.69160       -3.02960
H          9.54130        5.81540       -5.48080
H          9.70800        4.06120       -5.58790
H          8.18170        4.77320       -5.05380
H          7.30100        4.14660       -2.73070
H         -1.31190       -0.07250        2.90240
H          0.14270        0.92930        2.67230
H         -1.03240        0.12790        5.36730
H         -1.08100        1.72740        4.62750
H          0.46560        1.03680        5.13610
H          1.56550        0.40750       -0.54290
H          0.55430       -0.00450        0.84750
H         -0.08520        2.22070        0.00160
H          1.59240        2.76180        0.01430
H          0.74940        2.50100        1.53480
H          8.60410        2.05770       -4.94120
H         10.60860        1.23560       -6.09670
H         10.89280       -1.16120       -8.23070
H         11.91780       -0.64440       -6.89220
H         11.22850       -2.27490       -6.90860
H          8.75340       -2.57140       -6.59750
H          6.73850       -1.74330       -5.46590
H          7.44810       -1.04690       -2.82550
H          6.24130       -2.41250       -1.17620
H          2.53000       -2.27750       -0.67800
H          4.02940       -2.41120        0.25190
H          3.65190       -3.60570       -0.98320
H          2.53610       -0.87120       -2.61640
H          3.73690        0.51580       -4.23770
H          3.00340        4.53700       -7.02050
H          1.00020        5.36420       -5.88610
H         -0.31480        7.25160       -5.10560
H          0.38860        8.87540       -5.05090
H          0.69690        7.73470       -3.74480
H          2.86180        9.16300       -5.34760
H          4.88540        8.33290       -6.46270
H          7.89110        6.02060       -7.68750
H          9.13450        7.33780       -9.34020
H          8.59840        9.93260      -10.76470
H          7.50850        9.34860      -12.02250
H          8.97380        8.43860      -11.61820
H          5.48480        9.04000      -10.73980
H          4.23360        7.71310       -9.10410
H          8.64090        3.35580       -9.28840
H          9.49070        4.32750      -11.40210
H          8.90540        7.67850      -14.72740
H          7.27900        8.32690      -15.10400
H          8.39840        5.64750      -16.06800
H          6.78580        6.28470      -16.43790
H          8.22530        7.10090      -17.05950
H          3.43360        6.75740      -12.80530
H          2.48310        5.53810      -10.85920
H          3.96510        4.31980       -9.33150
