225

C         -7.58550       -5.41060        7.74650
C         -7.56370       -6.33120        8.77630
C         -6.40020       -6.75540        9.54300
O         -5.27060       -6.30360        9.51660
C         -6.85500       -7.90400       10.36400
C         -6.10780       -8.71890       11.19300
Cl        -4.47310       -8.37410       11.54000
C         -6.72490       -9.85220       11.74090
Cl        -5.85250      -10.87220       12.80150
C         -8.03220      -10.17250       11.38320
Cl        -8.73040      -11.61800       11.97630
C         -8.78330       -9.34220       10.53420
Cl       -10.31270       -9.90450        9.99800
C         -8.21320       -8.15820       10.08630
C         -8.71410       -7.06850        9.24680
C        -10.02660       -6.68800        9.10050
C        -10.46310       -5.59450        8.32430
N        -10.91330       -4.72370        7.72370
C        -11.12400       -7.18320        9.83550
N        -12.06550       -7.43670       10.44190
C         -6.57580       -4.62010        7.21420
C         -6.77430       -3.72320        6.12670
N         -7.91220       -3.60530        5.37820
C         -8.71250       -4.70640        5.02370
C         -8.13300       -5.93810        4.72840
C         -8.93130       -7.01400        4.39490
C        -10.31410       -6.88860        4.32890
C        -11.18620       -8.05650        3.98680
C        -10.87900       -5.64590        4.59440
C        -10.09560       -4.56390        4.94110
C         -8.24590       -2.33540        4.86450
C         -8.65800       -2.18810        3.54520
C         -8.97500       -0.93490        3.05740
C         -8.88720        0.19270        3.86330
C         -9.22110        1.55420        3.33770
C         -8.48420        0.03240        5.18540
C         -8.17030       -1.21330        5.68650
C         -5.63570       -2.92680        5.92600
S         -5.21100       -1.70790        4.76560
C         -3.61730       -1.56100        5.49110
C         -3.41120       -2.45870        6.53140
N         -2.22530       -2.63320        7.21080
C         -2.25370       -3.12450        8.52900
C         -3.18490       -2.64270        9.44300
C         -3.24590       -3.17520       10.71560
C         -2.38320       -4.18860       11.11080
C         -2.49420       -4.80830       12.46880
C         -1.43360       -4.63890       10.20110
C         -1.36470       -4.11910        8.92490
C         -0.99290       -2.44090        6.57060
C         -0.80080       -2.83750        5.25040
C          0.39830       -2.58060        4.61600
C          1.42860       -1.91500        5.26750
C          2.69260       -1.55110        4.55080
C          1.24880       -1.57650        6.60400
C          0.06280       -1.84580        7.25590
C         -4.58010       -3.21780        6.78170
S         -4.94400       -4.49290        7.88450
C         -2.68100       -0.59250        5.00200
C         -1.93870        0.29600        5.75530
C         -2.19800        0.58110        7.16500
C         -1.16150        0.92000        8.03050
C         -1.42850        1.17800        9.36180
C         -2.72390        1.11530        9.84320
C         -3.77620        0.81250        8.98780
C         -5.19550        0.80860        9.48120
C         -5.81590        2.19880        9.33240
C         -3.50180        0.55550        7.65450
C         -0.97510        0.95180        4.95770
S          0.26770        2.12360        5.31590
C          0.70590        2.14860        3.64150
C          1.65930        2.74750        2.79650
C          2.79640        3.55060        3.04050
C          3.69590        3.84550        1.95390
N          4.75430        4.53420        2.35050
S          4.63110        4.79970        3.94250
N          3.22410        4.04050        4.19330
C          3.35020        3.44400        0.64390
C          3.94860        3.63630       -0.61590
S          5.40900        4.27670       -1.28990
C          4.84500        3.82730       -2.88160
C          5.44960        3.88070       -4.15230
C          6.81600        4.37860       -4.33890
C          7.17790        5.61420       -3.81150
C          8.48240        6.05680       -3.92840
C          9.43260        5.26980       -4.55450
C          9.08970        4.02990       -5.08000
C         10.13040        3.14510       -5.70150
C         10.75330        2.23400       -4.64200
C          7.77870        3.59460       -4.96620
C          4.62510        3.33040       -5.11860
S          3.10750        2.73920       -4.45550
C          3.58310        3.22830       -2.87040
C          3.06930        3.12120       -1.57420
N          1.94960        2.60810       -0.96380
C          2.13230        2.75990        0.39950
C          1.37750        2.27620        1.48900
N          0.32650        1.37770        1.53880
C         -0.07520        1.30220        2.84990
C         -1.02740        0.60690        3.60750
S         -2.25970       -0.56160        3.29750
C          0.10000        0.26120        0.64460
C          0.81170       -0.99260        1.14790
C          0.67460        2.59970       -1.65460
C          0.34250        3.97690       -2.22840
C          4.84300        3.19810       -6.51960
C          5.72140        3.87380       -7.31940
C          5.70700        3.44630       -8.66600
C          6.47190        3.94750       -9.73520
C          7.43560        5.01770       -9.54500
S          8.66240        4.92210       -8.31480
C          9.34600        6.44440       -8.76390
C         10.48270        7.03840       -8.00800
C          9.97400        8.02890       -6.95780
C          8.65060        6.98690       -9.80290
Cl         9.03190        8.49860      -10.51690
C          7.57130        6.18060      -10.25290
Cl         6.50960        6.68540      -11.49690
C          6.28550        3.35690      -10.97880
C          5.33860        2.31860      -11.19950
C          4.51850        1.85260      -10.13920
C          3.49240        0.85570      -10.33950
C          3.09300       -0.13990       -9.48770
C          2.02960       -0.91080       -9.99050
C          1.59210       -0.50250      -11.21500
C          0.52080       -1.09120      -12.06510
C          1.11020       -1.80480      -13.28400
S          2.51150        0.84820      -11.78160
C          4.75530        2.41710       -8.89430
S          3.91610        2.01380       -7.42060
C          5.41780        1.83680      -12.51040
C          6.36990        2.46940      -13.29460
S          7.21250        3.71810      -12.40290
C          6.56910        2.10120      -14.63720
C          7.45270        2.57240      -15.57050
C          8.47950        3.59920      -15.35210
O          8.65470        4.27940      -14.36390
C          9.29940        3.61460      -16.58550
C         10.45500        4.33140      -16.84030
Cl        11.03760        5.50010      -15.74280
C         11.14920        4.06500      -18.02940
Cl        12.56270        4.94840      -18.40740
C         10.71480        3.04890      -18.87880
Cl        11.63750        2.67000      -20.26820
C          9.54520        2.31940      -18.60860
Cl         9.18470        0.96780      -19.60060
C          8.79250        2.66020      -17.49130
C          7.53760        2.13840      -16.95430
C          6.53230        1.54010      -17.66910
C          6.44400        1.48170      -19.07740
N          6.22160        1.47820      -20.20320
C          5.33770        1.03170      -17.11260
N          4.35170        0.57000      -16.74660
H         -8.54190       -5.29500        7.25450
H         -7.05930       -6.04840        4.77170
H         -8.46920       -7.96570        4.17570
H        -11.82290       -7.82110        3.13540
H        -11.83560       -8.29830        4.82780
H        -10.59030       -8.93320        3.74620
H        -11.95090       -5.52780        4.54630
H        -10.54930       -3.61180        5.16560
H         -8.72130       -3.05620        2.90610
H         -9.28860       -0.83310        2.02880
H         -9.47420        1.51410        2.28170
H         -8.37590        2.22850        3.46900
H        -10.06680        1.97320        3.88190
H         -8.42310        0.89670        5.83060
H         -7.87250       -1.32990        6.71850
H         -3.85800       -1.85170        9.14960
H         -3.98270       -2.79990       11.41080
H         -3.14310       -5.68280       12.41470
H         -2.92620       -4.11160       13.18320
H         -1.52160       -5.13310       12.83160
H         -0.74880       -5.42270       10.49100
H         -0.63340       -4.49030        8.22160
H         -1.59340       -3.34940        4.72390
H          0.53490       -2.91350        3.59700
H          2.83190       -2.16760        3.66580
H          3.55530       -1.66850        5.20280
H          2.65290       -0.50630        4.23760
H          2.04850       -1.08450        7.13840
H         -0.06700       -1.58170        8.29440
H         -0.14850        0.96450        7.66280
H         -0.61780        1.42830       10.03010
H         -2.92270        1.30970       10.88710
H         -5.22140        0.51210       10.53180
H         -5.78640        0.08960        8.90830
H         -6.84280        2.19830        9.69040
H         -5.81010        2.50460        8.28830
H         -5.24820        2.92890        9.90470
H         -4.31960        0.34560        6.97990
H          6.43610        6.22600       -3.32060
H          8.75960        7.01800       -3.52090
H         10.45270        5.61710       -4.63250
H         10.91160        3.75590       -6.15700
H          9.67610        2.53630       -6.48500
H         11.22180        2.82760       -3.86020
H         11.50710        1.59030       -5.08900
H          9.98950        1.60960       -4.18410
H          7.50070        2.62740       -5.35940
H         -0.97810        0.08090        0.58900
H          0.48060        0.50040       -0.34500
H          0.62500       -1.81830        0.46670
H          0.44910       -1.26230        2.13500
H          1.88420       -0.81780        1.20330
H          0.71300        1.86250       -2.46380
H         -0.10680        2.32970       -0.94560
H          1.05560        4.26460       -2.99540
H         -0.64920        3.95430       -2.67180
H          0.35600        4.72530       -1.43890
H          6.35010        4.66320       -6.95350
H         11.14190        7.55670       -8.70750
H         11.04550        6.24160       -7.51990
H         10.80970        8.44860       -6.40410
H          9.43320        8.83960       -7.43860
H          9.30600        7.52790       -6.26100
H          3.57410       -0.34290       -8.54820
H          1.59900       -1.74110       -9.45930
H         -0.05490       -1.79870      -11.46460
H         -0.15390       -0.30200      -12.40630
H          0.31590       -2.23830      -13.88570
H          1.78180       -2.60040      -12.96910
H          1.66830       -1.10350      -13.90010
H          4.81800        1.03300      -12.89700
H          5.91590        1.29620      -14.95170
