225

C         -7.99790        0.78930        9.58270
C         -8.99920        1.71090        9.85490
C        -10.12450        1.93480        8.95570
O        -10.33520        1.40670        7.87990
C        -11.03160        2.85170        9.68950
C        -12.18560        3.44970        9.22480
Cl       -12.81550        3.08170        7.67990
C        -12.81410        4.40490       10.03390
Cl       -14.25230        5.16600        9.50410
C        -12.23850        4.76550       11.24790
Cl       -12.97680        5.99390       12.18730
C        -11.05600        4.16220       11.70860
Cl       -10.36100        4.78160       13.14860
C        -10.47630        3.15260       10.95060
C         -9.24180        2.37870       11.10130
C         -8.38710        2.31050       12.18030
C         -8.66900        2.58000       13.53230
N         -8.80420        2.64230       14.67180
C         -7.05770        1.85110       12.06400
N         -5.93810        1.59250       12.03780
C         -7.54880        0.42650        8.32010
C         -7.64750        1.07200        7.06070
N         -8.08880        2.33560        6.81390
C         -8.58000        2.64490        5.52320
C         -8.12160        3.77490        4.85750
C         -8.60710        4.07480        3.59880
C         -9.55200        3.26330        2.98400
C        -10.06820        3.57470        1.61370
C        -10.01210        2.14220        3.66840
C         -9.53670        1.83040        4.92520
C         -8.06470        3.36470        7.76300
C         -9.10010        4.29800        7.79650
C         -9.10930        5.29330        8.75480
C         -8.09590        5.38930        9.69940
C         -8.11770        6.44740       10.75610
C         -7.04170        4.48170        9.62950
C         -7.01890        3.48460        8.67740
C         -7.10680        0.24950        6.04770
S         -6.86690        0.46180        4.34410
C         -6.05170       -1.08740        4.24900
C         -5.91290       -1.70470        5.48650
N         -5.21100       -2.87040        5.72790
C         -5.66440       -3.74990        6.72430
C         -4.75410       -4.43080        7.52870
C         -5.20420       -5.28970        8.50980
C         -6.56370       -5.48900        8.72460
C         -7.03790       -6.39970        9.81500
C         -7.46350       -4.80440        7.91900
C         -7.02660       -3.94720        6.92830
C         -4.05630       -3.17350        4.99070
C         -3.79110       -4.48450        4.60030
C         -2.70780       -4.76420        3.79360
C         -1.85280       -3.75700        3.35860
C         -0.71100       -4.07460        2.44230
C         -2.08510       -2.46420        3.80690
C         -3.16540       -2.17090        4.61760
C         -6.54180       -0.93800        6.49520
S         -6.66340       -1.10660        8.20560
C         -5.52880       -1.57410        3.00690
C         -5.63810       -2.85530        2.50110
C         -6.61850       -3.82570        2.98210
C         -6.35630       -5.19280        2.94650
C         -7.28880       -6.08960        3.43240
C         -8.49350       -5.64210        3.94350
C         -8.79060       -4.28450        3.95340
C        -10.12430       -3.79450        4.44130
C        -11.15030       -3.82170        3.30710
C         -7.85120       -3.39100        3.46570
C         -4.71960       -3.05890        1.44660
S         -4.27260       -4.46150        0.50700
C         -3.04400       -3.52650       -0.27510
C         -1.96480       -3.70660       -1.15400
C         -1.46020       -4.88150       -1.75020
C         -0.23900       -4.80750       -2.49540
N          0.14990       -5.98820       -2.95120
S         -0.93270       -7.09840       -2.48390
N         -1.93660       -6.11500       -1.67850
C          0.36680       -3.54720       -2.68360
C          1.49540       -3.18490       -3.43330
S          2.72660       -3.93350       -4.39120
C          3.39330       -2.35230       -4.71730
C          4.50090       -1.93220       -5.47690
C          5.32160       -2.85890       -6.26170
C          5.53000       -2.64230       -7.62110
C          6.25440       -3.55840       -8.35860
C          6.77960       -4.68620       -7.75100
C          6.58580       -4.91360       -6.39510
C          7.11040       -6.15670       -5.73780
C          6.03190       -7.24180       -5.72520
C          5.84570       -3.99740       -5.66180
C          4.64240       -0.55650       -5.43350
S          3.37930        0.22220       -4.49420
C          2.67950       -1.31210       -4.11570
C          1.59630       -1.79390       -3.36980
N          0.58290       -1.28820       -2.60080
C         -0.18170       -2.34770       -2.14280
C         -1.31470       -2.44450       -1.28640
N         -1.97460       -1.54270       -0.46880
C         -3.01200       -2.19550        0.13700
C         -3.96470       -1.92990        1.12930
S         -4.39310       -0.57870        2.11320
C         -1.65120       -0.20540       -0.03360
C         -2.58740        0.83630       -0.64640
C          0.37210        0.14000       -2.57350
C          1.35550        0.84850       -1.64080
C          5.71170        0.23240       -5.94450
C          6.98390       -0.18110       -6.22280
C          7.84050        0.85280       -6.66030
C          9.19570        0.74900       -7.03540
C          9.87610       -0.52590       -7.12980
C         11.18720       -0.81190       -6.86860
C         11.55920       -2.15040       -7.12710
C         12.92830       -2.69680       -6.87770
C         13.08270       -3.13140       -5.41950
C         10.50010       -2.87410       -7.59370
Cl        10.49420       -4.52910       -8.01850
S          9.04840       -1.94170       -7.73110
C          9.84670        1.94100       -7.34690
C          9.18420        3.19900       -7.36950
C          7.80410        3.29440       -7.05550
C          7.06840        4.53570       -7.15360
C          6.05290        4.98080       -6.35260
C          5.48090        6.20680       -6.75690
C          4.39330        6.91270       -6.01240
C          4.98100        7.84670       -4.95320
C          6.07930        6.68160       -7.88950
S          7.34300        5.64990       -8.46930
Cl         5.69650        8.12590       -8.72100
C          7.18480        2.11350       -6.67450
S          5.51430        1.95380       -6.19880
C         10.06720        4.23480       -7.69960
C         11.36340        3.81880       -7.95360
S         11.52380        2.08420       -7.77990
C         12.38770        4.73230       -8.26520
C         13.70740        4.52320       -8.55980
C         14.38190        3.22390       -8.68880
O         13.94810        2.12600       -8.41170
C         15.71510        3.52110       -9.26150
C         16.68780        2.63250       -9.68470
Cl        16.52300        0.95200       -9.44590
C         17.82040        3.14910      -10.33040
Cl        19.06580        2.09520      -10.84090
C         17.91120        4.51470      -10.59640
Cl        19.25290        5.10760      -11.47520
C         16.91590        5.41010      -10.17070
Cl        17.01080        7.04110      -10.69180
C         15.84780        4.91400       -9.43360
C         14.69170        5.56180       -8.81920
C         14.63040        6.84950       -8.35630
C         13.49820        7.42580       -7.73760
N         12.62390        7.97570       -7.23600
C         15.72080        7.74130       -8.25340
N         16.55260        8.49920       -8.02810
H         -7.53470        0.26820       10.41180
H         -7.38570        4.41080        5.32770
H         -8.24190        4.95290        3.08660
H         -9.69020        2.84480        0.89790
H        -11.15540        3.52630        1.59380
H         -9.75460        4.56460        1.29300
H        -10.76040        1.51170        3.21100
H         -9.91700        0.98150        5.47140
H         -9.90240        4.22650        7.07790
H         -9.93000        5.99530        8.77840
H         -7.80480        6.03880       11.71480
H         -7.42760        7.25070       10.49730
H         -9.11280        6.87180       10.86090
H         -6.22990        4.55150       10.33850
H         -6.19140        2.79200        8.64530
H         -3.69510       -4.27840        7.38140
H         -4.48670       -5.80920        9.12830
H         -6.38940       -7.26860        9.90380
H         -8.05510       -6.73490        9.62790
H         -7.02450       -5.87350       10.77010
H         -8.52480       -4.94570        8.06310
H         -7.74060       -3.43660        6.30080
H         -4.45600       -5.27360        4.91680
H         -2.53130       -5.78120        3.47500
H          0.06730       -4.61580        2.98020
H         -1.04560       -4.70480        1.61990
H         -0.27490       -3.16700        2.03110
H         -1.41410       -1.66800        3.51540
H         -3.32830       -1.15750        4.95540
H         -5.41750       -5.54990        2.55450
H         -7.07160       -7.14730        3.41390
H         -9.21280       -6.34920        4.33010
H        -10.47400       -4.42890        5.25840
H        -10.03230       -2.77270        4.81680
H        -12.11500       -3.46340        3.65840
H        -11.27120       -4.83480        2.93030
H        -10.82160       -3.18880        2.48560
H         -8.08710       -2.33640        3.44920
H          5.11470       -1.76440       -8.09300
H          6.41070       -3.39240       -9.41400
H          7.34750       -5.39570       -8.33470
H          7.40930       -5.93500       -4.71110
H          7.98610       -6.52080       -6.27840
H          6.40510       -8.14370       -5.24550
H          5.15380       -6.89630       -5.18420
H          5.73180       -7.48730       -6.74150
H          5.68470       -4.16280       -4.60600
H         -0.60980        0.00760       -0.25430
H         -1.77410       -0.17970        1.05520
H         -2.61480        0.76070       -1.73150
H         -2.25930        1.83450       -0.37050
H         -3.59830        0.69190       -0.27480
H          0.53140        0.51410       -3.59110
H         -0.66010        0.34690       -2.30530
H          1.08830        1.89780       -1.55310
H          2.36360        0.78330       -2.04050
H          1.36120        0.40110       -0.64910
H          7.29740       -1.19620       -6.07370
H         11.88260       -0.09620       -6.47050
H         13.66270       -1.92380       -7.10970
H         13.10460       -3.55180       -7.53230
H         12.91000       -2.29020       -4.75220
H         12.36600       -3.91380       -5.18060
H         14.08510       -3.51410       -5.24510
H          5.73430        4.46520       -5.46490
H          3.75130        6.17160       -5.53350
H          3.79120        7.49300       -6.71330
H          5.58340        7.28520       -4.24300
H          5.61220        8.59790       -5.42160
H          4.18410        8.35140       -4.41270
H          9.79220        5.27330       -7.73310
H         12.04210        5.75900       -8.28860
