
  xtb     02082217263D
 energy: -470.282756390142 gnorm: 0.000965150456 xtb: 6.4.1 (unknown)
288315  0     0  0            999 V2000
    5.3606    9.0502  -10.3132 C   0  0  0  0  0  0  0  0  0  0  0  0
    6.0495   10.2510  -10.3382 C   0  0  0  0  0  0  0  0  0  0  0  0
    6.0478   11.2477   -9.2761 C   0  0  0  0  0  0  0  0  0  0  0  0
    5.3253   11.3083   -8.2985 O   0  0  0  0  0  0  0  0  0  0  0  0
    7.1264   12.2046   -9.6197 C   0  0  0  0  0  0  0  0  0  0  0  0
    7.4986   13.3547   -8.9512 C   0  0  0  0  0  0  0  0  0  0  0  0
    6.7880   13.7853   -7.4620 Cl  0  0  0  0  0  0  0  0  0  0  0  0
    8.4772   14.1731   -9.5322 C   0  0  0  0  0  0  0  0  0  0  0  0
    8.9981   15.5887   -8.7249 Cl  0  0  0  0  0  0  0  0  0  0  0  0
    8.9951   13.8528  -10.7842 C   0  0  0  0  0  0  0  0  0  0  0  0
   10.1259   14.9107  -11.5145 Cl  0  0  0  0  0  0  0  0  0  0  0  0
    8.5997   12.6895  -11.4656 C   0  0  0  0  0  0  0  0  0  0  0  0
    9.1731   12.4620  -13.0668 Cl  0  0  0  0  0  0  0  0  0  0  0  0
    7.7079   11.8222  -10.8460 C   0  0  0  0  0  0  0  0  0  0  0  0
    7.0960   10.5657  -11.2747 C   0  0  0  0  0  0  0  0  0  0  0  0
    7.5162    9.7570  -12.3136 C   0  0  0  0  0  0  0  0  0  0  0  0
    6.7265    8.7589  -12.9122 C   0  0  0  0  0  0  0  0  0  0  0  0
    6.1270    7.9820  -13.5131 N   0  0  0  0  0  0  0  0  0  0  0  0
    8.8221    9.6956  -12.8305 C   0  0  0  0  0  0  0  0  0  0  0  0
    9.8814    9.4425  -13.1994 N   0  0  0  0  0  0  0  0  0  0  0  0
    4.4716    8.5347   -9.3833 C   0  0  0  0  0  0  0  0  0  0  0  0
    4.0229    7.1819   -9.4048 C   0  0  0  0  0  0  0  0  0  0  0  0
    4.5455    6.1835  -10.1765 N   0  0  0  0  0  0  0  0  0  0  0  0
    5.9005    6.1364  -10.5642 C   0  0  0  0  0  0  0  0  0  0  0  0
    6.2422    5.6211  -11.8108 C   0  0  0  0  0  0  0  0  0  0  0  0
    7.5655    5.5924  -12.2085 C   0  0  0  0  0  0  0  0  0  0  0  0
    8.5733    6.0863  -11.3905 C   0  0  0  0  0  0  0  0  0  0  0  0
    9.9931    6.1290  -11.8572 C   0  0  0  0  0  0  0  0  0  0  0  0
    8.2229    6.5652  -10.1305 C   0  0  0  0  0  0  0  0  0  0  0  0
    6.9094    6.5796   -9.7105 C   0  0  0  0  0  0  0  0  0  0  0  0
    3.7442    5.0573  -10.4608 C   0  0  0  0  0  0  0  0  0  0  0  0
    4.2381    3.7727  -10.2579 C   0  0  0  0  0  0  0  0  0  0  0  0
    3.4391    2.6774  -10.5177 C   0  0  0  0  0  0  0  0  0  0  0  0
    2.1390    2.8320  -10.9851 C   0  0  0  0  0  0  0  0  0  0  0  0
    1.2791    1.6405  -11.2738 C   0  0  0  0  0  0  0  0  0  0  0  0
    1.6627    4.1194  -11.2036 C   0  0  0  0  0  0  0  0  0  0  0  0
    2.4510    5.2237  -10.9479 C   0  0  0  0  0  0  0  0  0  0  0  0
    3.0072    6.9852   -8.4576 C   0  0  0  0  0  0  0  0  0  0  0  0
    2.0560    5.6144   -7.9845 S   0  0  0  0  0  0  0  0  0  0  0  0
    1.3250    6.5539   -6.6903 C   0  0  0  0  0  0  0  0  0  0  0  0
    1.7498    7.8772   -6.6782 C   0  0  0  0  0  0  0  0  0  0  0  0
    1.2567    8.8602   -5.8455 N   0  0  0  0  0  0  0  0  0  0  0  0
    2.1080    9.9184   -5.4740 C   0  0  0  0  0  0  0  0  0  0  0  0
    1.6527   11.2333   -5.5004 C   0  0  0  0  0  0  0  0  0  0  0  0
    2.5051   12.2642   -5.1647 C   0  0  0  0  0  0  0  0  0  0  0  0
    3.8257   12.0183   -4.8028 C   0  0  0  0  0  0  0  0  0  0  0  0
    4.7345   13.1539   -4.4477 C   0  0  0  0  0  0  0  0  0  0  0  0
    4.2666   10.7034   -4.7684 C   0  0  0  0  0  0  0  0  0  0  0  0
    3.4208    9.6605   -5.0937 C   0  0  0  0  0  0  0  0  0  0  0  0
   -0.0787    8.8525   -5.4232 C   0  0  0  0  0  0  0  0  0  0  0  0
   -0.4097    9.3179   -4.1519 C   0  0  0  0  0  0  0  0  0  0  0  0
   -1.7165    9.2680   -3.7112 C   0  0  0  0  0  0  0  0  0  0  0  0
   -2.7270    8.7479   -4.5117 C   0  0  0  0  0  0  0  0  0  0  0  0
   -4.1342    8.6577   -4.0050 C   0  0  0  0  0  0  0  0  0  0  0  0
   -2.3929    8.3014   -5.7843 C   0  0  0  0  0  0  0  0  0  0  0  0
   -1.0921    8.3605   -6.2431 C   0  0  0  0  0  0  0  0  0  0  0  0
    2.7207    8.1065   -7.6840 C   0  0  0  0  0  0  0  0  0  0  0  0
    3.7016    9.4665   -8.0935 S   0  0  0  0  0  0  0  0  0  0  0  0
    0.4503    5.8639   -5.8054 C   0  0  0  0  0  0  0  0  0  0  0  0
    0.4518    6.1692   -4.0768 S   0  0  0  0  0  0  0  0  0  0  0  0
   -0.6423    4.8686   -3.8519 C   0  0  0  0  0  0  0  0  0  0  0  0
   -1.2322    4.1593   -2.7774 C   0  0  0  0  0  0  0  0  0  0  0  0
   -1.9693    3.0865   -3.2531 C   0  0  0  0  0  0  0  0  0  0  0  0
   -1.9406    3.0881   -4.7779 C   0  0  0  0  0  0  0  0  0  0  0  0
   -1.0035    4.2540   -5.0411 C   0  0  0  0  0  0  0  0  0  0  0  0
   -0.3710    4.8083   -6.1474 C   0  0  0  0  0  0  0  0  0  0  0  0
   -3.3248    3.4335   -5.3112 C   0  0  0  0  0  0  0  0  0  0  0  0
   -3.8580    4.6813   -5.0042 C   0  0  0  0  0  0  0  0  0  0  0  0
   -5.1129    5.0444   -5.4513 C   0  0  0  0  0  0  0  0  0  0  0  0
   -5.8757    4.1755   -6.2211 C   0  0  0  0  0  0  0  0  0  0  0  0
   -7.2576    4.5548   -6.6690 C   0  0  0  0  0  0  0  0  0  0  0  0
   -8.2894    4.1571   -5.6115 C   0  0  0  0  0  0  0  0  0  0  0  0
   -5.3441    2.9299   -6.5215 C   0  0  0  0  0  0  0  0  0  0  0  0
   -4.0876    2.5601   -6.0740 C   0  0  0  0  0  0  0  0  0  0  0  0
   -1.2752    1.8883   -5.4178 C   0  0  0  0  0  0  0  0  0  0  0  0
   -0.5790    0.9483   -4.6699 C   0  0  0  0  0  0  0  0  0  0  0  0
    0.1160   -0.0730   -5.2941 C   0  0  0  0  0  0  0  0  0  0  0  0
    0.1475   -0.1765   -6.6772 C   0  0  0  0  0  0  0  0  0  0  0  0
    0.9636   -1.2356   -7.3597 C   0  0  0  0  0  0  0  0  0  0  0  0
    2.3743   -0.7123   -7.6392 C   0  0  0  0  0  0  0  0  0  0  0  0
   -0.5429    0.7702   -7.4231 C   0  0  0  0  0  0  0  0  0  0  0  0
   -1.2403    1.7888   -6.8055 C   0  0  0  0  0  0  0  0  0  0  0  0
   -2.4772    2.2803   -2.1984 C   0  0  0  0  0  0  0  0  0  0  0  0
   -3.2469    1.0771   -2.2174 C   0  0  0  0  0  0  0  0  0  0  0  0
   -3.8264    0.6017   -3.5178 C   0  0  0  0  0  0  0  0  0  0  0  0
   -4.6402   -0.6836   -3.4474 C   0  0  0  0  0  0  0  0  0  0  0  0
   -3.4359    0.4050   -1.0442 C   0  0  0  0  0  0  0  0  0  0  0  0
   -2.9381    0.8697    0.1944 C   0  0  0  0  0  0  0  0  0  0  0  0
   -3.0247    0.1353    1.3862 C   0  0  0  0  0  0  0  0  0  0  0  0
   -3.6940   -1.4784    1.4561 S   0  0  0  0  0  0  0  0  0  0  0  0
   -3.2419   -1.5694    3.1123 C   0  0  0  0  0  0  0  0  0  0  0  0
   -3.1747   -2.6092    4.0706 C   0  0  0  0  0  0  0  0  0  0  0  0
   -2.5174   -2.1379    5.1992 C   0  0  0  0  0  0  0  0  0  0  0  0
   -2.2328   -0.6514    5.0573 C   0  0  0  0  0  0  0  0  0  0  0  0
   -0.7446   -0.4272    5.2583 C   0  0  0  0  0  0  0  0  0  0  0  0
   -0.2109    0.2894    6.3189 C   0  0  0  0  0  0  0  0  0  0  0  0
    1.1600    0.4193    6.4565 C   0  0  0  0  0  0  0  0  0  0  0  0
    2.0317   -0.1587    5.5452 C   0  0  0  0  0  0  0  0  0  0  0  0
    3.5148    0.0394    5.6664 C   0  0  0  0  0  0  0  0  0  0  0  0
    3.9434    1.3014    4.9147 C   0  0  0  0  0  0  0  0  0  0  0  0
    1.4921   -0.8739    4.4828 C   0  0  0  0  0  0  0  0  0  0  0  0
    0.1252   -1.0090    4.3420 C   0  0  0  0  0  0  0  0  0  0  0  0
   -3.1273    0.0918    6.0353 C   0  0  0  0  0  0  0  0  0  0  0  0
   -4.0159    1.0739    5.6182 C   0  0  0  0  0  0  0  0  0  0  0  0
   -4.8212    1.7304    6.5316 C   0  0  0  0  0  0  0  0  0  0  0  0
   -4.7703    1.4240    7.8836 C   0  0  0  0  0  0  0  0  0  0  0  0
   -5.6731    2.1134    8.8651 C   0  0  0  0  0  0  0  0  0  0  0  0
   -7.0087    1.3751    8.9735 C   0  0  0  0  0  0  0  0  0  0  0  0
   -3.8982    0.4248    8.2957 C   0  0  0  0  0  0  0  0  0  0  0  0
   -3.0919   -0.2335    7.3877 C   0  0  0  0  0  0  0  0  0  0  0  0
   -2.6473   -0.4231    3.6098 C   0  0  0  0  0  0  0  0  0  0  0  0
   -2.5096    0.5873    2.6205 C   0  0  0  0  0  0  0  0  0  0  0  0
   -1.9356    1.8887    2.6709 C   0  0  0  0  0  0  0  0  0  0  0  0
   -1.3996    2.5005    3.9347 C   0  0  0  0  0  0  0  0  0  0  0  0
    0.1212    2.6506    3.8763 C   0  0  0  0  0  0  0  0  0  0  0  0
   -1.8424    2.6085    1.5110 C   0  0  0  0  0  0  0  0  0  0  0  0
   -2.2858    2.1213    0.2654 C   0  0  0  0  0  0  0  0  0  0  0  0
   -2.0648    2.7869   -0.9512 C   0  0  0  0  0  0  0  0  0  0  0  0
   -1.1383    4.2620   -1.0649 S   0  0  0  0  0  0  0  0  0  0  0  0
   -2.1885   -3.1521    6.0903 C   0  0  0  0  0  0  0  0  0  0  0  0
   -2.5798   -4.3993    5.6334 C   0  0  0  0  0  0  0  0  0  0  0  0
   -3.4700   -4.2945    4.1260 S   0  0  0  0  0  0  0  0  0  0  0  0
   -2.2608   -5.6447    6.2389 C   0  0  0  0  0  0  0  0  0  0  0  0
   -1.9958   -6.8774    5.6469 C   0  0  0  0  0  0  0  0  0  0  0  0
   -1.9551   -7.1406    4.2888 N   0  0  0  0  0  0  0  0  0  0  0  0
   -1.3968   -6.2221    3.3934 C   0  0  0  0  0  0  0  0  0  0  0  0
   -0.3645   -5.3737    3.7868 C   0  0  0  0  0  0  0  0  0  0  0  0
    0.0959   -4.3932    2.9306 C   0  0  0  0  0  0  0  0  0  0  0  0
   -0.4480   -4.2330    1.6627 C   0  0  0  0  0  0  0  0  0  0  0  0
   -0.0084   -3.1208    0.7603 C   0  0  0  0  0  0  0  0  0  0  0  0
   -1.4365   -5.1227    1.2546 C   0  0  0  0  0  0  0  0  0  0  0  0
   -1.9065   -6.1059    2.1000 C   0  0  0  0  0  0  0  0  0  0  0  0
   -2.3304   -8.4251    3.8565 C   0  0  0  0  0  0  0  0  0  0  0  0
   -3.4581   -9.0367    4.3985 C   0  0  0  0  0  0  0  0  0  0  0  0
   -3.8007  -10.3179    4.0193 C   0  0  0  0  0  0  0  0  0  0  0  0
   -3.0412  -11.0172    3.0886 C   0  0  0  0  0  0  0  0  0  0  0  0
   -3.4080  -12.4202    2.7170 C   0  0  0  0  0  0  0  0  0  0  0  0
   -1.9328  -10.3895    2.5357 C   0  0  0  0  0  0  0  0  0  0  0  0
   -1.5739   -9.1102    2.9121 C   0  0  0  0  0  0  0  0  0  0  0  0
   -1.6637   -7.8489    6.6200 C   0  0  0  0  0  0  0  0  0  0  0  0
   -1.2926   -9.5301    6.5194 S   0  0  0  0  0  0  0  0  0  0  0  0
   -0.9666   -9.5687    8.2569 C   0  0  0  0  0  0  0  0  0  0  0  0
   -1.2536   -8.3189    8.8793 C   0  0  0  0  0  0  0  0  0  0  0  0
   -1.1760   -8.0615   10.2188 N   0  0  0  0  0  0  0  0  0  0  0  0
   -1.4966   -9.0163   11.2021 C   0  0  0  0  0  0  0  0  0  0  0  0
   -0.7915   -9.0374   12.4029 C   0  0  0  0  0  0  0  0  0  0  0  0
   -1.1013   -9.9749   13.3674 C   0  0  0  0  0  0  0  0  0  0  0  0
   -2.1054  -10.9140   13.1617 C   0  0  0  0  0  0  0  0  0  0  0  0
   -2.3961  -11.9489   14.2039 C   0  0  0  0  0  0  0  0  0  0  0  0
   -2.8176  -10.8694   11.9686 C   0  0  0  0  0  0  0  0  0  0  0  0
   -2.5294   -9.9286   11.0002 C   0  0  0  0  0  0  0  0  0  0  0  0
   -0.8550   -6.7534   10.6360 C   0  0  0  0  0  0  0  0  0  0  0  0
   -1.5862   -6.1309   11.6417 C   0  0  0  0  0  0  0  0  0  0  0  0
   -1.2662   -4.8455   12.0321 C   0  0  0  0  0  0  0  0  0  0  0  0
   -0.2208   -4.1524   11.4339 C   0  0  0  0  0  0  0  0  0  0  0  0
    0.1301   -2.7609   11.8613 C   0  0  0  0  0  0  0  0  0  0  0  0
    0.5120   -4.7892   10.4383 C   0  0  0  0  0  0  0  0  0  0  0  0
    0.2062   -6.0751   10.0426 C   0  0  0  0  0  0  0  0  0  0  0  0
   -1.6216   -7.3620    7.9219 C   0  0  0  0  0  0  0  0  0  0  0  0
   -2.0303   -5.6760    7.9848 S   0  0  0  0  0  0  0  0  0  0  0  0
   -0.3610  -10.6266    8.9179 C   0  0  0  0  0  0  0  0  0  0  0  0
   -0.0311  -11.8943    8.4701 C   0  0  0  0  0  0  0  0  0  0  0  0
   -0.4202  -12.4805    7.1922 C   0  0  0  0  0  0  0  0  0  0  0  0
   -1.0159  -11.9525    6.2702 O   0  0  0  0  0  0  0  0  0  0  0  0
    0.0278  -13.8920    7.2429 C   0  0  0  0  0  0  0  0  0  0  0  0
    0.6495  -14.1359    8.4807 C   0  0  0  0  0  0  0  0  0  0  0  0
    1.1508  -15.3948    8.7655 C   0  0  0  0  0  0  0  0  0  0  0  0
    1.0230  -16.3936    7.8097 C   0  0  0  0  0  0  0  0  0  0  0  0
    0.4137  -16.1460    6.5906 C   0  0  0  0  0  0  0  0  0  0  0  0
    0.2751  -17.5465    5.3273 Br  0  0  0  0  0  0  0  0  0  0  0  0
   -0.0976  -14.8804    6.2832 C   0  0  0  0  0  0  0  0  0  0  0  0
   -0.8407  -14.5645    4.7739 Cl  0  0  0  0  0  0  0  0  0  0  0  0
    0.6473  -12.8914    9.2526 C   0  0  0  0  0  0  0  0  0  0  0  0
    1.2335  -12.7323   10.4882 C   0  0  0  0  0  0  0  0  0  0  0  0
    1.3697  -11.5125   11.1763 C   0  0  0  0  0  0  0  0  0  0  0  0
    1.5571  -10.5583   11.7908 N   0  0  0  0  0  0  0  0  0  0  0  0
    1.8149  -13.7792   11.2283 C   0  0  0  0  0  0  0  0  0  0  0  0
    2.2967  -14.5850   11.8908 N   0  0  0  0  0  0  0  0  0  0  0  0
    5.5791    8.3765  -11.1310 H   0  0  0  0  0  0  0  0  0  0  0  0
    5.4678    5.2625  -12.4708 H   0  0  0  0  0  0  0  0  0  0  0  0
    7.8132    5.2049  -13.1849 H   0  0  0  0  0  0  0  0  0  0  0  0
   10.1897    7.0852  -12.3462 H   0  0  0  0  0  0  0  0  0  0  0  0
   10.1901    5.3388  -12.5771 H   0  0  0  0  0  0  0  0  0  0  0  0
   10.6825    6.0320  -11.0216 H   0  0  0  0  0  0  0  0  0  0  0  0
    8.9944    6.9266   -9.4661 H   0  0  0  0  0  0  0  0  0  0  0  0
    6.6570    6.9469   -8.7265 H   0  0  0  0  0  0  0  0  0  0  0  0
    5.2432    3.6412   -9.8857 H   0  0  0  0  0  0  0  0  0  0  0  0
    3.8303    1.6851  -10.3460 H   0  0  0  0  0  0  0  0  0  0  0  0
    1.5917    0.7828  -10.6829 H   0  0  0  0  0  0  0  0  0  0  0  0
    1.3585    1.3703  -12.3274 H   0  0  0  0  0  0  0  0  0  0  0  0
    0.2345    1.8581  -11.0627 H   0  0  0  0  0  0  0  0  0  0  0  0
    0.6604    4.2598  -11.5810 H   0  0  0  0  0  0  0  0  0  0  0  0
    2.0739    6.2199  -11.1268 H   0  0  0  0  0  0  0  0  0  0  0  0
    0.6333   11.4372   -5.7942 H   0  0  0  0  0  0  0  0  0  0  0  0
    2.1450   13.2824   -5.1975 H   0  0  0  0  0  0  0  0  0  0  0  0
    4.4354   13.5962   -3.4969 H   0  0  0  0  0  0  0  0  0  0  0  0
    4.6837   13.9318   -5.2072 H   0  0  0  0  0  0  0  0  0  0  0  0
    5.7640   12.8162   -4.3625 H   0  0  0  0  0  0  0  0  0  0  0  0
    5.2863   10.4885   -4.4844 H   0  0  0  0  0  0  0  0  0  0  0  0
    3.7725    8.6394   -5.0538 H   0  0  0  0  0  0  0  0  0  0  0  0
    0.3677    9.7049   -3.5105 H   0  0  0  0  0  0  0  0  0  0  0  0
   -1.9542    9.6261   -2.7200 H   0  0  0  0  0  0  0  0  0  0  0  0
   -4.8411    8.6216   -4.8308 H   0  0  0  0  0  0  0  0  0  0  0  0
   -4.2610    7.7546   -3.4060 H   0  0  0  0  0  0  0  0  0  0  0  0
   -4.3733    9.5113   -3.3742 H   0  0  0  0  0  0  0  0  0  0  0  0
   -3.1621    7.9027   -6.4304 H   0  0  0  0  0  0  0  0  0  0  0  0
   -0.8587    8.0227   -7.2420 H   0  0  0  0  0  0  0  0  0  0  0  0
   -0.4828    4.4849   -7.1659 H   0  0  0  0  0  0  0  0  0  0  0  0
   -3.2825    5.3791   -4.4132 H   0  0  0  0  0  0  0  0  0  0  0  0
   -5.5059    6.0193   -5.2012 H   0  0  0  0  0  0  0  0  0  0  0  0
   -7.4939    4.0523   -7.6091 H   0  0  0  0  0  0  0  0  0  0  0  0
   -7.3104    5.6328   -6.8349 H   0  0  0  0  0  0  0  0  0  0  0  0
   -8.0770    4.6567   -4.6689 H   0  0  0  0  0  0  0  0  0  0  0  0
   -8.2625    3.0830   -5.4420 H   0  0  0  0  0  0  0  0  0  0  0  0
   -9.2906    4.4333   -5.9335 H   0  0  0  0  0  0  0  0  0  0  0  0
   -5.9191    2.2336   -7.1156 H   0  0  0  0  0  0  0  0  0  0  0  0
   -3.7093    1.5812   -6.3266 H   0  0  0  0  0  0  0  0  0  0  0  0
   -0.5714    1.0119   -3.5918 H   0  0  0  0  0  0  0  0  0  0  0  0
    0.6485   -0.7955   -4.6921 H   0  0  0  0  0  0  0  0  0  0  0  0
    1.0265   -2.1246   -6.7294 H   0  0  0  0  0  0  0  0  0  0  0  0
    0.4901   -1.5176   -8.3026 H   0  0  0  0  0  0  0  0  0  0  0  0
    2.8783   -0.4697   -6.7065 H   0  0  0  0  0  0  0  0  0  0  0  0
    2.3296    0.1919   -8.2431 H   0  0  0  0  0  0  0  0  0  0  0  0
    2.9617   -1.4601   -8.1675 H   0  0  0  0  0  0  0  0  0  0  0  0
   -0.5278    0.7131   -8.5023 H   0  0  0  0  0  0  0  0  0  0  0  0
   -1.7621    2.5175   -7.4079 H   0  0  0  0  0  0  0  0  0  0  0  0
   -4.4632    1.4020   -3.9055 H   0  0  0  0  0  0  0  0  0  0  0  0
   -3.0115    0.4632   -4.2319 H   0  0  0  0  0  0  0  0  0  0  0  0
   -5.0222   -0.9208   -4.4380 H   0  0  0  0  0  0  0  0  0  0  0  0
   -4.0280   -1.5177   -3.1125 H   0  0  0  0  0  0  0  0  0  0  0  0
   -5.4881   -0.5750   -2.7751 H   0  0  0  0  0  0  0  0  0  0  0  0
   -3.9773   -0.5276   -1.0306 H   0  0  0  0  0  0  0  0  0  0  0  0
   -0.8597    0.7624    7.0411 H   0  0  0  0  0  0  0  0  0  0  0  0
    1.5572    0.9835    7.2886 H   0  0  0  0  0  0  0  0  0  0  0  0
    3.7919    0.1360    6.7181 H   0  0  0  0  0  0  0  0  0  0  0  0
    4.0409   -0.8230    5.2518 H   0  0  0  0  0  0  0  0  0  0  0  0
    3.4363    2.1738    5.3206 H   0  0  0  0  0  0  0  0  0  0  0  0
    5.0170    1.4508    5.0018 H   0  0  0  0  0  0  0  0  0  0  0  0
    3.6878    1.2201    3.8606 H   0  0  0  0  0  0  0  0  0  0  0  0
    2.1536   -1.3270    3.7572 H   0  0  0  0  0  0  0  0  0  0  0  0
   -0.2791   -1.5696    3.5119 H   0  0  0  0  0  0  0  0  0  0  0  0
   -4.0882    1.3365    4.5740 H   0  0  0  0  0  0  0  0  0  0  0  0
   -5.4995    2.4962    6.1831 H   0  0  0  0  0  0  0  0  0  0  0  0
   -5.1979    2.1434    9.8477 H   0  0  0  0  0  0  0  0  0  0  0  0
   -5.8552    3.1402    8.5417 H   0  0  0  0  0  0  0  0  0  0  0  0
   -7.5050    1.3477    8.0060 H   0  0  0  0  0  0  0  0  0  0  0  0
   -7.6625    1.8731    9.6857 H   0  0  0  0  0  0  0  0  0  0  0  0
   -6.8491    0.3513    9.3042 H   0  0  0  0  0  0  0  0  0  0  0  0
   -3.8485    0.1573    9.3418 H   0  0  0  0  0  0  0  0  0  0  0  0
   -2.4282   -1.0093    7.7368 H   0  0  0  0  0  0  0  0  0  0  0  0
   -1.8479    3.4902    4.0610 H   0  0  0  0  0  0  0  0  0  0  0  0
   -1.6683    1.9004    4.7990 H   0  0  0  0  0  0  0  0  0  0  0  0
    0.4150    3.3134    3.0664 H   0  0  0  0  0  0  0  0  0  0  0  0
    0.5905    1.6835    3.7170 H   0  0  0  0  0  0  0  0  0  0  0  0
    0.4912    3.0617    4.8124 H   0  0  0  0  0  0  0  0  0  0  0  0
   -1.3965    3.5929    1.5321 H   0  0  0  0  0  0  0  0  0  0  0  0
   -1.6183   -3.0370    6.9949 H   0  0  0  0  0  0  0  0  0  0  0  0
    0.0677   -5.4742    4.7716 H   0  0  0  0  0  0  0  0  0  0  0  0
    0.8911   -3.7415    3.2621 H   0  0  0  0  0  0  0  0  0  0  0  0
   -0.7808   -2.3515    0.7111 H   0  0  0  0  0  0  0  0  0  0  0  0
    0.9082   -2.6612    1.1222 H   0  0  0  0  0  0  0  0  0  0  0  0
    0.1567   -3.4859   -0.2516 H   0  0  0  0  0  0  0  0  0  0  0  0
   -1.8611   -5.0262    0.2660 H   0  0  0  0  0  0  0  0  0  0  0  0
   -2.6942   -6.7713    1.7804 H   0  0  0  0  0  0  0  0  0  0  0  0
   -4.0582   -8.5007    5.1201 H   0  0  0  0  0  0  0  0  0  0  0  0
   -4.6717  -10.7864    4.4541 H   0  0  0  0  0  0  0  0  0  0  0  0
   -2.8359  -12.7613    1.8578 H   0  0  0  0  0  0  0  0  0  0  0  0
   -3.2022  -13.0865    3.5544 H   0  0  0  0  0  0  0  0  0  0  0  0
   -4.4697  -12.4955    2.4868 H   0  0  0  0  0  0  0  0  0  0  0  0
   -1.3284  -10.9150    1.8103 H   0  0  0  0  0  0  0  0  0  0  0  0
   -0.6982   -8.6406    2.4882 H   0  0  0  0  0  0  0  0  0  0  0  0
    0.0063   -8.3304   12.5669 H   0  0  0  0  0  0  0  0  0  0  0  0
   -0.5380   -9.9909   14.2880 H   0  0  0  0  0  0  0  0  0  0  0  0
   -2.5659  -11.4801   15.1716 H   0  0  0  0  0  0  0  0  0  0  0  0
   -3.2719  -12.5358   13.9400 H   0  0  0  0  0  0  0  0  0  0  0  0
   -1.5460  -12.6228   14.3079 H   0  0  0  0  0  0  0  0  0  0  0  0
   -3.6156  -11.5770   11.7953 H   0  0  0  0  0  0  0  0  0  0  0  0
   -3.0955   -9.9028   10.0806 H   0  0  0  0  0  0  0  0  0  0  0  0
   -2.4074   -6.6559   12.1066 H   0  0  0  0  0  0  0  0  0  0  0  0
   -1.8456   -4.3699   12.8099 H   0  0  0  0  0  0  0  0  0  0  0  0
   -0.6918   -2.3010   12.4040 H   0  0  0  0  0  0  0  0  0  0  0  0
    0.3751   -2.1436   10.9993 H   0  0  0  0  0  0  0  0  0  0  0  0
    1.0019   -2.7803   12.5159 H   0  0  0  0  0  0  0  0  0  0  0  0
    1.3359   -4.2711    9.9697 H   0  0  0  0  0  0  0  0  0  0  0  0
    0.7890   -6.5650    9.2763 H   0  0  0  0  0  0  0  0  0  0  0  0
   -0.1017  -10.4179    9.9476 H   0  0  0  0  0  0  0  0  0  0  0  0
    1.6326  -15.6168    9.7028 H   0  0  0  0  0  0  0  0  0  0  0  0
    1.4052  -17.3820    8.0132 H   0  0  0  0  0  0  0  0  0  0  0  0
  1  2  2  0  0  0  0
  2  3  1  0  0  0  0
  3  4  2  0  0  0  0
  3  5  1  0  0  0  0
  5  6  2  0  0  0  0
  6  7  1  0  0  0  0
  6  8  1  0  0  0  0
  8  9  1  0  0  0  0
  8 10  2  0  0  0  0
 10 11  1  0  0  0  0
 10 12  1  0  0  0  0
 12 13  1  0  0  0  0
 12 14  2  0  0  0  0
 14 15  1  0  0  0  0
 15 16  2  0  0  0  0
 16 17  1  0  0  0  0
 17 18  3  0  0  0  0
 16 19  1  0  0  0  0
 19 20  3  0  0  0  0
  1 21  1  0  0  0  0
 21 22  2  0  0  0  0
 22 23  1  0  0  0  0
 23 24  1  0  0  0  0
 24 25  2  0  0  0  0
 25 26  1  0  0  0  0
 26 27  2  0  0  0  0
 27 28  1  0  0  0  0
 27 29  1  0  0  0  0
 29 30  2  0  0  0  0
 23 31  1  0  0  0  0
 31 32  2  0  0  0  0
 32 33  1  0  0  0  0
 33 34  2  0  0  0  0
 34 35  1  0  0  0  0
 34 36  1  0  0  0  0
 36 37  2  0  0  0  0
 22 38  1  0  0  0  0
 38 39  1  0  0  0  0
 39 40  1  0  0  0  0
 40 41  2  0  0  0  0
 41 42  1  0  0  0  0
 42 43  1  0  0  0  0
 43 44  2  0  0  0  0
 44 45  1  0  0  0  0
 45 46  2  0  0  0  0
 46 47  1  0  0  0  0
 46 48  1  0  0  0  0
 48 49  2  0  0  0  0
 42 50  1  0  0  0  0
 50 51  2  0  0  0  0
 51 52  1  0  0  0  0
 52 53  2  0  0  0  0
 53 54  1  0  0  0  0
 53 55  1  0  0  0  0
 55 56  2  0  0  0  0
 41 57  1  0  0  0  0
 57 58  1  0  0  0  0
 40 59  1  0  0  0  0
 59 60  1  0  0  0  0
 60 61  1  0  0  0  0
 61 62  1  0  0  0  0
 62 63  2  0  0  0  0
 63 64  1  0  0  0  0
 64 65  1  0  0  0  0
 65 66  1  0  0  0  0
 64 67  1  0  0  0  0
 67 68  2  0  0  0  0
 68 69  1  0  0  0  0
 69 70  2  0  0  0  0
 70 71  1  0  0  0  0
 71 72  1  0  0  0  0
 70 73  1  0  0  0  0
 73 74  2  0  0  0  0
 64 75  1  0  0  0  0
 75 76  2  0  0  0  0
 76 77  1  0  0  0  0
 77 78  2  0  0  0  0
 78 79  1  0  0  0  0
 79 80  1  0  0  0  0
 78 81  1  0  0  0  0
 81 82  2  0  0  0  0
 63 83  1  0  0  0  0
 83 84  2  0  0  0  0
 84 85  1  0  0  0  0
 85 86  1  0  0  0  0
 84 87  1  0  0  0  0
 87 88  2  0  0  0  0
 88 89  1  0  0  0  0
 89 90  1  0  0  0  0
 90 91  1  0  0  0  0
 91 92  1  0  0  0  0
 92 93  2  0  0  0  0
 93 94  1  0  0  0  0
 94 95  1  0  0  0  0
 95 96  2  0  0  0  0
 96 97  1  0  0  0  0
 97 98  2  0  0  0  0
 98 99  1  0  0  0  0
 99100  1  0  0  0  0
 98101  1  0  0  0  0
101102  2  0  0  0  0
 94103  1  0  0  0  0
103104  2  0  0  0  0
104105  1  0  0  0  0
105106  2  0  0  0  0
106107  1  0  0  0  0
107108  1  0  0  0  0
106109  1  0  0  0  0
109110  2  0  0  0  0
 94111  1  0  0  0  0
111112  1  0  0  0  0
112113  1  0  0  0  0
113114  1  0  0  0  0
114115  1  0  0  0  0
113116  2  0  0  0  0
116117  1  0  0  0  0
117118  2  0  0  0  0
118119  1  0  0  0  0
 93120  1  0  0  0  0
120121  2  0  0  0  0
121122  1  0  0  0  0
121123  1  0  0  0  0
123124  2  0  0  0  0
124125  1  0  0  0  0
125126  1  0  0  0  0
126127  2  0  0  0  0
127128  1  0  0  0  0
128129  2  0  0  0  0
129130  1  0  0  0  0
129131  1  0  0  0  0
131132  2  0  0  0  0
125133  1  0  0  0  0
133134  2  0  0  0  0
134135  1  0  0  0  0
135136  2  0  0  0  0
136137  1  0  0  0  0
136138  1  0  0  0  0
138139  2  0  0  0  0
124140  1  0  0  0  0
140141  1  0  0  0  0
141142  1  0  0  0  0
142143  2  0  0  0  0
143144  1  0  0  0  0
144145  1  0  0  0  0
145146  2  0  0  0  0
146147  1  0  0  0  0
147148  2  0  0  0  0
148149  1  0  0  0  0
148150  1  0  0  0  0
150151  2  0  0  0  0
144152  1  0  0  0  0
152153  2  0  0  0  0
153154  1  0  0  0  0
154155  2  0  0  0  0
155156  1  0  0  0  0
155157  1  0  0  0  0
157158  2  0  0  0  0
143159  1  0  0  0  0
159160  1  0  0  0  0
142161  1  0  0  0  0
161162  2  0  0  0  0
162163  1  0  0  0  0
163164  2  0  0  0  0
163165  1  0  0  0  0
165166  2  0  0  0  0
166167  1  0  0  0  0
167168  2  0  0  0  0
168169  1  0  0  0  0
169170  1  0  0  0  0
169171  2  0  0  0  0
171172  1  0  0  0  0
166173  1  0  0  0  0
173174  2  0  0  0  0
174175  1  0  0  0  0
175176  3  0  0  0  0
174177  1  0  0  0  0
177178  3  0  0  0  0
 15  2  1  0  0  0  0
 58 21  1  0  0  0  0
 66 59  2  0  0  0  0
 74 67  1  0  0  0  0
 82 75  1  0  0  0  0
118 83  1  0  0  0  0
160123  1  0  0  0  0
173162  1  0  0  0  0
 14  5  1  0  0  0  0
 30 24  1  0  0  0  0
 37 31  1  0  0  0  0
 57 38  2  0  0  0  0
 65 61  2  0  0  0  0
117 88  1  0  0  0  0
132126  1  0  0  0  0
139133  1  0  0  0  0
159140  2  0  0  0  0
171165  1  0  0  0  0
 49 43  1  0  0  0  0
 56 50  1  0  0  0  0
119 62  1  0  0  0  0
151145  1  0  0  0  0
158152  1  0  0  0  0
112 89  2  0  0  0  0
111 91  2  0  0  0  0
122 92  1  0  0  0  0
102 95  1  0  0  0  0
110103  1  0  0  0  0
  1179  1  0  0  0  0
 25180  1  0  0  0  0
 26181  1  0  0  0  0
 28182  1  0  0  0  0
 28183  1  0  0  0  0
 28184  1  0  0  0  0
 29185  1  0  0  0  0
 30186  1  0  0  0  0
 32187  1  0  0  0  0
 33188  1  0  0  0  0
 35189  1  0  0  0  0
 35190  1  0  0  0  0
 35191  1  0  0  0  0
 36192  1  0  0  0  0
 37193  1  0  0  0  0
 44194  1  0  0  0  0
 45195  1  0  0  0  0
 47196  1  0  0  0  0
 47197  1  0  0  0  0
 47198  1  0  0  0  0
 48199  1  0  0  0  0
 49200  1  0  0  0  0
 51201  1  0  0  0  0
 52202  1  0  0  0  0
 54203  1  0  0  0  0
 54204  1  0  0  0  0
 54205  1  0  0  0  0
 55206  1  0  0  0  0
 56207  1  0  0  0  0
 66208  1  0  0  0  0
 68209  1  0  0  0  0
 69210  1  0  0  0  0
 71211  1  0  0  0  0
 71212  1  0  0  0  0
 72213  1  0  0  0  0
 72214  1  0  0  0  0
 72215  1  0  0  0  0
 73216  1  0  0  0  0
 74217  1  0  0  0  0
 76218  1  0  0  0  0
 77219  1  0  0  0  0
 79220  1  0  0  0  0
 79221  1  0  0  0  0
 80222  1  0  0  0  0
 80223  1  0  0  0  0
 80224  1  0  0  0  0
 81225  1  0  0  0  0
 82226  1  0  0  0  0
 85227  1  0  0  0  0
 85228  1  0  0  0  0
 86229  1  0  0  0  0
 86230  1  0  0  0  0
 86231  1  0  0  0  0
 87232  1  0  0  0  0
 96233  1  0  0  0  0
 97234  1  0  0  0  0
 99235  1  0  0  0  0
 99236  1  0  0  0  0
100237  1  0  0  0  0
100238  1  0  0  0  0
100239  1  0  0  0  0
101240  1  0  0  0  0
102241  1  0  0  0  0
104242  1  0  0  0  0
105243  1  0  0  0  0
107244  1  0  0  0  0
107245  1  0  0  0  0
108246  1  0  0  0  0
108247  1  0  0  0  0
108248  1  0  0  0  0
109249  1  0  0  0  0
110250  1  0  0  0  0
114251  1  0  0  0  0
114252  1  0  0  0  0
115253  1  0  0  0  0
115254  1  0  0  0  0
115255  1  0  0  0  0
116256  1  0  0  0  0
120257  1  0  0  0  0
127258  1  0  0  0  0
128259  1  0  0  0  0
130260  1  0  0  0  0
130261  1  0  0  0  0
130262  1  0  0  0  0
131263  1  0  0  0  0
132264  1  0  0  0  0
134265  1  0  0  0  0
135266  1  0  0  0  0
137267  1  0  0  0  0
137268  1  0  0  0  0
137269  1  0  0  0  0
138270  1  0  0  0  0
139271  1  0  0  0  0
146272  1  0  0  0  0
147273  1  0  0  0  0
149274  1  0  0  0  0
149275  1  0  0  0  0
149276  1  0  0  0  0
150277  1  0  0  0  0
151278  1  0  0  0  0
153279  1  0  0  0  0
154280  1  0  0  0  0
156281  1  0  0  0  0
156282  1  0  0  0  0
156283  1  0  0  0  0
157284  1  0  0  0  0
158285  1  0  0  0  0
161286  1  0  0  0  0
167287  1  0  0  0  0
168288  1  0  0  0  0
M  END
