
  xtb     02222217403D
 energy: -350.864128267436 gnorm: 0.000486504378 xtb: 6.4.1 (unknown)
193213  0     0  0            999 V2000
    8.1847   -5.2262    4.1731 C   0  0  0  0  0  0  0  0  0  0  0  0
    9.4784   -4.8486    4.4553 C   0  0  0  0  0  0  0  0  0  0  0  0
   10.5571   -5.8310    4.2839 C   0  0  0  0  0  0  0  0  0  0  0  0
   10.4497   -7.0156    4.0616 O   0  0  0  0  0  0  0  0  0  0  0  0
   11.8100   -5.0376    4.3705 C   0  0  0  0  0  0  0  0  0  0  0  0
   13.1001   -5.4561    4.1060 C   0  0  0  0  0  0  0  0  0  0  0  0
   13.4414   -7.0773    3.6937 Cl  0  0  0  0  0  0  0  0  0  0  0  0
   14.1318   -4.5100    4.1604 C   0  0  0  0  0  0  0  0  0  0  0  0
   15.7423   -4.9781    3.8234 Cl  0  0  0  0  0  0  0  0  0  0  0  0
   13.8378   -3.1835    4.4592 C   0  0  0  0  0  0  0  0  0  0  0  0
   15.1039   -2.0304    4.4627 Cl  0  0  0  0  0  0  0  0  0  0  0  0
   12.5249   -2.7657    4.7298 C   0  0  0  0  0  0  0  0  0  0  0  0
   12.2603   -1.0907    4.9832 Cl  0  0  0  0  0  0  0  0  0  0  0  0
   11.5010   -3.7024    4.7009 C   0  0  0  0  0  0  0  0  0  0  0  0
   10.0504   -3.6056    4.9002 C   0  0  0  0  0  0  0  0  0  0  0  0
    9.3388   -2.6851    5.6357 C   0  0  0  0  0  0  0  0  0  0  0  0
    7.9951   -2.9066    6.0024 C   0  0  0  0  0  0  0  0  0  0  0  0
    6.9131   -3.0275    6.3708 N   0  0  0  0  0  0  0  0  0  0  0  0
    9.7647   -1.5080    6.2809 C   0  0  0  0  0  0  0  0  0  0  0  0
    9.9375   -0.5424    6.8792 N   0  0  0  0  0  0  0  0  0  0  0  0
    7.0713   -4.4675    3.8083 C   0  0  0  0  0  0  0  0  0  0  0  0
    6.9288   -3.1506    3.3171 C   0  0  0  0  0  0  0  0  0  0  0  0
    7.9308   -2.3053    2.9190 N   0  0  0  0  0  0  0  0  0  0  0  0
    9.1429   -2.7273    2.3561 C   0  0  0  0  0  0  0  0  0  0  0  0
    9.2716   -3.9475    1.6942 C   0  0  0  0  0  0  0  0  0  0  0  0
   10.4923   -4.3357    1.1805 C   0  0  0  0  0  0  0  0  0  0  0  0
   11.6127   -3.5178    1.2811 C   0  0  0  0  0  0  0  0  0  0  0  0
   12.9330   -3.9585    0.7337 C   0  0  0  0  0  0  0  0  0  0  0  0
   11.4620   -2.2753    1.8841 C   0  0  0  0  0  0  0  0  0  0  0  0
   10.2542   -1.8864    2.4265 C   0  0  0  0  0  0  0  0  0  0  0  0
    7.6439   -0.9142    2.8693 C   0  0  0  0  0  0  0  0  0  0  0  0
    7.1883   -0.2497    4.0033 C   0  0  0  0  0  0  0  0  0  0  0  0
    6.9250    1.1043    3.9482 C   0  0  0  0  0  0  0  0  0  0  0  0
    7.1059    1.8239    2.7723 C   0  0  0  0  0  0  0  0  0  0  0  0
    6.7955    3.2870    2.7253 C   0  0  0  0  0  0  0  0  0  0  0  0
    7.5609    1.1488    1.6463 C   0  0  0  0  0  0  0  0  0  0  0  0
    7.8288   -0.2054    1.6878 C   0  0  0  0  0  0  0  0  0  0  0  0
    5.5619   -2.8092    3.2229 C   0  0  0  0  0  0  0  0  0  0  0  0
    4.7127   -1.3978    2.6867 S   0  0  0  0  0  0  0  0  0  0  0  0
    3.1768   -2.1627    3.0469 C   0  0  0  0  0  0  0  0  0  0  0  0
    3.3129   -3.4747    3.4816 C   0  0  0  0  0  0  0  0  0  0  0  0
    2.2756   -4.3456    3.7484 N   0  0  0  0  0  0  0  0  0  0  0  0
    2.4263   -5.3049    4.7656 C   0  0  0  0  0  0  0  0  0  0  0  0
    3.1195   -5.0017    5.9340 C   0  0  0  0  0  0  0  0  0  0  0  0
    3.2686   -5.9576    6.9185 C   0  0  0  0  0  0  0  0  0  0  0  0
    2.7304   -7.2303    6.7731 C   0  0  0  0  0  0  0  0  0  0  0  0
    2.9188   -8.2662    7.8384 C   0  0  0  0  0  0  0  0  0  0  0  0
    2.0355   -7.5218    5.6056 C   0  0  0  0  0  0  0  0  0  0  0  0
    1.8860   -6.5780    4.6092 C   0  0  0  0  0  0  0  0  0  0  0  0
    1.0655   -4.2516    3.0462 C   0  0  0  0  0  0  0  0  0  0  0  0
    1.0518   -3.9411    1.6886 C   0  0  0  0  0  0  0  0  0  0  0  0
   -0.1467   -3.7563    1.0278 C   0  0  0  0  0  0  0  0  0  0  0  0
   -1.3606   -3.8880    1.6900 C   0  0  0  0  0  0  0  0  0  0  0  0
   -2.6592   -3.6122    0.9954 C   0  0  0  0  0  0  0  0  0  0  0  0
   -1.3385   -4.2645    3.0278 C   0  0  0  0  0  0  0  0  0  0  0  0
   -0.1478   -4.4502    3.7001 C   0  0  0  0  0  0  0  0  0  0  0  0
    4.6811   -3.8209    3.5848 C   0  0  0  0  0  0  0  0  0  0  0  0
    5.5068   -5.2683    4.0091 S   0  0  0  0  0  0  0  0  0  0  0  0
    1.9481   -1.4482    2.8650 C   0  0  0  0  0  0  0  0  0  0  0  0
    0.9003   -1.3548    3.7583 C   0  0  0  0  0  0  0  0  0  0  0  0
    0.9922   -1.7286    5.1680 C   0  0  0  0  0  0  0  0  0  0  0  0
    2.1821   -1.5559    5.8734 C   0  0  0  0  0  0  0  0  0  0  0  0
    2.2551   -1.9083    7.2069 C   0  0  0  0  0  0  0  0  0  0  0  0
    1.1494   -2.4338    7.8530 C   0  0  0  0  0  0  0  0  0  0  0  0
   -0.0517   -2.5899    7.1743 C   0  0  0  0  0  0  0  0  0  0  0  0
   -1.2800   -3.0943    7.8751 C   0  0  0  0  0  0  0  0  0  0  0  0
   -2.1460   -1.9206    8.3367 C   0  0  0  0  0  0  0  0  0  0  0  0
   -0.1207   -2.2247    5.8387 C   0  0  0  0  0  0  0  0  0  0  0  0
   -0.2338   -0.7765    3.1455 C   0  0  0  0  0  0  0  0  0  0  0  0
   -1.8517   -0.4479    3.7112 S   0  0  0  0  0  0  0  0  0  0  0  0
   -2.2404    0.2129    2.1603 C   0  0  0  0  0  0  0  0  0  0  0  0
   -3.3419    0.7590    1.4797 C   0  0  0  0  0  0  0  0  0  0  0  0
   -4.6931    0.9013    1.8625 C   0  0  0  0  0  0  0  0  0  0  0  0
   -5.6368    1.4016    0.9043 C   0  0  0  0  0  0  0  0  0  0  0  0
   -6.8731    1.4275    1.3774 N   0  0  0  0  0  0  0  0  0  0  0  0
   -6.8509    0.8750    2.8993 S   0  0  0  0  0  0  0  0  0  0  0  0
   -5.2634    0.5785    3.0130 N   0  0  0  0  0  0  0  0  0  0  0  0
   -5.1632    1.8466   -0.3486 C   0  0  0  0  0  0  0  0  0  0  0  0
   -5.8131    2.5182   -1.3960 C   0  0  0  0  0  0  0  0  0  0  0  0
   -7.3984    3.0757   -1.8070 S   0  0  0  0  0  0  0  0  0  0  0  0
   -6.7409    3.7965   -3.2571 C   0  0  0  0  0  0  0  0  0  0  0  0
   -7.3258    4.5550   -4.2912 C   0  0  0  0  0  0  0  0  0  0  0  0
   -8.7244    4.9882   -4.2500 C   0  0  0  0  0  0  0  0  0  0  0  0
   -9.0570    6.3213   -4.4828 C   0  0  0  0  0  0  0  0  0  0  0  0
  -10.3729    6.7283   -4.3845 C   0  0  0  0  0  0  0  0  0  0  0  0
  -11.3628    5.8193   -4.0516 C   0  0  0  0  0  0  0  0  0  0  0  0
  -11.0473    4.4891   -3.8056 C   0  0  0  0  0  0  0  0  0  0  0  0
  -12.1218    3.4922   -3.4810 C   0  0  0  0  0  0  0  0  0  0  0  0
  -12.6781    2.8714   -4.7641 C   0  0  0  0  0  0  0  0  0  0  0  0
   -9.7244    4.0850   -3.9070 C   0  0  0  0  0  0  0  0  0  0  0  0
   -6.3895    4.9164   -5.2432 C   0  0  0  0  0  0  0  0  0  0  0  0
   -4.7726    4.3595   -4.8288 S   0  0  0  0  0  0  0  0  0  0  0  0
   -5.3646    3.6021   -3.3955 C   0  0  0  0  0  0  0  0  0  0  0  0
   -4.8336    2.8645   -2.3300 C   0  0  0  0  0  0  0  0  0  0  0  0
   -3.6086    2.4176   -1.9088 N   0  0  0  0  0  0  0  0  0  0  0  0
   -3.7859    1.7697   -0.7002 C   0  0  0  0  0  0  0  0  0  0  0  0
   -2.8898    1.1045    0.1765 C   0  0  0  0  0  0  0  0  0  0  0  0
   -1.5560    0.7317    0.0586 N   0  0  0  0  0  0  0  0  0  0  0  0
   -1.1754    0.1893    1.2602 C   0  0  0  0  0  0  0  0  0  0  0  0
   -0.0285   -0.3890    1.8219 C   0  0  0  0  0  0  0  0  0  0  0  0
    1.5797   -0.7394    1.3012 S   0  0  0  0  0  0  0  0  0  0  0  0
   -0.8313    0.3362   -1.1307 C   0  0  0  0  0  0  0  0  0  0  0  0
   -1.4819   -0.8809   -1.7842 C   0  0  0  0  0  0  0  0  0  0  0  0
   -2.4075    2.9435   -2.5152 C   0  0  0  0  0  0  0  0  0  0  0  0
   -2.0631    2.2355   -3.8246 C   0  0  0  0  0  0  0  0  0  0  0  0
   -6.5735    5.5846   -6.5041 C   0  0  0  0  0  0  0  0  0  0  0  0
   -5.5170    6.2976   -7.0903 C   0  0  0  0  0  0  0  0  0  0  0  0
   -5.6788    6.9279   -8.2967 C   0  0  0  0  0  0  0  0  0  0  0  0
   -6.8913    6.8446   -9.0082 C   0  0  0  0  0  0  0  0  0  0  0  0
   -7.9441    6.1251   -8.4205 C   0  0  0  0  0  0  0  0  0  0  0  0
   -7.7880    5.5130   -7.2009 C   0  0  0  0  0  0  0  0  0  0  0  0
   -6.9721    7.5458  -10.2522 C   0  0  0  0  0  0  0  0  0  0  0  0
   -7.8072    7.4208  -11.3232 C   0  0  0  0  0  0  0  0  0  0  0  0
   -8.7669    6.3390  -11.6450 C   0  0  0  0  0  0  0  0  0  0  0  0
   -9.2180    5.4794  -10.9250 O   0  0  0  0  0  0  0  0  0  0  0  0
   -9.0374    6.4780  -13.0987 C   0  0  0  0  0  0  0  0  0  0  0  0
   -9.7572    5.6281  -13.9210 C   0  0  0  0  0  0  0  0  0  0  0  0
  -10.6061    4.2865  -13.2968 Cl  0  0  0  0  0  0  0  0  0  0  0  0
   -9.7671    5.8906  -15.2986 C   0  0  0  0  0  0  0  0  0  0  0  0
  -10.6667    4.8871  -16.3504 Cl  0  0  0  0  0  0  0  0  0  0  0  0
   -9.0118    6.9413  -15.8176 C   0  0  0  0  0  0  0  0  0  0  0  0
   -8.9616    7.1800  -17.5103 Cl  0  0  0  0  0  0  0  0  0  0  0  0
   -8.2809    7.7975  -14.9785 C   0  0  0  0  0  0  0  0  0  0  0  0
   -7.2434    8.9587  -15.6970 Cl  0  0  0  0  0  0  0  0  0  0  0  0
   -8.3528    7.6001  -13.6052 C   0  0  0  0  0  0  0  0  0  0  0  0
   -7.7620    8.3118  -12.4786 C   0  0  0  0  0  0  0  0  0  0  0  0
   -7.4483    9.6418  -12.4183 C   0  0  0  0  0  0  0  0  0  0  0  0
   -6.9501   10.2840  -11.2606 C   0  0  0  0  0  0  0  0  0  0  0  0
   -6.5444   10.8822  -10.3690 N   0  0  0  0  0  0  0  0  0  0  0  0
   -7.7310   10.6079  -13.4092 C   0  0  0  0  0  0  0  0  0  0  0  0
   -8.0015   11.4803  -14.1033 N   0  0  0  0  0  0  0  0  0  0  0  0
    8.0255   -6.3009    4.1793 H   0  0  0  0  0  0  0  0  0  0  0  0
    8.4138   -4.5907    1.5736 H   0  0  0  0  0  0  0  0  0  0  0  0
   10.5751   -5.2940    0.6897 H   0  0  0  0  0  0  0  0  0  0  0  0
   13.7439   -3.3713    1.1569 H   0  0  0  0  0  0  0  0  0  0  0  0
   13.1060   -5.0101    0.9517 H   0  0  0  0  0  0  0  0  0  0  0  0
   12.9513   -3.8354   -0.3495 H   0  0  0  0  0  0  0  0  0  0  0  0
   12.3072   -1.6064    1.9467 H   0  0  0  0  0  0  0  0  0  0  0  0
   10.1673   -0.9280    2.9159 H   0  0  0  0  0  0  0  0  0  0  0  0
    7.0389   -0.7934    4.9234 H   0  0  0  0  0  0  0  0  0  0  0  0
    6.5783    1.6107    4.8364 H   0  0  0  0  0  0  0  0  0  0  0  0
    5.7161    3.4354    2.6902 H   0  0  0  0  0  0  0  0  0  0  0  0
    7.1713    3.7880    3.6148 H   0  0  0  0  0  0  0  0  0  0  0  0
    7.2332    3.7518    1.8456 H   0  0  0  0  0  0  0  0  0  0  0  0
    7.7052    1.6875    0.7213 H   0  0  0  0  0  0  0  0  0  0  0  0
    8.1809   -0.7212    0.8064 H   0  0  0  0  0  0  0  0  0  0  0  0
    3.5336   -4.0154    6.0737 H   0  0  0  0  0  0  0  0  0  0  0  0
    3.8111   -5.7062    7.8178 H   0  0  0  0  0  0  0  0  0  0  0  0
    2.8861   -7.8146    8.8274 H   0  0  0  0  0  0  0  0  0  0  0  0
    2.1529   -9.0353    7.7747 H   0  0  0  0  0  0  0  0  0  0  0  0
    3.8913   -8.7456    7.7221 H   0  0  0  0  0  0  0  0  0  0  0  0
    1.6112   -8.5061    5.4686 H   0  0  0  0  0  0  0  0  0  0  0  0
    1.3511   -6.8224    3.7031 H   0  0  0  0  0  0  0  0  0  0  0  0
    1.9849   -3.8358    1.1542 H   0  0  0  0  0  0  0  0  0  0  0  0
   -0.1320   -3.5042   -0.0234 H   0  0  0  0  0  0  0  0  0  0  0  0
   -3.4546   -4.2325    1.4015 H   0  0  0  0  0  0  0  0  0  0  0  0
   -2.9457   -2.5687    1.1411 H   0  0  0  0  0  0  0  0  0  0  0  0
   -2.5802   -3.7990   -0.0737 H   0  0  0  0  0  0  0  0  0  0  0  0
   -2.2715   -4.3971    3.5561 H   0  0  0  0  0  0  0  0  0  0  0  0
   -0.1458   -4.7290    4.7429 H   0  0  0  0  0  0  0  0  0  0  0  0
    3.0433   -1.1279    5.3822 H   0  0  0  0  0  0  0  0  0  0  0  0
    3.1813   -1.7723    7.7456 H   0  0  0  0  0  0  0  0  0  0  0  0
    1.2172   -2.7166    8.8934 H   0  0  0  0  0  0  0  0  0  0  0  0
   -1.8610   -3.7221    7.1961 H   0  0  0  0  0  0  0  0  0  0  0  0
   -0.9939   -3.6975    8.7389 H   0  0  0  0  0  0  0  0  0  0  0  0
   -1.5903   -1.2906    9.0277 H   0  0  0  0  0  0  0  0  0  0  0  0
   -2.4445   -1.3141    7.4846 H   0  0  0  0  0  0  0  0  0  0  0  0
   -3.0408   -2.2815    8.8382 H   0  0  0  0  0  0  0  0  0  0  0  0
   -1.0516   -2.3455    5.3059 H   0  0  0  0  0  0  0  0  0  0  0  0
   -8.2818    7.0322   -4.7281 H   0  0  0  0  0  0  0  0  0  0  0  0
  -10.6277    7.7625   -4.5625 H   0  0  0  0  0  0  0  0  0  0  0  0
  -12.3894    6.1467   -3.9740 H   0  0  0  0  0  0  0  0  0  0  0  0
  -11.7142    2.7042   -2.8451 H   0  0  0  0  0  0  0  0  0  0  0  0
  -12.9313    3.9852   -2.9393 H   0  0  0  0  0  0  0  0  0  0  0  0
  -13.0974    3.6421   -5.4071 H   0  0  0  0  0  0  0  0  0  0  0  0
  -11.8885    2.3620   -5.3119 H   0  0  0  0  0  0  0  0  0  0  0  0
  -13.4587    2.1514   -4.5304 H   0  0  0  0  0  0  0  0  0  0  0  0
   -9.4681    3.0509   -3.7269 H   0  0  0  0  0  0  0  0  0  0  0  0
   -0.7571    1.1540   -1.8420 H   0  0  0  0  0  0  0  0  0  0  0  0
    0.1817    0.0832   -0.8079 H   0  0  0  0  0  0  0  0  0  0  0  0
   -0.9126   -1.1835   -2.6592 H   0  0  0  0  0  0  0  0  0  0  0  0
   -1.5091   -1.7091   -1.0806 H   0  0  0  0  0  0  0  0  0  0  0  0
   -2.5030   -0.6549   -2.0857 H   0  0  0  0  0  0  0  0  0  0  0  0
   -1.5951    2.8897   -1.7896 H   0  0  0  0  0  0  0  0  0  0  0  0
   -2.5836    4.0039   -2.7302 H   0  0  0  0  0  0  0  0  0  0  0  0
   -1.1163    2.6076   -4.2064 H   0  0  0  0  0  0  0  0  0  0  0  0
   -1.9926    1.1600   -3.6898 H   0  0  0  0  0  0  0  0  0  0  0  0
   -2.8322    2.4345   -4.5661 H   0  0  0  0  0  0  0  0  0  0  0  0
   -4.5725    6.3636   -6.5689 H   0  0  0  0  0  0  0  0  0  0  0  0
   -4.8569    7.4878   -8.7192 H   0  0  0  0  0  0  0  0  0  0  0  0
   -8.8904    6.0508   -8.9265 H   0  0  0  0  0  0  0  0  0  0  0  0
   -8.6083    4.9537   -6.7800 H   0  0  0  0  0  0  0  0  0  0  0  0
   -6.1844    8.2831  -10.3704 H   0  0  0  0  0  0  0  0  0  0  0  0
  1  2  2  0  0  0  0
  2  3  1  0  0  0  0
  3  4  2  0  0  0  0
  3  5  1  0  0  0  0
  5  6  2  0  0  0  0
  6  7  1  0  0  0  0
  6  8  1  0  0  0  0
  8  9  1  0  0  0  0
  8 10  2  0  0  0  0
 10 11  1  0  0  0  0
 10 12  1  0  0  0  0
 12 13  1  0  0  0  0
 12 14  2  0  0  0  0
 14 15  1  0  0  0  0
 15 16  2  0  0  0  0
 16 17  1  0  0  0  0
 17 18  3  0  0  0  0
 16 19  1  0  0  0  0
 19 20  3  0  0  0  0
  1 21  1  0  0  0  0
 21 22  2  0  0  0  0
 22 23  1  0  0  0  0
 23 24  1  0  0  0  0
 24 25  2  0  0  0  0
 25 26  1  0  0  0  0
 26 27  2  0  0  0  0
 27 28  1  0  0  0  0
 27 29  1  0  0  0  0
 29 30  2  0  0  0  0
 23 31  1  0  0  0  0
 31 32  2  0  0  0  0
 32 33  1  0  0  0  0
 33 34  2  0  0  0  0
 34 35  1  0  0  0  0
 34 36  1  0  0  0  0
 36 37  2  0  0  0  0
 22 38  1  0  0  0  0
 38 39  1  0  0  0  0
 39 40  1  0  0  0  0
 40 41  2  0  0  0  0
 41 42  1  0  0  0  0
 42 43  1  0  0  0  0
 43 44  2  0  0  0  0
 44 45  1  0  0  0  0
 45 46  2  0  0  0  0
 46 47  1  0  0  0  0
 46 48  1  0  0  0  0
 48 49  2  0  0  0  0
 42 50  1  0  0  0  0
 50 51  2  0  0  0  0
 51 52  1  0  0  0  0
 52 53  2  0  0  0  0
 53 54  1  0  0  0  0
 53 55  1  0  0  0  0
 55 56  2  0  0  0  0
 41 57  1  0  0  0  0
 57 58  1  0  0  0  0
 40 59  1  0  0  0  0
 59 60  2  0  0  0  0
 60 61  1  0  0  0  0
 61 62  2  0  0  0  0
 62 63  1  0  0  0  0
 63 64  2  0  0  0  0
 64 65  1  0  0  0  0
 65 66  1  0  0  0  0
 66 67  1  0  0  0  0
 65 68  2  0  0  0  0
 60 69  1  0  0  0  0
 69 70  1  0  0  0  0
 70 71  1  0  0  0  0
 71 72  1  0  0  0  0
 72 73  1  0  0  0  0
 73 74  1  0  0  0  0
 74 75  2  0  0  0  0
 75 76  1  0  0  0  0
 76 77  1  0  0  0  0
 74 78  1  0  0  0  0
 78 79  1  0  0  0  0
 79 80  1  0  0  0  0
 80 81  1  0  0  0  0
 81 82  1  0  0  0  0
 82 83  1  0  0  0  0
 83 84  2  0  0  0  0
 84 85  1  0  0  0  0
 85 86  2  0  0  0  0
 86 87  1  0  0  0  0
 87 88  1  0  0  0  0
 88 89  1  0  0  0  0
 87 90  2  0  0  0  0
 82 91  2  0  0  0  0
 91 92  1  0  0  0  0
 92 93  1  0  0  0  0
 93 94  1  0  0  0  0
 94 95  1  0  0  0  0
 95 96  1  0  0  0  0
 96 97  1  0  0  0  0
 97 98  1  0  0  0  0
 98 99  1  0  0  0  0
 99100  1  0  0  0  0
100101  1  0  0  0  0
 98102  1  0  0  0  0
102103  1  0  0  0  0
 95104  1  0  0  0  0
104105  1  0  0  0  0
 91106  1  0  0  0  0
106107  2  0  0  0  0
107108  1  0  0  0  0
108109  2  0  0  0  0
109110  1  0  0  0  0
110111  2  0  0  0  0
109112  1  0  0  0  0
112113  2  0  0  0  0
113114  1  0  0  0  0
114115  2  0  0  0  0
114116  1  0  0  0  0
116117  2  0  0  0  0
117118  1  0  0  0  0
117119  1  0  0  0  0
119120  1  0  0  0  0
119121  2  0  0  0  0
121122  1  0  0  0  0
121123  1  0  0  0  0
123124  1  0  0  0  0
123125  2  0  0  0  0
125126  1  0  0  0  0
126127  2  0  0  0  0
127128  1  0  0  0  0
128129  3  0  0  0  0
127130  1  0  0  0  0
130131  3  0  0  0  0
 15  2  1  0  0  0  0
 58 21  1  0  0  0  0
101 59  1  0  0  0  0
111106  1  0  0  0  0
126113  1  0  0  0  0
 14  5  1  0  0  0  0
 30 24  1  0  0  0  0
 37 31  1  0  0  0  0
 57 38  2  0  0  0  0
 68 61  1  0  0  0  0
100 69  2  0  0  0  0
125116  1  0  0  0  0
 49 43  1  0  0  0  0
 56 50  1  0  0  0  0
 99 71  2  0  0  0  0
 97 72  2  0  0  0  0
 77 73  2  0  0  0  0
 96 78  2  0  0  0  0
 94 79  2  0  0  0  0
 93 81  2  0  0  0  0
 90 83  1  0  0  0  0
  1132  1  0  0  0  0
 25133  1  0  0  0  0
 26134  1  0  0  0  0
 28135  1  0  0  0  0
 28136  1  0  0  0  0
 28137  1  0  0  0  0
 29138  1  0  0  0  0
 30139  1  0  0  0  0
 32140  1  0  0  0  0
 33141  1  0  0  0  0
 35142  1  0  0  0  0
 35143  1  0  0  0  0
 35144  1  0  0  0  0
 36145  1  0  0  0  0
 37146  1  0  0  0  0
 44147  1  0  0  0  0
 45148  1  0  0  0  0
 47149  1  0  0  0  0
 47150  1  0  0  0  0
 47151  1  0  0  0  0
 48152  1  0  0  0  0
 49153  1  0  0  0  0
 51154  1  0  0  0  0
 52155  1  0  0  0  0
 54156  1  0  0  0  0
 54157  1  0  0  0  0
 54158  1  0  0  0  0
 55159  1  0  0  0  0
 56160  1  0  0  0  0
 62161  1  0  0  0  0
 63162  1  0  0  0  0
 64163  1  0  0  0  0
 66164  1  0  0  0  0
 66165  1  0  0  0  0
 67166  1  0  0  0  0
 67167  1  0  0  0  0
 67168  1  0  0  0  0
 68169  1  0  0  0  0
 84170  1  0  0  0  0
 85171  1  0  0  0  0
 86172  1  0  0  0  0
 88173  1  0  0  0  0
 88174  1  0  0  0  0
 89175  1  0  0  0  0
 89176  1  0  0  0  0
 89177  1  0  0  0  0
 90178  1  0  0  0  0
102179  1  0  0  0  0
102180  1  0  0  0  0
103181  1  0  0  0  0
103182  1  0  0  0  0
103183  1  0  0  0  0
104184  1  0  0  0  0
104185  1  0  0  0  0
105186  1  0  0  0  0
105187  1  0  0  0  0
105188  1  0  0  0  0
107189  1  0  0  0  0
108190  1  0  0  0  0
110191  1  0  0  0  0
111192  1  0  0  0  0
112193  1  0  0  0  0
M  END
