249

C          6.11820       -3.14970       -0.03710
C          6.11930       -2.00150        0.73000
C          6.10780       -0.62380        0.24800
O          6.46010       -0.20800       -0.83900
C          5.58210        0.18840        1.37260
C          5.18460        1.51190        1.36760
Cl         5.46690        2.51240        0.01460
C          4.51890        2.00790        2.49760
Cl         3.98630        3.63330        2.53790
C          4.23780        1.16150        3.56680
Cl         3.34640        1.76680        4.88890
C          4.65360       -0.18010        3.57030
Cl         4.11700       -1.19340        4.84790
C          5.38450       -0.64920        2.48870
C          5.95980       -1.95760        2.16920
C          6.45270       -2.87260        3.06210
C          6.55630       -2.69120        4.45720
N          6.75760       -2.60750        5.58410
C          7.13470       -4.04760        2.68080
N          7.72770       -5.00570        2.46000
C          5.93530       -3.27170       -1.41300
C          5.42760       -4.45670       -2.01880
N          5.34450       -5.68470       -1.42190
C          4.21520       -6.48290       -1.69740
C          2.94360       -5.91740       -1.63450
C          1.83090       -6.68180       -1.91880
C          1.95320       -8.02380       -2.26120
C          0.73860       -8.83450       -2.59150
C          3.22490       -8.58190       -2.30590
C          4.34780       -7.82590       -2.03100
C          6.40050       -6.22220       -0.66360
C          7.72220       -5.91610       -0.97430
C          8.74930       -6.47390       -0.24110
C          8.49160       -7.35190        0.80470
C          9.60610       -7.91690        1.62420
C          7.16830       -7.65800        1.09970
C          6.13040       -7.10020        0.38220
C          4.89200       -4.17040       -3.28340
S          3.88350       -5.03190       -4.40690
C          3.63000       -3.56350       -5.34170
C          4.42130       -2.51850       -4.89640
N          4.42760       -1.22070       -5.42580
C          5.27410       -0.93320       -6.49770
C          5.14100        0.25780       -7.20740
C          5.98270        0.53700       -8.26470
C          6.96140       -0.36170       -8.66590
C          7.86530       -0.06930       -9.82470
C          7.07580       -1.55690       -7.96770
C          6.25390       -1.84060       -6.89690
C          3.94770       -0.22150       -4.55710
C          4.65910        0.94820       -4.30060
C          4.13530        1.90770       -3.45970
C          2.90300        1.73100       -2.83870
C          2.33210        2.80760       -1.96700
C          2.22220        0.54290       -3.06230
C          2.73230       -0.42310       -3.90870
C          5.10370       -2.86290       -3.70670
S          5.93180       -1.90690       -2.53970
C          2.38480       -3.43140       -6.04140
C          1.97590       -2.65890       -7.10900
C          2.81650       -2.18660       -8.21010
C          2.59160       -0.89830       -8.69230
C          3.28310       -0.41240       -9.78170
C          4.22570       -1.21360      -10.39850
C          4.46440       -2.48820       -9.92000
C          3.77110       -3.00510       -8.83390
C          4.01990       -4.41360       -8.36190
C          4.58300       -5.35920       -9.41830
C          0.58300       -2.38900       -7.02620
S         -0.48840       -1.31930       -7.91220
C         -1.70180       -1.53190       -6.68940
C         -2.84190       -0.86380       -6.20160
C         -3.48020        0.32570       -6.62340
C         -4.26840        1.06940       -5.67370
N         -4.69610        2.21980       -6.16750
S         -4.17250        2.35400       -7.69380
N         -3.36370        0.95450       -7.78110
C         -4.47940        0.53090       -4.38490
C         -4.98500        1.06780       -3.18270
S         -5.43490        2.60450       -2.51970
C         -5.44120        1.90450       -0.91240
C         -5.44220        2.46950        0.38670
C         -5.54440        3.90170        0.70960
C         -6.60390        4.71550        0.29140
C         -7.72830        4.21920       -0.57390
C         -8.60450        3.17580        0.11220
C         -6.60670        6.04770        0.68890
C         -5.58860        6.58730        1.45190
C         -4.52180        5.78960        1.82690
C         -4.50840        4.45860        1.45840
C         -5.14850        1.51590        1.33890
S         -4.93920       -0.09120        0.65960
C         -5.16320        0.53890       -0.92870
C         -4.91490        0.06010       -2.22040
N         -4.41690       -1.09360       -2.77470
C         -4.06190       -0.79070       -4.08030
C         -3.13490       -1.43410       -4.93360
N         -2.22890       -2.44850       -4.67610
C         -1.33570       -2.46250       -5.71540
C         -0.04420       -2.95980       -5.92040
S          1.03780       -3.94250       -5.00950
C         -1.83670       -3.02830       -3.41040
C         -1.17880       -1.99660       -2.49740
C         -4.80540       -2.39230       -2.26520
C         -6.29940       -2.44820       -1.94900
C         -4.75760        1.71280        2.71260
C         -5.44340        2.21530        3.79980
N         -6.80350        2.45980        3.86760
C         -7.73710        1.57200        3.32520
C         -7.40710        0.25270        3.02280
C         -8.34540       -0.59550        2.46710
C         -9.64300       -0.17190        2.21770
C        -10.65620       -1.08420        1.59650
C         -9.97800        1.13420        2.55580
C         -9.04580        1.99630        3.09450
C         -7.21930        3.50480        4.72020
C         -6.62710        4.75730        4.60070
C         -7.00090        5.78430        5.44580
C         -7.96990        5.59170        6.42140
C         -8.36190        6.69640        7.35360
C         -8.55640        4.33520        6.53190
C         -8.18770        3.29890        5.69880
C         -4.57010        2.38810        4.90640
S         -4.80470        2.95780        6.51530
C         -3.09550        2.67690        6.88960
C         -2.41800        2.04480        5.81810
N         -1.18470        1.47430        5.87420
C         -0.62460        1.00850        7.07590
C         -1.39490        0.34120        8.02700
C         -0.81000       -0.12740        9.18440
C          0.54960        0.05290        9.43480
C          1.16400       -0.45990       10.69730
C          1.30990        0.71340        8.47880
C          0.73670        1.18400        7.31240
C         -0.44490        1.24970        4.69100
C          0.15460        0.01220        4.47910
C          0.87780       -0.21490        3.32520
C          1.02260        0.77720        2.36270
C          1.75980        0.50420        1.08780
C          0.44240        2.01840        2.59890
C         -0.28450        2.26000        3.74830
C         -3.26840        1.95880        4.69070
S         -3.07650        1.32920        3.09210
C         -2.65590        3.09820        8.14060
C         -1.34720        3.37210        8.49830
C         -0.31360        3.75890        7.54020
O         -0.43000        3.89730        6.33770
C          0.87500        4.10800        8.35760
C          2.10830        4.56180        7.93380
Cl         2.50040        4.64700        6.27490
C          3.04500        4.94580        8.90350
Cl         4.60410        5.46510        8.42680
C          2.69190        4.94070       10.25010
Cl         3.81230        5.51150       11.41180
C          1.43070        4.48730       10.67270
Cl         1.01400        4.66990       12.32700
C          0.54520        3.99950        9.72280
C         -0.79020        3.40840        9.82100
C         -1.32990        2.74190       10.89550
C         -2.59840        2.12520       10.85520
N         -3.61490        1.59230       10.90040
C         -0.66730        2.38060       12.08250
N         -0.19630        1.93170       13.02970
H          6.09010       -4.08720        0.50800
H          2.83650       -4.87680       -1.36260
H          0.85060       -6.23030       -1.87210
H          0.38680       -8.58380       -3.59250
H          0.95980       -9.89820       -2.56440
H         -0.06810       -8.62350       -1.89230
H          3.34130       -9.62290       -2.56910
H          5.33130       -8.26870       -2.07880
H          7.93730       -5.24370       -1.79190
H          9.77040       -6.22430       -0.48850
H          9.35830       -8.91020        1.99120
H         10.52900       -7.96690        1.05130
H          9.77420       -7.27030        2.48540
H          6.94650       -8.33120        1.91420
H          5.10550       -7.33530        0.63040
H          4.37300        0.96230       -6.92730
H          5.86710        1.47140       -8.79490
H          7.67720       -0.77180      -10.63670
H          8.90980       -0.17200       -9.53250
H          7.70530        0.93950      -10.19710
H          7.83010       -2.27370       -8.26010
H          6.38040       -2.76750       -6.35620
H          5.62550        1.09630       -4.75720
H          4.69650        2.81190       -3.27430
H          3.01170        3.03920       -1.14820
H          1.37060        2.50930       -1.55570
H          2.19170        3.72070       -2.54440
H          1.27050        0.37470       -2.57660
H          2.18430       -1.33910       -4.07830
H          1.87480       -0.26580       -8.19190
H          3.08890        0.58580      -10.14280
H          4.77670       -0.84800      -11.25190
H          5.20710       -3.09460      -10.41280
H          3.08060       -4.83090       -7.98870
H          4.71300       -4.38100       -7.51520
H          3.97830       -5.32940      -10.32180
H          5.60890       -5.10610       -9.67300
H          4.57710       -6.37690       -9.03370
H         -7.32070        3.79750       -1.49360
H         -8.35170        5.06990       -0.85720
H         -9.07160        3.60130        0.99580
H         -8.02250        2.31040        0.41830
H         -9.38740        2.84050       -0.56420
H         -7.42840        6.67950        0.38310
H         -5.62220        7.62660        1.74260
H         -3.70460        6.19820        2.40280
H         -3.66660        3.84070        1.73350
H         -1.11870       -3.81960       -3.64120
H         -2.68550       -3.49190       -2.91290
H         -0.31310       -1.56270       -2.99250
H         -1.87410       -1.19810       -2.25090
H         -0.85180       -2.47300       -1.57710
H         -4.59320       -3.13320       -3.03700
H         -4.23250       -2.61650       -1.35820
H         -6.55130       -1.77900       -1.13120
H         -6.56940       -3.46060       -1.66080
H         -6.88140       -2.16690       -2.82400
H         -6.41920       -0.12380        3.24040
H         -8.05960       -1.61180        2.23530
H        -11.61640       -0.99270        2.10020
H        -10.80400       -0.82260        0.54810
H        -10.33000       -2.12010        1.64680
H        -10.98540        1.48550        2.38540
H         -9.32690        3.00850        3.34310
H         -5.87700        4.91900        3.84110
H         -6.53180        6.75160        5.34010
H         -8.05310        7.66310        6.96400
H         -7.88460        6.55100        8.32310
H         -9.43850        6.70590        7.51090
H         -9.30600        4.16390        7.29080
H         -8.64150        2.32460        5.80510
H         -2.44800        0.17900        7.85270
H         -1.41780       -0.64990        9.90840
H          0.89010        0.17710       11.53870
H          2.24800       -0.47850       10.62220
H          0.80580       -1.46360       10.91670
H          2.36700        0.86190        8.64330
H          1.34000        1.68510        6.57280
H          0.04760       -0.76790        5.21850
H          1.33520       -1.18100        3.16810
H          1.05710        0.17570        0.32120
H          2.50190       -0.28000        1.22170
H          2.25620        1.39840        0.72200
H          0.56830        2.81030        1.87510
H         -0.70410        3.23360        3.94610
H         -3.43460        3.27950        8.87100
