
  xtb     02092202133D
 energy: -437.339011506901 gnorm: 0.000702834491 xtb: 6.4.1 (unknown)
262290  0     0  0            999 V2000
   -4.5058    8.7139    9.1242 C   0  0  0  0  0  0  0  0  0  0  0  0
   -4.6809   10.0457    9.4370 C   0  0  0  0  0  0  0  0  0  0  0  0
   -5.0903   10.3985   10.8012 C   0  0  0  0  0  0  0  0  0  0  0  0
   -5.1556    9.6712   11.7670 O   0  0  0  0  0  0  0  0  0  0  0  0
   -5.4765   11.8308   10.7231 C   0  0  0  0  0  0  0  0  0  0  0  0
   -6.0781   12.6007   11.7000 C   0  0  0  0  0  0  0  0  0  0  0  0
   -6.4144   11.9667   13.2493 Cl  0  0  0  0  0  0  0  0  0  0  0  0
   -6.4303   13.9197   11.3869 C   0  0  0  0  0  0  0  0  0  0  0  0
   -7.1946   14.9047   12.5583 Cl  0  0  0  0  0  0  0  0  0  0  0  0
   -6.1792   14.4163   10.1122 C   0  0  0  0  0  0  0  0  0  0  0  0
   -6.6611   16.0152    9.7321 Cl  0  0  0  0  0  0  0  0  0  0  0  0
   -5.5641   13.6292    9.1253 C   0  0  0  0  0  0  0  0  0  0  0  0
   -5.3855   14.3144    7.5630 Cl  0  0  0  0  0  0  0  0  0  0  0  0
   -5.1993   12.3255    9.4321 C   0  0  0  0  0  0  0  0  0  0  0  0
   -4.5747   11.2472    8.6553 C   0  0  0  0  0  0  0  0  0  0  0  0
   -3.7679   11.3266    7.5406 C   0  0  0  0  0  0  0  0  0  0  0  0
   -2.9497   10.2441    7.1570 C   0  0  0  0  0  0  0  0  0  0  0  0
   -2.2232    9.4204    6.8179 N   0  0  0  0  0  0  0  0  0  0  0  0
   -3.4800   12.4008    6.6786 C   0  0  0  0  0  0  0  0  0  0  0  0
   -3.1391   13.1453    5.8720 N   0  0  0  0  0  0  0  0  0  0  0  0
   -4.5760    8.0376    7.9073 C   0  0  0  0  0  0  0  0  0  0  0  0
   -5.1004    8.3871    6.6404 C   0  0  0  0  0  0  0  0  0  0  0  0
   -5.8613    9.4872    6.3423 N   0  0  0  0  0  0  0  0  0  0  0  0
   -6.7470   10.0815    7.2536 C   0  0  0  0  0  0  0  0  0  0  0  0
   -7.3203    9.3628    8.3015 C   0  0  0  0  0  0  0  0  0  0  0  0
   -8.1537    9.9912    9.2039 C   0  0  0  0  0  0  0  0  0  0  0  0
   -8.4692   11.3402    9.0786 C   0  0  0  0  0  0  0  0  0  0  0  0
   -9.3562   12.0124   10.0780 C   0  0  0  0  0  0  0  0  0  0  0  0
   -7.9509   12.0335    7.9925 C   0  0  0  0  0  0  0  0  0  0  0  0
   -7.0918   11.4246    7.1000 C   0  0  0  0  0  0  0  0  0  0  0  0
   -5.9215    9.9280    4.9942 C   0  0  0  0  0  0  0  0  0  0  0  0
   -7.1525   10.1339    4.3809 C   0  0  0  0  0  0  0  0  0  0  0  0
   -7.2105   10.6463    3.1001 C   0  0  0  0  0  0  0  0  0  0  0  0
   -6.0520   10.9608    2.4009 C   0  0  0  0  0  0  0  0  0  0  0  0
   -6.1113   11.5872    1.0420 C   0  0  0  0  0  0  0  0  0  0  0  0
   -4.8263   10.7098    3.0075 C   0  0  0  0  0  0  0  0  0  0  0  0
   -4.7540   10.1983    4.2875 C   0  0  0  0  0  0  0  0  0  0  0  0
   -4.8048    7.3871    5.6928 C   0  0  0  0  0  0  0  0  0  0  0  0
   -5.1656    7.1861    4.0100 S   0  0  0  0  0  0  0  0  0  0  0  0
   -4.3672    5.6188    4.0016 C   0  0  0  0  0  0  0  0  0  0  0  0
   -3.9053    5.2526    5.2628 C   0  0  0  0  0  0  0  0  0  0  0  0
   -3.3047    4.0483    5.5967 N   0  0  0  0  0  0  0  0  0  0  0  0
   -2.2680    4.0918    6.5479 C   0  0  0  0  0  0  0  0  0  0  0  0
   -2.2003    3.1667    7.5844 C   0  0  0  0  0  0  0  0  0  0  0  0
   -1.1862    3.2484    8.5186 C   0  0  0  0  0  0  0  0  0  0  0  0
   -0.2279    4.2521    8.4545 C   0  0  0  0  0  0  0  0  0  0  0  0
    0.8507    4.3613    9.4879 C   0  0  0  0  0  0  0  0  0  0  0  0
   -0.3060    5.1742    7.4170 C   0  0  0  0  0  0  0  0  0  0  0  0
   -1.3064    5.0967    6.4702 C   0  0  0  0  0  0  0  0  0  0  0  0
   -3.8222    2.8312    5.1477 C   0  0  0  0  0  0  0  0  0  0  0  0
   -5.1683    2.7033    4.8055 C   0  0  0  0  0  0  0  0  0  0  0  0
   -5.6515    1.5089    4.3136 C   0  0  0  0  0  0  0  0  0  0  0  0
   -4.8229    0.4019    4.1638 C   0  0  0  0  0  0  0  0  0  0  0  0
   -5.3650   -0.8833    3.6169 C   0  0  0  0  0  0  0  0  0  0  0  0
   -3.4894    0.5284    4.5295 C   0  0  0  0  0  0  0  0  0  0  0  0
   -2.9878    1.7235    5.0061 C   0  0  0  0  0  0  0  0  0  0  0  0
   -4.1482    6.2751    6.2049 C   0  0  0  0  0  0  0  0  0  0  0  0
   -3.8698    6.4150    7.8968 S   0  0  0  0  0  0  0  0  0  0  0  0
   -4.2204    4.9323    2.7661 C   0  0  0  0  0  0  0  0  0  0  0  0
   -4.9642    5.1277    1.6161 C   0  0  0  0  0  0  0  0  0  0  0  0
   -6.1675    5.9757    1.5532 C   0  0  0  0  0  0  0  0  0  0  0  0
   -7.3463    5.4876    2.1091 C   0  0  0  0  0  0  0  0  0  0  0  0
   -8.5020    6.2419    2.0754 C   0  0  0  0  0  0  0  0  0  0  0  0
   -8.4844    7.4928    1.4816 C   0  0  0  0  0  0  0  0  0  0  0  0
   -7.3153    7.9777    0.9284 C   0  0  0  0  0  0  0  0  0  0  0  0
   -6.1422    7.2348    0.9542 C   0  0  0  0  0  0  0  0  0  0  0  0
   -4.8822    7.8043    0.3668 C   0  0  0  0  0  0  0  0  0  0  0  0
   -4.9775    7.9412   -1.1526 C   0  0  0  0  0  0  0  0  0  0  0  0
   -4.4812    4.3575    0.5481 C   0  0  0  0  0  0  0  0  0  0  0  0
   -5.0015    4.1802   -1.1105 S   0  0  0  0  0  0  0  0  0  0  0  0
   -3.7120    3.0531   -1.3643 C   0  0  0  0  0  0  0  0  0  0  0  0
   -3.1492    2.2974   -2.4023 C   0  0  0  0  0  0  0  0  0  0  0  0
   -3.4635    2.2681   -3.7773 C   0  0  0  0  0  0  0  0  0  0  0  0
   -2.6364    1.4973   -4.6563 C   0  0  0  0  0  0  0  0  0  0  0  0
   -3.0114    1.5952   -5.9221 N   0  0  0  0  0  0  0  0  0  0  0  0
   -4.2995    2.5743   -5.9988 S   0  0  0  0  0  0  0  0  0  0  0  0
   -4.4267    2.9111   -4.4190 N   0  0  0  0  0  0  0  0  0  0  0  0
   -1.5960    0.7216   -4.1026 C   0  0  0  0  0  0  0  0  0  0  0  0
   -0.7213   -0.1860   -4.7166 C   0  0  0  0  0  0  0  0  0  0  0  0
   -0.3273   -0.7681   -6.3007 S   0  0  0  0  0  0  0  0  0  0  0  0
    0.8432   -1.8494   -5.5779 C   0  0  0  0  0  0  0  0  0  0  0  0
    1.7386   -2.7783   -6.1289 C   0  0  0  0  0  0  0  0  0  0  0  0
    1.8815   -2.9948   -7.5778 C   0  0  0  0  0  0  0  0  0  0  0  0
    0.9063   -3.6778   -8.3080 C   0  0  0  0  0  0  0  0  0  0  0  0
   -0.2939   -4.2885   -7.6411 C   0  0  0  0  0  0  0  0  0  0  0  0
    0.0516   -5.6358   -7.0046 C   0  0  0  0  0  0  0  0  0  0  0  0
    1.0898   -3.8254   -9.6758 C   0  0  0  0  0  0  0  0  0  0  0  0
    2.1955   -3.2963  -10.3144 C   0  0  0  0  0  0  0  0  0  0  0  0
    3.1501   -2.6076   -9.5876 C   0  0  0  0  0  0  0  0  0  0  0  0
    2.9924   -2.4607   -8.2240 C   0  0  0  0  0  0  0  0  0  0  0  0
    2.4873   -3.4125   -5.1490 C   0  0  0  0  0  0  0  0  0  0  0  0
    2.0585   -2.8592   -3.5330 S   0  0  0  0  0  0  0  0  0  0  0  0
    0.9049   -1.7534   -4.1860 C   0  0  0  0  0  0  0  0  0  0  0  0
    0.0227   -0.7819   -3.6975 C   0  0  0  0  0  0  0  0  0  0  0  0
   -0.3413   -0.2610   -2.4873 N   0  0  0  0  0  0  0  0  0  0  0  0
   -1.3242    0.6907   -2.7018 C   0  0  0  0  0  0  0  0  0  0  0  0
   -2.0559    1.5659   -1.8490 C   0  0  0  0  0  0  0  0  0  0  0  0
   -1.9467    1.9215   -0.5152 N   0  0  0  0  0  0  0  0  0  0  0  0
   -2.9437    2.8113   -0.2248 C   0  0  0  0  0  0  0  0  0  0  0  0
   -3.3718    3.5707    0.8710 C   0  0  0  0  0  0  0  0  0  0  0  0
   -2.8962    3.8002    2.5154 S   0  0  0  0  0  0  0  0  0  0  0  0
   -0.9816    1.6140    0.5123 C   0  0  0  0  0  0  0  0  0  0  0  0
   -1.5237    0.5862    1.5062 C   0  0  0  0  0  0  0  0  0  0  0  0
    0.2541   -0.8125   -1.2943 C   0  0  0  0  0  0  0  0  0  0  0  0
    1.6537   -0.2480   -1.0451 C   0  0  0  0  0  0  0  0  0  0  0  0
    3.3946   -4.4906   -5.3181 C   0  0  0  0  0  0  0  0  0  0  0  0
    4.1014   -5.1879   -4.3401 C   0  0  0  0  0  0  0  0  0  0  0  0
    4.1965   -4.8491   -2.9938 N   0  0  0  0  0  0  0  0  0  0  0  0
    4.6562   -3.5993   -2.5792 C   0  0  0  0  0  0  0  0  0  0  0  0
    4.4138   -3.1734   -1.2727 C   0  0  0  0  0  0  0  0  0  0  0  0
    4.8320   -1.9266   -0.8560 C   0  0  0  0  0  0  0  0  0  0  0  0
    5.4850   -1.0585   -1.7222 C   0  0  0  0  0  0  0  0  0  0  0  0
    5.9333    0.2985   -1.2718 C   0  0  0  0  0  0  0  0  0  0  0  0
    5.7246   -1.4886   -3.0220 C   0  0  0  0  0  0  0  0  0  0  0  0
    5.3261   -2.7390   -3.4485 C   0  0  0  0  0  0  0  0  0  0  0  0
    4.1959   -5.9435   -2.1017 C   0  0  0  0  0  0  0  0  0  0  0  0
    3.1799   -6.8892   -2.1988 C   0  0  0  0  0  0  0  0  0  0  0  0
    3.2076   -8.0202   -1.4084 C   0  0  0  0  0  0  0  0  0  0  0  0
    4.2386   -8.2328   -0.5021 C   0  0  0  0  0  0  0  0  0  0  0  0
    4.3048   -9.4979    0.2949 C   0  0  0  0  0  0  0  0  0  0  0  0
    5.2305   -7.2669   -0.3894 C   0  0  0  0  0  0  0  0  0  0  0  0
    5.2181   -6.1346   -1.1787 C   0  0  0  0  0  0  0  0  0  0  0  0
    4.7206   -6.3415   -4.8734 C   0  0  0  0  0  0  0  0  0  0  0  0
    5.5597   -7.6741   -4.1638 S   0  0  0  0  0  0  0  0  0  0  0  0
    5.7483   -8.4159   -5.7558 C   0  0  0  0  0  0  0  0  0  0  0  0
    5.1130   -7.6564   -6.7721 C   0  0  0  0  0  0  0  0  0  0  0  0
    5.0259   -7.9979   -8.0981 N   0  0  0  0  0  0  0  0  0  0  0  0
    5.0700   -6.9743   -9.0630 C   0  0  0  0  0  0  0  0  0  0  0  0
    5.9822   -5.9311   -8.9311 C   0  0  0  0  0  0  0  0  0  0  0  0
    6.0675   -4.9575   -9.9058 C   0  0  0  0  0  0  0  0  0  0  0  0
    5.2588   -4.9992  -11.0342 C   0  0  0  0  0  0  0  0  0  0  0  0
    5.4154   -3.9907  -12.1301 C   0  0  0  0  0  0  0  0  0  0  0  0
    4.3315   -6.0293  -11.1432 C   0  0  0  0  0  0  0  0  0  0  0  0
    4.2303   -7.0048  -10.1725 C   0  0  0  0  0  0  0  0  0  0  0  0
    4.8371   -9.3262   -8.5199 C   0  0  0  0  0  0  0  0  0  0  0  0
    5.4381   -9.7836   -9.6903 C   0  0  0  0  0  0  0  0  0  0  0  0
    5.2598  -11.0923  -10.0910 C   0  0  0  0  0  0  0  0  0  0  0  0
    4.4952  -11.9779   -9.3403 C   0  0  0  0  0  0  0  0  0  0  0  0
    4.3524  -13.4054   -9.7698 C   0  0  0  0  0  0  0  0  0  0  0  0
    3.8832  -11.5059   -8.1850 C   0  0  0  0  0  0  0  0  0  0  0  0
    4.0389  -10.1954   -7.7797 C   0  0  0  0  0  0  0  0  0  0  0  0
    4.5485   -6.4869   -6.2438 C   0  0  0  0  0  0  0  0  0  0  0  0
    3.6096   -5.1949   -6.9206 S   0  0  0  0  0  0  0  0  0  0  0  0
    6.4942   -9.5643   -6.0085 C   0  0  0  0  0  0  0  0  0  0  0  0
    7.0704  -10.4658   -5.1405 C   0  0  0  0  0  0  0  0  0  0  0  0
    6.9330  -10.4815   -3.6837 C   0  0  0  0  0  0  0  0  0  0  0  0
    6.4225   -9.6368   -2.9660 O   0  0  0  0  0  0  0  0  0  0  0  0
    7.5214  -11.7554   -3.2280 C   0  0  0  0  0  0  0  0  0  0  0  0
    7.5936  -12.2263   -1.9196 C   0  0  0  0  0  0  0  0  0  0  0  0
    8.1869  -13.4605   -1.8012 C   0  0  0  0  0  0  0  0  0  0  0  0
    8.6715  -14.1738   -2.9043 C   0  0  0  0  0  0  0  0  0  0  0  0
    8.6103  -13.7180   -4.2005 C   0  0  0  0  0  0  0  0  0  0  0  0
    8.0112  -12.4636   -4.3427 C   0  0  0  0  0  0  0  0  0  0  0  0
    7.7802  -11.6559   -5.5413 C   0  0  0  0  0  0  0  0  0  0  0  0
    8.2000  -11.9815   -6.8096 C   0  0  0  0  0  0  0  0  0  0  0  0
    8.8185  -13.1974   -7.1589 C   0  0  0  0  0  0  0  0  0  0  0  0
    9.3070  -14.1709   -7.5257 N   0  0  0  0  0  0  0  0  0  0  0  0
    8.1112  -11.1470   -7.9397 C   0  0  0  0  0  0  0  0  0  0  0  0
    8.1189  -10.5203   -8.9042 N   0  0  0  0  0  0  0  0  0  0  0  0
    9.1387  -15.3293   -2.0537 C   0  0  0  0  0  0  0  0  0  0  0  0
   10.6536  -15.4111   -1.7722 C   0  0  0  0  0  0  0  0  0  0  0  0
   10.7491  -16.3133   -0.5631 C   0  0  0  0  0  0  0  0  0  0  0  0
   10.2919  -15.6364    0.4825 C   0  0  0  0  0  0  0  0  0  0  0  0
    9.8801  -14.2651   -0.0024 C   0  0  0  0  0  0  0  0  0  0  0  0
   10.9200  -14.0531   -1.1100 C   0  0  0  0  0  0  0  0  0  0  0  0
    8.6003  -14.5322   -0.8225 C   0  0  0  0  0  0  0  0  0  0  0  0
   -4.3474    8.0778    9.9908 H   0  0  0  0  0  0  0  0  0  0  0  0
   -7.1162    8.3087    8.4090 H   0  0  0  0  0  0  0  0  0  0  0  0
   -8.5687    9.4214   10.0218 H   0  0  0  0  0  0  0  0  0  0  0  0
   -9.0861   11.7140   11.0888 H   0  0  0  0  0  0  0  0  0  0  0  0
   -9.2821   13.0937    9.9974 H   0  0  0  0  0  0  0  0  0  0  0  0
  -10.3952   11.7264    9.9131 H   0  0  0  0  0  0  0  0  0  0  0  0
   -8.2063   13.0731    7.8516 H   0  0  0  0  0  0  0  0  0  0  0  0
   -6.6752   11.9919    6.2812 H   0  0  0  0  0  0  0  0  0  0  0  0
   -8.0610    9.9023    4.9170 H   0  0  0  0  0  0  0  0  0  0  0  0
   -8.1746   10.8120    2.6425 H   0  0  0  0  0  0  0  0  0  0  0  0
   -7.1145   11.5303    0.6269 H   0  0  0  0  0  0  0  0  0  0  0  0
   -5.4149   11.1058    0.3582 H   0  0  0  0  0  0  0  0  0  0  0  0
   -5.8312   12.6386    1.1103 H   0  0  0  0  0  0  0  0  0  0  0  0
   -3.9117   10.9400    2.4815 H   0  0  0  0  0  0  0  0  0  0  0  0
   -3.7929   10.0233    4.7456 H   0  0  0  0  0  0  0  0  0  0  0  0
   -2.9488    2.3917    7.6595 H   0  0  0  0  0  0  0  0  0  0  0  0
   -1.1484    2.5250    9.3204 H   0  0  0  0  0  0  0  0  0  0  0  0
    0.9616    3.4297   10.0372 H   0  0  0  0  0  0  0  0  0  0  0  0
    1.8030    4.6158    9.0268 H   0  0  0  0  0  0  0  0  0  0  0  0
    0.6042    5.1497   10.1995 H   0  0  0  0  0  0  0  0  0  0  0  0
    0.4269    5.9645    7.3489 H   0  0  0  0  0  0  0  0  0  0  0  0
   -1.3516    5.8185    5.6679 H   0  0  0  0  0  0  0  0  0  0  0  0
   -5.8339    3.5454    4.9272 H   0  0  0  0  0  0  0  0  0  0  0  0
   -6.6956    1.4291    4.0464 H   0  0  0  0  0  0  0  0  0  0  0  0
   -6.2036   -1.2306    4.2188 H   0  0  0  0  0  0  0  0  0  0  0  0
   -4.6001   -1.6557    3.6083 H   0  0  0  0  0  0  0  0  0  0  0  0
   -5.7255   -0.7401    2.5984 H   0  0  0  0  0  0  0  0  0  0  0  0
   -2.8260   -0.3189    4.4294 H   0  0  0  0  0  0  0  0  0  0  0  0
   -1.9421    1.8114    5.2591 H   0  0  0  0  0  0  0  0  0  0  0  0
   -7.3437    4.5089    2.5680 H   0  0  0  0  0  0  0  0  0  0  0  0
   -9.4122    5.8563    2.5102 H   0  0  0  0  0  0  0  0  0  0  0  0
   -9.3840    8.0898    1.4528 H   0  0  0  0  0  0  0  0  0  0  0  0
   -7.3046    8.9552    0.4718 H   0  0  0  0  0  0  0  0  0  0  0  0
   -4.7047    8.7860    0.8132 H   0  0  0  0  0  0  0  0  0  0  0  0
   -4.0335    7.1668    0.6196 H   0  0  0  0  0  0  0  0  0  0  0  0
   -5.7988    8.5973   -1.4302 H   0  0  0  0  0  0  0  0  0  0  0  0
   -5.1486    6.9696   -1.6095 H   0  0  0  0  0  0  0  0  0  0  0  0
   -4.0541    8.3539   -1.5526 H   0  0  0  0  0  0  0  0  0  0  0  0
   -0.6817   -3.6177   -6.8732 H   0  0  0  0  0  0  0  0  0  0  0  0
   -1.0785   -4.4365   -8.3854 H   0  0  0  0  0  0  0  0  0  0  0  0
    0.4849   -6.3042   -7.7455 H   0  0  0  0  0  0  0  0  0  0  0  0
    0.7712   -5.5056   -6.2004 H   0  0  0  0  0  0  0  0  0  0  0  0
   -0.8429   -6.0999   -6.5951 H   0  0  0  0  0  0  0  0  0  0  0  0
    0.3454   -4.3590  -10.2495 H   0  0  0  0  0  0  0  0  0  0  0  0
    2.3057   -3.4151  -11.3815 H   0  0  0  0  0  0  0  0  0  0  0  0
    4.0106   -2.1822  -10.0798 H   0  0  0  0  0  0  0  0  0  0  0  0
    3.7294   -1.9246   -7.6432 H   0  0  0  0  0  0  0  0  0  0  0  0
   -0.7800    2.5446    1.0541 H   0  0  0  0  0  0  0  0  0  0  0  0
   -0.0503    1.2894    0.0580 H   0  0  0  0  0  0  0  0  0  0  0  0
   -2.3566    1.0079    2.0632 H   0  0  0  0  0  0  0  0  0  0  0  0
   -0.7453    0.3094    2.2118 H   0  0  0  0  0  0  0  0  0  0  0  0
   -1.8780   -0.3095    0.9996 H   0  0  0  0  0  0  0  0  0  0  0  0
   -0.4063   -0.6523   -0.4469 H   0  0  0  0  0  0  0  0  0  0  0  0
    0.3415   -1.8937   -1.4472 H   0  0  0  0  0  0  0  0  0  0  0  0
    2.3417   -0.5985   -1.8100 H   0  0  0  0  0  0  0  0  0  0  0  0
    2.0206   -0.5847   -0.0799 H   0  0  0  0  0  0  0  0  0  0  0  0
    1.6541    0.8401   -1.0659 H   0  0  0  0  0  0  0  0  0  0  0  0
    3.8859   -3.8254   -0.5933 H   0  0  0  0  0  0  0  0  0  0  0  0
    4.6376   -1.6174    0.1613 H   0  0  0  0  0  0  0  0  0  0  0  0
    5.4587    0.5726   -0.3328 H   0  0  0  0  0  0  0  0  0  0  0  0
    7.0136    0.3087   -1.1243 H   0  0  0  0  0  0  0  0  0  0  0  0
    5.6936    1.0516   -2.0203 H   0  0  0  0  0  0  0  0  0  0  0  0
    6.2380   -0.8339   -3.7116 H   0  0  0  0  0  0  0  0  0  0  0  0
    5.5336   -3.0541   -4.4605 H   0  0  0  0  0  0  0  0  0  0  0  0
    2.3822   -6.7377   -2.9124 H   0  0  0  0  0  0  0  0  0  0  0  0
    2.4222   -8.7561   -1.5054 H   0  0  0  0  0  0  0  0  0  0  0  0
    3.3088   -9.8697    0.5260 H   0  0  0  0  0  0  0  0  0  0  0  0
    4.8220  -10.2583   -0.2909 H   0  0  0  0  0  0  0  0  0  0  0  0
    4.8541   -9.3501    1.2217 H   0  0  0  0  0  0  0  0  0  0  0  0
    6.0414   -7.4152    0.3085 H   0  0  0  0  0  0  0  0  0  0  0  0
    6.0128   -5.4071   -1.1031 H   0  0  0  0  0  0  0  0  0  0  0  0
    6.6386   -5.9024   -8.0736 H   0  0  0  0  0  0  0  0  0  0  0  0
    6.7911   -4.1628   -9.7962 H   0  0  0  0  0  0  0  0  0  0  0  0
    6.0696   -4.3898  -12.9064 H   0  0  0  0  0  0  0  0  0  0  0  0
    5.8614   -3.0722  -11.7568 H   0  0  0  0  0  0  0  0  0  0  0  0
    4.4577   -3.7600  -12.5901 H   0  0  0  0  0  0  0  0  0  0  0  0
    3.6817   -6.0720  -12.0051 H   0  0  0  0  0  0  0  0  0  0  0  0
    3.5082   -7.8015  -10.2719 H   0  0  0  0  0  0  0  0  0  0  0  0
    6.0569   -9.1170  -10.2697 H   0  0  0  0  0  0  0  0  0  0  0  0
    5.7433  -11.4386  -10.9919 H   0  0  0  0  0  0  0  0  0  0  0  0
    5.3116  -13.9171   -9.6896 H   0  0  0  0  0  0  0  0  0  0  0  0
    3.6287  -13.9300   -9.1509 H   0  0  0  0  0  0  0  0  0  0  0  0
    4.0332  -13.4626  -10.8092 H   0  0  0  0  0  0  0  0  0  0  0  0
    3.2696  -12.1713   -7.5946 H   0  0  0  0  0  0  0  0  0  0  0  0
    3.5532   -9.8419   -6.8818 H   0  0  0  0  0  0  0  0  0  0  0  0
    6.6129   -9.7874   -7.0610 H   0  0  0  0  0  0  0  0  0  0  0  0
    7.2074  -11.6429   -1.0981 H   0  0  0  0  0  0  0  0  0  0  0  0
    8.9861  -14.2811   -5.0383 H   0  0  0  0  0  0  0  0  0  0  0  0
    8.6951  -16.2968   -2.2819 H   0  0  0  0  0  0  0  0  0  0  0  0
   11.2623  -15.6778   -2.6318 H   0  0  0  0  0  0  0  0  0  0  0  0
   11.0755  -17.3361   -0.6018 H   0  0  0  0  0  0  0  0  0  0  0  0
   10.1601  -15.9809    1.4916 H   0  0  0  0  0  0  0  0  0  0  0  0
    9.7852  -13.4878    0.7514 H   0  0  0  0  0  0  0  0  0  0  0  0
   10.7157  -13.1989   -1.7528 H   0  0  0  0  0  0  0  0  0  0  0  0
   11.9322  -13.9788   -0.7156 H   0  0  0  0  0  0  0  0  0  0  0  0
    7.7989  -14.9699   -0.2296 H   0  0  0  0  0  0  0  0  0  0  0  0
  1  2  2  0  0  0  0
  2  3  1  0  0  0  0
  3  4  2  0  0  0  0
  3  5  1  0  0  0  0
  5  6  2  0  0  0  0
  6  7  1  0  0  0  0
  6  8  1  0  0  0  0
  8  9  1  0  0  0  0
  8 10  2  0  0  0  0
 10 11  1  0  0  0  0
 10 12  1  0  0  0  0
 12 13  1  0  0  0  0
 12 14  2  0  0  0  0
 14 15  1  0  0  0  0
 15 16  2  0  0  0  0
 16 17  1  0  0  0  0
 17 18  3  0  0  0  0
 16 19  1  0  0  0  0
 19 20  3  0  0  0  0
  1 21  1  0  0  0  0
 21 22  2  0  0  0  0
 22 23  1  0  0  0  0
 23 24  1  0  0  0  0
 24 25  2  0  0  0  0
 25 26  1  0  0  0  0
 26 27  2  0  0  0  0
 27 28  1  0  0  0  0
 27 29  1  0  0  0  0
 29 30  2  0  0  0  0
 23 31  1  0  0  0  0
 31 32  2  0  0  0  0
 32 33  1  0  0  0  0
 33 34  2  0  0  0  0
 34 35  1  0  0  0  0
 34 36  1  0  0  0  0
 36 37  2  0  0  0  0
 22 38  1  0  0  0  0
 38 39  1  0  0  0  0
 39 40  1  0  0  0  0
 40 41  2  0  0  0  0
 41 42  1  0  0  0  0
 42 43  1  0  0  0  0
 43 44  2  0  0  0  0
 44 45  1  0  0  0  0
 45 46  2  0  0  0  0
 46 47  1  0  0  0  0
 46 48  1  0  0  0  0
 48 49  2  0  0  0  0
 42 50  1  0  0  0  0
 50 51  2  0  0  0  0
 51 52  1  0  0  0  0
 52 53  2  0  0  0  0
 53 54  1  0  0  0  0
 53 55  1  0  0  0  0
 55 56  2  0  0  0  0
 41 57  1  0  0  0  0
 57 58  1  0  0  0  0
 40 59  1  0  0  0  0
 59 60  2  0  0  0  0
 60 61  1  0  0  0  0
 61 62  2  0  0  0  0
 62 63  1  0  0  0  0
 63 64  2  0  0  0  0
 64 65  1  0  0  0  0
 65 66  2  0  0  0  0
 66 67  1  0  0  0  0
 67 68  1  0  0  0  0
 60 69  1  0  0  0  0
 69 70  1  0  0  0  0
 70 71  1  0  0  0  0
 71 72  1  0  0  0  0
 72 73  1  0  0  0  0
 73 74  1  0  0  0  0
 74 75  2  0  0  0  0
 75 76  1  0  0  0  0
 76 77  1  0  0  0  0
 74 78  1  0  0  0  0
 78 79  1  0  0  0  0
 79 80  1  0  0  0  0
 80 81  1  0  0  0  0
 81 82  1  0  0  0  0
 82 83  1  0  0  0  0
 83 84  2  0  0  0  0
 84 85  1  0  0  0  0
 85 86  1  0  0  0  0
 84 87  1  0  0  0  0
 87 88  2  0  0  0  0
 88 89  1  0  0  0  0
 89 90  2  0  0  0  0
 82 91  2  0  0  0  0
 91 92  1  0  0  0  0
 92 93  1  0  0  0  0
 93 94  1  0  0  0  0
 94 95  1  0  0  0  0
 95 96  1  0  0  0  0
 96 97  1  0  0  0  0
 97 98  1  0  0  0  0
 98 99  1  0  0  0  0
 99100  1  0  0  0  0
100101  1  0  0  0  0
 98102  1  0  0  0  0
102103  1  0  0  0  0
 95104  1  0  0  0  0
104105  1  0  0  0  0
 91106  1  0  0  0  0
106107  2  0  0  0  0
107108  1  0  0  0  0
108109  1  0  0  0  0
109110  2  0  0  0  0
110111  1  0  0  0  0
111112  2  0  0  0  0
112113  1  0  0  0  0
112114  1  0  0  0  0
114115  2  0  0  0  0
108116  1  0  0  0  0
116117  2  0  0  0  0
117118  1  0  0  0  0
118119  2  0  0  0  0
119120  1  0  0  0  0
119121  1  0  0  0  0
121122  2  0  0  0  0
107123  1  0  0  0  0
123124  1  0  0  0  0
124125  1  0  0  0  0
125126  2  0  0  0  0
126127  1  0  0  0  0
127128  1  0  0  0  0
128129  2  0  0  0  0
129130  1  0  0  0  0
130131  2  0  0  0  0
131132  1  0  0  0  0
131133  1  0  0  0  0
133134  2  0  0  0  0
127135  1  0  0  0  0
135136  2  0  0  0  0
136137  1  0  0  0  0
137138  2  0  0  0  0
138139  1  0  0  0  0
138140  1  0  0  0  0
140141  2  0  0  0  0
126142  1  0  0  0  0
142143  1  0  0  0  0
125144  1  0  0  0  0
144145  2  0  0  0  0
145146  1  0  0  0  0
146147  2  0  0  0  0
146148  1  0  0  0  0
148149  2  0  0  0  0
149150  1  0  0  0  0
150151  2  0  0  0  0
151152  1  0  0  0  0
152153  2  0  0  0  0
153154  1  0  0  0  0
154155  2  0  0  0  0
155156  1  0  0  0  0
156157  3  0  0  0  0
155158  1  0  0  0  0
158159  3  0  0  0  0
151160  1  0  0  0  0
160161  1  0  0  0  0
161162  1  0  0  0  0
162163  2  0  0  0  0
163164  1  0  0  0  0
164165  1  0  0  0  0
164166  1  0  0  0  0
 15  2  1  0  0  0  0
 58 21  1  0  0  0  0
101 59  1  0  0  0  0
143106  1  0  0  0  0
154145  1  0  0  0  0
166160  1  0  0  0  0
 14  5  1  0  0  0  0
 30 24  1  0  0  0  0
 37 31  1  0  0  0  0
 57 38  2  0  0  0  0
 66 61  1  0  0  0  0
100 69  2  0  0  0  0
115109  1  0  0  0  0
122116  1  0  0  0  0
142123  2  0  0  0  0
153148  1  0  0  0  0
165161  1  0  0  0  0
 49 43  1  0  0  0  0
 56 50  1  0  0  0  0
 99 71  2  0  0  0  0
134128  1  0  0  0  0
141135  1  0  0  0  0
166150  1  0  0  0  0
 97 72  2  0  0  0  0
 77 73  2  0  0  0  0
 96 78  2  0  0  0  0
 94 79  2  0  0  0  0
 93 81  2  0  0  0  0
 90 83  1  0  0  0  0
  1167  1  0  0  0  0
 25168  1  0  0  0  0
 26169  1  0  0  0  0
 28170  1  0  0  0  0
 28171  1  0  0  0  0
 28172  1  0  0  0  0
 29173  1  0  0  0  0
 30174  1  0  0  0  0
 32175  1  0  0  0  0
 33176  1  0  0  0  0
 35177  1  0  0  0  0
 35178  1  0  0  0  0
 35179  1  0  0  0  0
 36180  1  0  0  0  0
 37181  1  0  0  0  0
 44182  1  0  0  0  0
 45183  1  0  0  0  0
 47184  1  0  0  0  0
 47185  1  0  0  0  0
 47186  1  0  0  0  0
 48187  1  0  0  0  0
 49188  1  0  0  0  0
 51189  1  0  0  0  0
 52190  1  0  0  0  0
 54191  1  0  0  0  0
 54192  1  0  0  0  0
 54193  1  0  0  0  0
 55194  1  0  0  0  0
 56195  1  0  0  0  0
 62196  1  0  0  0  0
 63197  1  0  0  0  0
 64198  1  0  0  0  0
 65199  1  0  0  0  0
 67200  1  0  0  0  0
 67201  1  0  0  0  0
 68202  1  0  0  0  0
 68203  1  0  0  0  0
 68204  1  0  0  0  0
 85205  1  0  0  0  0
 85206  1  0  0  0  0
 86207  1  0  0  0  0
 86208  1  0  0  0  0
 86209  1  0  0  0  0
 87210  1  0  0  0  0
 88211  1  0  0  0  0
 89212  1  0  0  0  0
 90213  1  0  0  0  0
102214  1  0  0  0  0
102215  1  0  0  0  0
103216  1  0  0  0  0
103217  1  0  0  0  0
103218  1  0  0  0  0
104219  1  0  0  0  0
104220  1  0  0  0  0
105221  1  0  0  0  0
105222  1  0  0  0  0
105223  1  0  0  0  0
110224  1  0  0  0  0
111225  1  0  0  0  0
113226  1  0  0  0  0
113227  1  0  0  0  0
113228  1  0  0  0  0
114229  1  0  0  0  0
115230  1  0  0  0  0
117231  1  0  0  0  0
118232  1  0  0  0  0
120233  1  0  0  0  0
120234  1  0  0  0  0
120235  1  0  0  0  0
121236  1  0  0  0  0
122237  1  0  0  0  0
129238  1  0  0  0  0
130239  1  0  0  0  0
132240  1  0  0  0  0
132241  1  0  0  0  0
132242  1  0  0  0  0
133243  1  0  0  0  0
134244  1  0  0  0  0
136245  1  0  0  0  0
137246  1  0  0  0  0
139247  1  0  0  0  0
139248  1  0  0  0  0
139249  1  0  0  0  0
140250  1  0  0  0  0
141251  1  0  0  0  0
144252  1  0  0  0  0
149253  1  0  0  0  0
152254  1  0  0  0  0
160255  1  0  0  0  0
161256  1  0  0  0  0
162257  1  0  0  0  0
163258  1  0  0  0  0
164259  1  0  0  0  0
165260  1  0  0  0  0
165261  1  0  0  0  0
166262  1  0  0  0  0
M  END
