
  xtb     02082217013D
 energy: -426.946535708102 gnorm: 0.000581935178 xtb: 6.4.1 (unknown)
249274  0     0  0            999 V2000
   11.0253   -3.4719    6.0341 C   0  0  0  0  0  0  0  0  0  0  0  0
   11.8551   -4.0622    5.0949 C   0  0  0  0  0  0  0  0  0  0  0  0
   11.5046   -4.1921    3.6829 C   0  0  0  0  0  0  0  0  0  0  0  0
   10.4901   -3.8100    3.1315 O   0  0  0  0  0  0  0  0  0  0  0  0
   12.7187   -4.7342    3.0214 C   0  0  0  0  0  0  0  0  0  0  0  0
   12.9168   -5.0252    1.6867 C   0  0  0  0  0  0  0  0  0  0  0  0
   11.6343   -4.9401    0.5613 Cl  0  0  0  0  0  0  0  0  0  0  0  0
   14.1989   -5.4105    1.2720 C   0  0  0  0  0  0  0  0  0  0  0  0
   14.4805   -5.8258   -0.3643 Cl  0  0  0  0  0  0  0  0  0  0  0  0
   15.2502   -5.4185    2.1842 C   0  0  0  0  0  0  0  0  0  0  0  0
   16.8295   -5.7940    1.6395 Cl  0  0  0  0  0  0  0  0  0  0  0  0
   15.0421   -5.1160    3.5406 C   0  0  0  0  0  0  0  0  0  0  0  0
   16.4131   -4.9889    4.5642 Cl  0  0  0  0  0  0  0  0  0  0  0  0
   13.7522   -4.8435    3.9721 C   0  0  0  0  0  0  0  0  0  0  0  0
   13.1861   -4.5594    5.2917 C   0  0  0  0  0  0  0  0  0  0  0  0
   13.6830   -4.9510    6.5130 C   0  0  0  0  0  0  0  0  0  0  0  0
   13.0055   -4.7072    7.7263 C   0  0  0  0  0  0  0  0  0  0  0  0
   12.5064   -4.5590    8.7502 N   0  0  0  0  0  0  0  0  0  0  0  0
   14.7683   -5.8155    6.7417 C   0  0  0  0  0  0  0  0  0  0  0  0
   15.5525   -6.6017    7.0381 N   0  0  0  0  0  0  0  0  0  0  0  0
    9.6400   -3.3765    5.9639 C   0  0  0  0  0  0  0  0  0  0  0  0
    8.6763   -4.1216    5.2401 C   0  0  0  0  0  0  0  0  0  0  0  0
    8.8835   -5.2785    4.5548 N   0  0  0  0  0  0  0  0  0  0  0  0
    9.9325   -6.1665    4.8290 C   0  0  0  0  0  0  0  0  0  0  0  0
   10.3459   -6.4271    6.1351 C   0  0  0  0  0  0  0  0  0  0  0  0
   11.3769   -7.3114    6.3712 C   0  0  0  0  0  0  0  0  0  0  0  0
   12.0320   -7.9574    5.3238 C   0  0  0  0  0  0  0  0  0  0  0  0
   13.1570   -8.9021    5.6014 C   0  0  0  0  0  0  0  0  0  0  0  0
   11.6023   -7.7052    4.0280 C   0  0  0  0  0  0  0  0  0  0  0  0
   10.5642   -6.8278    3.7770 C   0  0  0  0  0  0  0  0  0  0  0  0
    7.9757   -5.6449    3.5326 C   0  0  0  0  0  0  0  0  0  0  0  0
    7.4317   -6.9233    3.5157 C   0  0  0  0  0  0  0  0  0  0  0  0
    6.5467   -7.2807    2.5162 C   0  0  0  0  0  0  0  0  0  0  0  0
    6.1897   -6.3799    1.5212 C   0  0  0  0  0  0  0  0  0  0  0  0
    5.2316   -6.7610    0.4355 C   0  0  0  0  0  0  0  0  0  0  0  0
    6.7538   -5.1080    1.5420 C   0  0  0  0  0  0  0  0  0  0  0  0
    7.6388   -4.7372    2.5333 C   0  0  0  0  0  0  0  0  0  0  0  0
    7.3932   -3.5518    5.4085 C   0  0  0  0  0  0  0  0  0  0  0  0
    5.8262   -3.9167    4.7660 S   0  0  0  0  0  0  0  0  0  0  0  0
    5.1188   -2.6054    5.6916 C   0  0  0  0  0  0  0  0  0  0  0  0
    6.0586   -1.8935    6.4258 C   0  0  0  0  0  0  0  0  0  0  0  0
    5.8067   -0.7361    7.1404 N   0  0  0  0  0  0  0  0  0  0  0  0
    6.5085   -0.5050    8.3330 C   0  0  0  0  0  0  0  0  0  0  0  0
    6.9165    0.7801    8.6780 C   0  0  0  0  0  0  0  0  0  0  0  0
    7.6172    0.9944    9.8485 C   0  0  0  0  0  0  0  0  0  0  0  0
    7.9390   -0.0567   10.6977 C   0  0  0  0  0  0  0  0  0  0  0  0
    8.7225    0.1682   11.9542 C   0  0  0  0  0  0  0  0  0  0  0  0
    7.5284   -1.3367   10.3446 C   0  0  0  0  0  0  0  0  0  0  0  0
    6.8203   -1.5636    9.1826 C   0  0  0  0  0  0  0  0  0  0  0  0
    4.8796    0.2003    6.6599 C   0  0  0  0  0  0  0  0  0  0  0  0
    4.0528    0.8961    7.5390 C   0  0  0  0  0  0  0  0  0  0  0  0
    3.0778    1.7425    7.0532 C   0  0  0  0  0  0  0  0  0  0  0  0
    2.8977    1.9290    5.6866 C   0  0  0  0  0  0  0  0  0  0  0  0
    1.7866    2.7971    5.1807 C   0  0  0  0  0  0  0  0  0  0  0  0
    3.7665    1.2808    4.8197 C   0  0  0  0  0  0  0  0  0  0  0  0
    4.7509    0.4349    5.2933 C   0  0  0  0  0  0  0  0  0  0  0  0
    7.3429   -2.4686    6.2768 C   0  0  0  0  0  0  0  0  0  0  0  0
    8.8890   -2.1006    6.9412 S   0  0  0  0  0  0  0  0  0  0  0  0
    3.7310   -2.2835    5.5439 C   0  0  0  0  0  0  0  0  0  0  0  0
    2.8210   -1.9436    6.5261 C   0  0  0  0  0  0  0  0  0  0  0  0
    3.0368   -2.1916    7.9494 C   0  0  0  0  0  0  0  0  0  0  0  0
    2.4669   -1.3660    8.9152 C   0  0  0  0  0  0  0  0  0  0  0  0
    2.7015   -1.6037   10.2562 C   0  0  0  0  0  0  0  0  0  0  0  0
    3.4891   -2.6688   10.6523 C   0  0  0  0  0  0  0  0  0  0  0  0
    4.0353   -3.5280    9.7062 C   0  0  0  0  0  0  0  0  0  0  0  0
    4.8287   -4.7286   10.1377 C   0  0  0  0  0  0  0  0  0  0  0  0
    3.8944   -5.8788   10.5172 C   0  0  0  0  0  0  0  0  0  0  0  0
    3.7991   -3.2823    8.3639 C   0  0  0  0  0  0  0  0  0  0  0  0
    1.6524   -1.3866    5.9571 C   0  0  0  0  0  0  0  0  0  0  0  0
    0.2091   -0.6790    6.6411 S   0  0  0  0  0  0  0  0  0  0  0  0
   -0.3549   -0.3182    5.0441 C   0  0  0  0  0  0  0  0  0  0  0  0
   -1.4138    0.3535    4.4097 C   0  0  0  0  0  0  0  0  0  0  0  0
   -2.4951    1.0898    4.9392 C   0  0  0  0  0  0  0  0  0  0  0  0
   -3.3568    1.8019    4.0395 C   0  0  0  0  0  0  0  0  0  0  0  0
   -4.2926    2.4909    4.6742 N   0  0  0  0  0  0  0  0  0  0  0  0
   -4.1067    2.2623    6.2664 S   0  0  0  0  0  0  0  0  0  0  0  0
   -2.8232    1.2764    6.2084 N   0  0  0  0  0  0  0  0  0  0  0  0
   -3.1541    1.6673    2.6494 C   0  0  0  0  0  0  0  0  0  0  0  0
   -3.8775    2.1729    1.5553 C   0  0  0  0  0  0  0  0  0  0  0  0
   -5.2412    3.1897    1.2310 S   0  0  0  0  0  0  0  0  0  0  0  0
   -5.0492    2.8772   -0.4766 C   0  0  0  0  0  0  0  0  0  0  0  0
   -5.7641    3.2940   -1.6220 C   0  0  0  0  0  0  0  0  0  0  0  0
   -6.8583    4.2619   -1.6284 C   0  0  0  0  0  0  0  0  0  0  0  0
   -7.7418    4.3503   -0.5559 C   0  0  0  0  0  0  0  0  0  0  0  0
   -8.7804    5.2613   -0.5876 C   0  0  0  0  0  0  0  0  0  0  0  0
   -8.9431    6.1021   -1.6734 C   0  0  0  0  0  0  0  0  0  0  0  0
   -8.0504    6.0553   -2.7374 C   0  0  0  0  0  0  0  0  0  0  0  0
   -8.1786    7.0160   -3.8854 C   0  0  0  0  0  0  0  0  0  0  0  0
   -7.4735    8.3337   -3.5592 C   0  0  0  0  0  0  0  0  0  0  0  0
   -7.0136    5.1374   -2.7011 C   0  0  0  0  0  0  0  0  0  0  0  0
   -5.2446    2.7162   -2.7643 C   0  0  0  0  0  0  0  0  0  0  0  0
   -3.8165    1.7433   -2.4497 S   0  0  0  0  0  0  0  0  0  0  0  0
   -3.9756    2.0326   -0.7565 C   0  0  0  0  0  0  0  0  0  0  0  0
   -3.3028    1.6332    0.4054 C   0  0  0  0  0  0  0  0  0  0  0  0
   -2.2395    0.8360    0.7358 N   0  0  0  0  0  0  0  0  0  0  0  0
   -2.1163    0.8519    2.1178 C   0  0  0  0  0  0  0  0  0  0  0  0
   -1.1734    0.2754    3.0092 C   0  0  0  0  0  0  0  0  0  0  0  0
    0.0195   -0.4021    2.8111 N   0  0  0  0  0  0  0  0  0  0  0  0
    0.5128   -0.7465    4.0403 C   0  0  0  0  0  0  0  0  0  0  0  0
    1.6629   -1.3519    4.5633 C   0  0  0  0  0  0  0  0  0  0  0  0
    3.1135   -2.0275    3.9197 S   0  0  0  0  0  0  0  0  0  0  0  0
    0.8938   -0.4274    1.6610 C   0  0  0  0  0  0  0  0  0  0  0  0
    1.2705    0.9817    1.2112 C   0  0  0  0  0  0  0  0  0  0  0  0
   -1.7629   -0.1353   -0.2238 C   0  0  0  0  0  0  0  0  0  0  0  0
   -2.1546   -1.5549    0.1776 C   0  0  0  0  0  0  0  0  0  0  0  0
   -5.8238    2.6799   -4.0726 C   0  0  0  0  0  0  0  0  0  0  0  0
   -7.1347    2.3443   -4.3880 C   0  0  0  0  0  0  0  0  0  0  0  0
   -8.0903    1.9306   -3.4805 N   0  0  0  0  0  0  0  0  0  0  0  0
   -9.4409    2.2302   -3.7283 C   0  0  0  0  0  0  0  0  0  0  0  0
   -9.8015    3.4672   -4.2554 C   0  0  0  0  0  0  0  0  0  0  0  0
  -11.1247    3.7453   -4.5288 C   0  0  0  0  0  0  0  0  0  0  0  0
  -12.1211    2.8093   -4.2809 C   0  0  0  0  0  0  0  0  0  0  0  0
  -13.5486    3.1176   -4.6112 C   0  0  0  0  0  0  0  0  0  0  0  0
  -11.7537    1.5837   -3.7408 C   0  0  0  0  0  0  0  0  0  0  0  0
  -10.4322    1.2897   -3.4685 C   0  0  0  0  0  0  0  0  0  0  0  0
   -7.7248    1.1790   -2.3553 C   0  0  0  0  0  0  0  0  0  0  0  0
   -6.6969    0.2411   -2.4258 C   0  0  0  0  0  0  0  0  0  0  0  0
   -6.2697   -0.4134   -1.2874 C   0  0  0  0  0  0  0  0  0  0  0  0
   -6.8616   -0.1713   -0.0546 C   0  0  0  0  0  0  0  0  0  0  0  0
   -6.3456   -0.8194    1.1936 C   0  0  0  0  0  0  0  0  0  0  0  0
   -7.9368    0.7085   -0.0069 C   0  0  0  0  0  0  0  0  0  0  0  0
   -8.3694    1.3736   -1.1363 C   0  0  0  0  0  0  0  0  0  0  0  0
   -7.3465    2.4013   -5.7872 C   0  0  0  0  0  0  0  0  0  0  0  0
   -8.7402    2.1950   -6.7824 S   0  0  0  0  0  0  0  0  0  0  0  0
   -7.7534    2.4435   -8.2295 C   0  0  0  0  0  0  0  0  0  0  0  0
   -6.4062    2.7696   -7.9049 C   0  0  0  0  0  0  0  0  0  0  0  0
   -5.4271    3.0982   -8.7989 N   0  0  0  0  0  0  0  0  0  0  0  0
   -5.6752    3.8189   -9.9825 C   0  0  0  0  0  0  0  0  0  0  0  0
   -6.6321    4.8304  -10.0152 C   0  0  0  0  0  0  0  0  0  0  0  0
   -6.8712    5.5157  -11.1894 C   0  0  0  0  0  0  0  0  0  0  0  0
   -6.1565    5.2295  -12.3471 C   0  0  0  0  0  0  0  0  0  0  0  0
   -6.4311    5.9510  -13.6299 C   0  0  0  0  0  0  0  0  0  0  0  0
   -5.1782    4.2434  -12.2927 C   0  0  0  0  0  0  0  0  0  0  0  0
   -4.9377    3.5391  -11.1301 C   0  0  0  0  0  0  0  0  0  0  0  0
   -4.0888    2.7956   -8.4715 C   0  0  0  0  0  0  0  0  0  0  0  0
   -3.0870    3.7457   -8.6366 C   0  0  0  0  0  0  0  0  0  0  0  0
   -1.7828    3.4367   -8.3043 C   0  0  0  0  0  0  0  0  0  0  0  0
   -1.4469    2.1852   -7.8022 C   0  0  0  0  0  0  0  0  0  0  0  0
   -0.0385    1.8637   -7.4096 C   0  0  0  0  0  0  0  0  0  0  0  0
   -2.4546    1.2389   -7.6528 C   0  0  0  0  0  0  0  0  0  0  0  0
   -3.7611    1.5329   -7.9851 C   0  0  0  0  0  0  0  0  0  0  0  0
   -6.2041    2.7128   -6.5171 C   0  0  0  0  0  0  0  0  0  0  0  0
   -4.8283    2.9653   -5.4906 S   0  0  0  0  0  0  0  0  0  0  0  0
   -8.1879    2.2234   -9.5289 C   0  0  0  0  0  0  0  0  0  0  0  0
   -9.4526    1.9619  -10.0224 C   0  0  0  0  0  0  0  0  0  0  0  0
  -10.6965    2.0038   -9.2598 C   0  0  0  0  0  0  0  0  0  0  0  0
  -10.8396    2.1542   -8.0601 O   0  0  0  0  0  0  0  0  0  0  0  0
  -11.7834    1.8528  -10.2556 C   0  0  0  0  0  0  0  0  0  0  0  0
  -11.2215    1.7117  -11.5374 C   0  0  0  0  0  0  0  0  0  0  0  0
  -12.0451    1.5586  -12.6400 C   0  0  0  0  0  0  0  0  0  0  0  0
  -13.4199    1.5524  -12.4475 C   0  0  0  0  0  0  0  0  0  0  0  0
  -13.9679    1.6902  -11.1826 C   0  0  0  0  0  0  0  0  0  0  0  0
  -15.8484    1.6724  -10.9849 Br  0  0  0  0  0  0  0  0  0  0  0  0
  -13.1523    1.8423  -10.0559 C   0  0  0  0  0  0  0  0  0  0  0  0
  -13.8225    2.0044   -8.4898 Cl  0  0  0  0  0  0  0  0  0  0  0  0
   -9.7633    1.7463  -11.4103 C   0  0  0  0  0  0  0  0  0  0  0  0
   -8.8779    1.5716  -12.4492 C   0  0  0  0  0  0  0  0  0  0  0  0
   -7.4805    1.4641  -12.3216 C   0  0  0  0  0  0  0  0  0  0  0  0
   -6.3381    1.3310  -12.3065 N   0  0  0  0  0  0  0  0  0  0  0  0
   -9.2571    1.4422  -13.7991 C   0  0  0  0  0  0  0  0  0  0  0  0
   -9.4950    1.3468  -14.9190 N   0  0  0  0  0  0  0  0  0  0  0  0
   11.4836   -2.9779    6.8820 H   0  0  0  0  0  0  0  0  0  0  0  0
    9.8530   -5.9421    6.9644 H   0  0  0  0  0  0  0  0  0  0  0  0
   11.6830   -7.5070    7.3885 H   0  0  0  0  0  0  0  0  0  0  0  0
   13.5074   -9.3697    4.6852 H   0  0  0  0  0  0  0  0  0  0  0  0
   13.9921   -8.3768    6.0641 H   0  0  0  0  0  0  0  0  0  0  0  0
   12.8370   -9.6797    6.2932 H   0  0  0  0  0  0  0  0  0  0  0  0
   12.0875   -8.1978    3.1980 H   0  0  0  0  0  0  0  0  0  0  0  0
   10.2380   -6.6451    2.7644 H   0  0  0  0  0  0  0  0  0  0  0  0
    7.7012   -7.6295    4.2876 H   0  0  0  0  0  0  0  0  0  0  0  0
    6.1245   -8.2751    2.5145 H   0  0  0  0  0  0  0  0  0  0  0  0
    4.8050   -7.7438    0.6179 H   0  0  0  0  0  0  0  0  0  0  0  0
    4.4237   -6.0341    0.3704 H   0  0  0  0  0  0  0  0  0  0  0  0
    5.7413   -6.7786   -0.5274 H   0  0  0  0  0  0  0  0  0  0  0  0
    6.4989   -4.4018    0.7655 H   0  0  0  0  0  0  0  0  0  0  0  0
    8.1006   -3.7626    2.5328 H   0  0  0  0  0  0  0  0  0  0  0  0
    6.6867    1.6068    8.0222 H   0  0  0  0  0  0  0  0  0  0  0  0
    7.9287    1.9981   10.0998 H   0  0  0  0  0  0  0  0  0  0  0  0
    9.7277   -0.2388   11.8450 H   0  0  0  0  0  0  0  0  0  0  0  0
    8.2508   -0.3347   12.7966 H   0  0  0  0  0  0  0  0  0  0  0  0
    8.8042    1.2285   12.1790 H   0  0  0  0  0  0  0  0  0  0  0  0
    7.7654   -2.1685   10.9916 H   0  0  0  0  0  0  0  0  0  0  0  0
    6.4947   -2.5613    8.9322 H   0  0  0  0  0  0  0  0  0  0  0  0
    4.1685    0.7485    8.6019 H   0  0  0  0  0  0  0  0  0  0  0  0
    2.4278    2.2560    7.7467 H   0  0  0  0  0  0  0  0  0  0  0  0
    0.8250    2.3073    5.3401 H   0  0  0  0  0  0  0  0  0  0  0  0
    1.7661    3.7454    5.7143 H   0  0  0  0  0  0  0  0  0  0  0  0
    1.8973    2.9980    4.1174 H   0  0  0  0  0  0  0  0  0  0  0  0
    3.6767    1.4345    3.7533 H   0  0  0  0  0  0  0  0  0  0  0  0
    5.4194   -0.0554    4.6004 H   0  0  0  0  0  0  0  0  0  0  0  0
    1.8576   -0.5287    8.6150 H   0  0  0  0  0  0  0  0  0  0  0  0
    2.2672   -0.9495   10.9977 H   0  0  0  0  0  0  0  0  0  0  0  0
    3.6759   -2.8426   11.7020 H   0  0  0  0  0  0  0  0  0  0  0  0
    5.4861   -5.0535    9.3280 H   0  0  0  0  0  0  0  0  0  0  0  0
    5.4484   -4.4693   10.9987 H   0  0  0  0  0  0  0  0  0  0  0  0
    3.2382   -5.5809   11.3317 H   0  0  0  0  0  0  0  0  0  0  0  0
    4.4682   -6.7471   10.8326 H   0  0  0  0  0  0  0  0  0  0  0  0
    3.2770   -6.1597    9.6668 H   0  0  0  0  0  0  0  0  0  0  0  0
    4.2028   -3.9591    7.6240 H   0  0  0  0  0  0  0  0  0  0  0  0
   -7.6250    3.6936    0.2914 H   0  0  0  0  0  0  0  0  0  0  0  0
   -9.4700    5.3136    0.2420 H   0  0  0  0  0  0  0  0  0  0  0  0
   -9.7625    6.8058   -1.6946 H   0  0  0  0  0  0  0  0  0  0  0  0
   -9.2341    7.2118   -4.0859 H   0  0  0  0  0  0  0  0  0  0  0  0
   -7.7333    6.5846   -4.7851 H   0  0  0  0  0  0  0  0  0  0  0  0
   -6.4171    8.1589   -3.3675 H   0  0  0  0  0  0  0  0  0  0  0  0
   -7.5658    9.0312   -4.3886 H   0  0  0  0  0  0  0  0  0  0  0  0
   -7.9107    8.7873   -2.6728 H   0  0  0  0  0  0  0  0  0  0  0  0
   -6.3034    5.1108   -3.5155 H   0  0  0  0  0  0  0  0  0  0  0  0
    1.7972   -0.9585    1.9711 H   0  0  0  0  0  0  0  0  0  0  0  0
    0.4473   -1.0034    0.8494 H   0  0  0  0  0  0  0  0  0  0  0  0
    1.7927    1.4952    2.0149 H   0  0  0  0  0  0  0  0  0  0  0  0
    0.3892    1.5643    0.9545 H   0  0  0  0  0  0  0  0  0  0  0  0
    1.9264    0.9332    0.3460 H   0  0  0  0  0  0  0  0  0  0  0  0
   -0.6865   -0.0418   -0.3709 H   0  0  0  0  0  0  0  0  0  0  0  0
   -2.2383    0.1136   -1.1759 H   0  0  0  0  0  0  0  0  0  0  0  0
   -3.2375   -1.6332    0.2410 H   0  0  0  0  0  0  0  0  0  0  0  0
   -1.7393   -1.8202    1.1469 H   0  0  0  0  0  0  0  0  0  0  0  0
   -1.7968   -2.2632   -0.5649 H   0  0  0  0  0  0  0  0  0  0  0  0
   -9.0396    4.2083   -4.4415 H   0  0  0  0  0  0  0  0  0  0  0  0
  -11.3895    4.7067   -4.9441 H   0  0  0  0  0  0  0  0  0  0  0  0
  -13.8236    4.1085   -4.2540 H   0  0  0  0  0  0  0  0  0  0  0  0
  -13.6867    3.1048   -5.6919 H   0  0  0  0  0  0  0  0  0  0  0  0
  -14.2205    2.3849   -4.1715 H   0  0  0  0  0  0  0  0  0  0  0  0
  -12.5114    0.8395   -3.5413 H   0  0  0  0  0  0  0  0  0  0  0  0
  -10.1601    0.3266   -3.0617 H   0  0  0  0  0  0  0  0  0  0  0  0
   -6.2260    0.0338   -3.3760 H   0  0  0  0  0  0  0  0  0  0  0  0
   -5.4577   -1.1235   -1.3626 H   0  0  0  0  0  0  0  0  0  0  0  0
   -5.8374   -1.7548    0.9681 H   0  0  0  0  0  0  0  0  0  0  0  0
   -5.6358   -0.1565    1.6920 H   0  0  0  0  0  0  0  0  0  0  0  0
   -7.1562   -1.0195    1.8903 H   0  0  0  0  0  0  0  0  0  0  0  0
   -8.4309    0.8908    0.9365 H   0  0  0  0  0  0  0  0  0  0  0  0
   -9.1950    2.0669   -1.0810 H   0  0  0  0  0  0  0  0  0  0  0  0
   -7.1919    5.0682   -9.1225 H   0  0  0  0  0  0  0  0  0  0  0  0
   -7.6225    6.2922  -11.2033 H   0  0  0  0  0  0  0  0  0  0  0  0
   -5.5096    6.3529  -14.0478 H   0  0  0  0  0  0  0  0  0  0  0  0
   -6.8533    5.2627  -14.3619 H   0  0  0  0  0  0  0  0  0  0  0  0
   -7.1331    6.7670  -13.4783 H   0  0  0  0  0  0  0  0  0  0  0  0
   -4.6101    4.0078  -13.1796 H   0  0  0  0  0  0  0  0  0  0  0  0
   -4.1915    2.7607  -11.1095 H   0  0  0  0  0  0  0  0  0  0  0  0
   -3.3377    4.7239   -9.0192 H   0  0  0  0  0  0  0  0  0  0  0  0
   -1.0138    4.1846   -8.4308 H   0  0  0  0  0  0  0  0  0  0  0  0
    0.0802    1.9804   -6.3319 H   0  0  0  0  0  0  0  0  0  0  0  0
    0.6655    2.5292   -7.9025 H   0  0  0  0  0  0  0  0  0  0  0  0
    0.2089    0.8354   -7.6637 H   0  0  0  0  0  0  0  0  0  0  0  0
   -2.2111    0.2565   -7.2756 H   0  0  0  0  0  0  0  0  0  0  0  0
   -4.5350    0.7869   -7.8778 H   0  0  0  0  0  0  0  0  0  0  0  0
   -7.4033    2.2742  -10.2726 H   0  0  0  0  0  0  0  0  0  0  0  0
  -11.6486    1.4477  -13.6351 H   0  0  0  0  0  0  0  0  0  0  0  0
  -14.0789    1.4371  -13.2941 H   0  0  0  0  0  0  0  0  0  0  0  0
  1  2  2  0  0  0  0
  2  3  1  0  0  0  0
  3  4  2  0  0  0  0
  3  5  1  0  0  0  0
  5  6  2  0  0  0  0
  6  7  1  0  0  0  0
  6  8  1  0  0  0  0
  8  9  1  0  0  0  0
  8 10  2  0  0  0  0
 10 11  1  0  0  0  0
 10 12  1  0  0  0  0
 12 13  1  0  0  0  0
 12 14  2  0  0  0  0
 14 15  1  0  0  0  0
 15 16  2  0  0  0  0
 16 17  1  0  0  0  0
 17 18  3  0  0  0  0
 16 19  1  0  0  0  0
 19 20  3  0  0  0  0
  1 21  1  0  0  0  0
 21 22  2  0  0  0  0
 22 23  1  0  0  0  0
 23 24  1  0  0  0  0
 24 25  2  0  0  0  0
 25 26  1  0  0  0  0
 26 27  2  0  0  0  0
 27 28  1  0  0  0  0
 27 29  1  0  0  0  0
 29 30  2  0  0  0  0
 23 31  1  0  0  0  0
 31 32  2  0  0  0  0
 32 33  1  0  0  0  0
 33 34  2  0  0  0  0
 34 35  1  0  0  0  0
 34 36  1  0  0  0  0
 36 37  2  0  0  0  0
 22 38  1  0  0  0  0
 38 39  1  0  0  0  0
 39 40  1  0  0  0  0
 40 41  2  0  0  0  0
 41 42  1  0  0  0  0
 42 43  1  0  0  0  0
 43 44  2  0  0  0  0
 44 45  1  0  0  0  0
 45 46  2  0  0  0  0
 46 47  1  0  0  0  0
 46 48  1  0  0  0  0
 48 49  2  0  0  0  0
 42 50  1  0  0  0  0
 50 51  2  0  0  0  0
 51 52  1  0  0  0  0
 52 53  2  0  0  0  0
 53 54  1  0  0  0  0
 53 55  1  0  0  0  0
 55 56  2  0  0  0  0
 41 57  1  0  0  0  0
 57 58  1  0  0  0  0
 40 59  1  0  0  0  0
 59 60  2  0  0  0  0
 60 61  1  0  0  0  0
 61 62  2  0  0  0  0
 62 63  1  0  0  0  0
 63 64  2  0  0  0  0
 64 65  1  0  0  0  0
 65 66  1  0  0  0  0
 66 67  1  0  0  0  0
 65 68  2  0  0  0  0
 60 69  1  0  0  0  0
 69 70  1  0  0  0  0
 70 71  1  0  0  0  0
 71 72  1  0  0  0  0
 72 73  1  0  0  0  0
 73 74  1  0  0  0  0
 74 75  2  0  0  0  0
 75 76  1  0  0  0  0
 76 77  1  0  0  0  0
 74 78  1  0  0  0  0
 78 79  1  0  0  0  0
 79 80  1  0  0  0  0
 80 81  1  0  0  0  0
 81 82  1  0  0  0  0
 82 83  1  0  0  0  0
 83 84  2  0  0  0  0
 84 85  1  0  0  0  0
 85 86  2  0  0  0  0
 86 87  1  0  0  0  0
 87 88  1  0  0  0  0
 88 89  1  0  0  0  0
 87 90  2  0  0  0  0
 82 91  2  0  0  0  0
 91 92  1  0  0  0  0
 92 93  1  0  0  0  0
 93 94  1  0  0  0  0
 94 95  1  0  0  0  0
 95 96  1  0  0  0  0
 96 97  1  0  0  0  0
 97 98  1  0  0  0  0
 98 99  1  0  0  0  0
 99100  1  0  0  0  0
100101  1  0  0  0  0
 98102  1  0  0  0  0
102103  1  0  0  0  0
 95104  1  0  0  0  0
104105  1  0  0  0  0
 91106  1  0  0  0  0
106107  2  0  0  0  0
107108  1  0  0  0  0
108109  1  0  0  0  0
109110  2  0  0  0  0
110111  1  0  0  0  0
111112  2  0  0  0  0
112113  1  0  0  0  0
112114  1  0  0  0  0
114115  2  0  0  0  0
108116  1  0  0  0  0
116117  2  0  0  0  0
117118  1  0  0  0  0
118119  2  0  0  0  0
119120  1  0  0  0  0
119121  1  0  0  0  0
121122  2  0  0  0  0
107123  1  0  0  0  0
123124  1  0  0  0  0
124125  1  0  0  0  0
125126  2  0  0  0  0
126127  1  0  0  0  0
127128  1  0  0  0  0
128129  2  0  0  0  0
129130  1  0  0  0  0
130131  2  0  0  0  0
131132  1  0  0  0  0
131133  1  0  0  0  0
133134  2  0  0  0  0
127135  1  0  0  0  0
135136  2  0  0  0  0
136137  1  0  0  0  0
137138  2  0  0  0  0
138139  1  0  0  0  0
138140  1  0  0  0  0
140141  2  0  0  0  0
126142  1  0  0  0  0
142143  1  0  0  0  0
125144  1  0  0  0  0
144145  2  0  0  0  0
145146  1  0  0  0  0
146147  2  0  0  0  0
146148  1  0  0  0  0
148149  2  0  0  0  0
149150  1  0  0  0  0
150151  2  0  0  0  0
151152  1  0  0  0  0
152153  1  0  0  0  0
152154  2  0  0  0  0
154155  1  0  0  0  0
149156  1  0  0  0  0
156157  2  0  0  0  0
157158  1  0  0  0  0
158159  3  0  0  0  0
157160  1  0  0  0  0
160161  3  0  0  0  0
 15  2  1  0  0  0  0
 58 21  1  0  0  0  0
101 59  1  0  0  0  0
143106  1  0  0  0  0
156145  1  0  0  0  0
 14  5  1  0  0  0  0
 30 24  1  0  0  0  0
 37 31  1  0  0  0  0
 57 38  2  0  0  0  0
 68 61  1  0  0  0  0
100 69  2  0  0  0  0
115109  1  0  0  0  0
122116  1  0  0  0  0
142123  2  0  0  0  0
154148  1  0  0  0  0
 49 43  1  0  0  0  0
 56 50  1  0  0  0  0
 99 71  2  0  0  0  0
134128  1  0  0  0  0
141135  1  0  0  0  0
 97 72  2  0  0  0  0
 77 73  2  0  0  0  0
 96 78  2  0  0  0  0
 94 79  2  0  0  0  0
 93 81  2  0  0  0  0
 90 83  1  0  0  0  0
  1162  1  0  0  0  0
 25163  1  0  0  0  0
 26164  1  0  0  0  0
 28165  1  0  0  0  0
 28166  1  0  0  0  0
 28167  1  0  0  0  0
 29168  1  0  0  0  0
 30169  1  0  0  0  0
 32170  1  0  0  0  0
 33171  1  0  0  0  0
 35172  1  0  0  0  0
 35173  1  0  0  0  0
 35174  1  0  0  0  0
 36175  1  0  0  0  0
 37176  1  0  0  0  0
 44177  1  0  0  0  0
 45178  1  0  0  0  0
 47179  1  0  0  0  0
 47180  1  0  0  0  0
 47181  1  0  0  0  0
 48182  1  0  0  0  0
 49183  1  0  0  0  0
 51184  1  0  0  0  0
 52185  1  0  0  0  0
 54186  1  0  0  0  0
 54187  1  0  0  0  0
 54188  1  0  0  0  0
 55189  1  0  0  0  0
 56190  1  0  0  0  0
 62191  1  0  0  0  0
 63192  1  0  0  0  0
 64193  1  0  0  0  0
 66194  1  0  0  0  0
 66195  1  0  0  0  0
 67196  1  0  0  0  0
 67197  1  0  0  0  0
 67198  1  0  0  0  0
 68199  1  0  0  0  0
 84200  1  0  0  0  0
 85201  1  0  0  0  0
 86202  1  0  0  0  0
 88203  1  0  0  0  0
 88204  1  0  0  0  0
 89205  1  0  0  0  0
 89206  1  0  0  0  0
 89207  1  0  0  0  0
 90208  1  0  0  0  0
102209  1  0  0  0  0
102210  1  0  0  0  0
103211  1  0  0  0  0
103212  1  0  0  0  0
103213  1  0  0  0  0
104214  1  0  0  0  0
104215  1  0  0  0  0
105216  1  0  0  0  0
105217  1  0  0  0  0
105218  1  0  0  0  0
110219  1  0  0  0  0
111220  1  0  0  0  0
113221  1  0  0  0  0
113222  1  0  0  0  0
113223  1  0  0  0  0
114224  1  0  0  0  0
115225  1  0  0  0  0
117226  1  0  0  0  0
118227  1  0  0  0  0
120228  1  0  0  0  0
120229  1  0  0  0  0
120230  1  0  0  0  0
121231  1  0  0  0  0
122232  1  0  0  0  0
129233  1  0  0  0  0
130234  1  0  0  0  0
132235  1  0  0  0  0
132236  1  0  0  0  0
132237  1  0  0  0  0
133238  1  0  0  0  0
134239  1  0  0  0  0
136240  1  0  0  0  0
137241  1  0  0  0  0
139242  1  0  0  0  0
139243  1  0  0  0  0
139244  1  0  0  0  0
140245  1  0  0  0  0
141246  1  0  0  0  0
144247  1  0  0  0  0
150248  1  0  0  0  0
151249  1  0  0  0  0
M  END
