207

C          8.53230       -3.81520        6.39480
C          8.39210       -4.35810        7.66110
C          7.39170       -5.36960        7.99370
O          6.57920       -5.88210        7.24770
C          7.68280       -5.76930        9.39370
C          7.03460       -6.70380       10.17620
Cl         5.60740       -7.47350        9.63820
C          7.56560       -6.99840       11.43930
Cl         6.76880       -8.11430       12.46350
C          8.76020       -6.40970       11.84460
Cl         9.44560       -6.85540       13.34920
C          9.41790       -5.46400       11.04000
Cl        10.96230       -4.90710       11.53820
C          8.83410       -5.09040        9.83830
C          9.20510       -4.10950        8.81720
C          9.96110       -2.97360        8.98780
C         10.17350       -2.03620        7.95450
N         10.37970       -1.22160        7.17150
C         10.43570       -2.44700       10.20270
N         10.76320       -1.86350       11.13710
C          7.53580       -3.71020        5.43020
C          6.12240       -3.71240        5.52760
N          5.37590       -3.65570        6.66440
C          4.04600       -4.13810        6.63160
C          3.77160       -5.40050        6.11440
C          2.47180       -5.86170        6.08750
C          1.42340       -5.08470        6.57120
C          0.01790       -5.59750        6.51560
C          1.71360       -3.83260        7.09760
C          3.01100       -3.35760        7.13180
C          5.83020       -3.09330        7.86400
C          5.45200       -3.66510        9.07780
C          5.89660       -3.12660       10.27050
C          6.71570       -2.00560       10.29140
C          7.19900       -1.41880       11.57870
C          7.06520       -1.42360        9.07390
C          6.63620       -1.95500        7.87620
C          5.54330       -3.66940        4.23900
S          3.90810       -3.59470        3.66930
C          4.47210       -3.46790        2.01470
C          5.85710       -3.41460        1.91810
N          6.56400       -3.17850        0.75260
C          6.04160       -2.29630       -0.20530
C          5.35550       -1.15020        0.18740
C          4.77760       -0.32480       -0.75740
C          4.85750       -0.61620       -2.11270
C          4.16500        0.22960       -3.13670
C          5.59150       -1.73170       -2.49960
C          6.18630       -2.55450       -1.56600
C          7.78430       -3.83290        0.53160
C          7.99640       -5.12130        1.01130
C          9.19370       -5.76650        0.76950
C         10.20670       -5.15400        0.04610
C         11.50230       -5.85200       -0.23330
C          9.99320       -3.85910       -0.41580
C          8.80630       -3.20040       -0.17410
C          6.45040       -3.55500        3.19380
S          8.07920       -3.50970        3.75350
C          3.54720       -3.39050        0.92400
C          3.62450       -4.07850       -0.27130
C          4.48400       -5.24350       -0.47600
C          4.66970       -6.15860        0.55830
C          5.47340       -7.26610        0.36780
C          6.11700       -7.46050       -0.84090
C          5.92850       -6.56960       -1.89020
C          6.66890       -6.75630       -3.18270
C          8.09640       -6.21840       -3.05660
C          5.09080       -5.48080       -1.70510
C          2.69010       -3.57820       -1.20290
S          2.35000       -3.96410       -2.87000
C          1.08570       -2.78120       -2.86900
C          0.13920       -2.22960       -3.75200
C         -0.07510       -2.35710       -5.14370
C         -1.03580       -1.49870       -5.78930
N         -1.06550       -1.67560       -7.10030
S          0.00660       -2.82260       -7.49260
N          0.55920       -3.13750       -6.00400
C         -1.84770       -0.65330       -4.99880
C         -2.92200        0.20530       -5.29250
S         -3.75230        0.84510       -6.66830
C         -4.80190        1.73970       -5.58970
C         -5.82490        2.67180       -5.82080
C         -6.16010        3.14460       -7.16260
C         -6.28240        2.23520       -8.21030
C         -6.57560        2.68680       -9.48210
C         -6.74830        4.03880       -9.72060
C         -6.62300        4.96210       -8.68950
C         -6.79280        6.43190       -8.93990
C         -5.43630        7.11710       -9.11220
C         -6.31370        4.50480       -7.41850
C         -6.34390        3.15410       -4.61780
S         -5.49160        2.52790       -3.21510
C         -4.51580        1.52900       -4.23610
C         -3.43670        0.65810       -4.07000
N         -2.71350        0.12810       -3.02790
C         -1.71050       -0.64200       -3.58570
C         -0.61170       -1.29670       -2.99130
N         -0.09900       -1.22950       -1.70820
C          0.93240       -2.13210       -1.63960
C          1.86680       -2.57360       -0.69370
S          2.25830       -2.19900        0.94570
C         -0.13780       -0.08880       -0.81690
C          1.10550        0.78190       -0.98570
C         -3.33370       -0.08400       -1.73480
C         -4.64490       -0.85790       -1.86650
C         -7.42190        4.06070       -4.40270
C         -8.47880        4.26820       -5.29640
F         -8.67480        3.42660       -6.32470
C         -9.39040        5.30230       -5.13390
F        -10.38630        5.40090       -6.02210
C         -9.36510        6.15720       -4.02970
C         -8.45440        5.81720       -2.99140
N         -8.50050        6.49810       -1.82880
C         -7.65850        6.16900       -0.88060
O         -7.69990        6.78510        0.29350
C         -8.70930        7.78260        0.45460
C         -8.62960        8.30960        1.87500
C         -6.67330        5.14320       -1.06680
N         -6.62130        4.50830       -2.20150
C         -7.49450        4.80070       -3.18300
C         -5.71590        4.79410        0.01610
C        -10.23590        7.27470       -3.85910
C        -10.63580        8.11900       -4.85080
C         -9.96030        8.22840       -6.16440
O         -9.03540        7.57030       -6.58110
C        -10.53810        9.43500       -6.80100
C        -10.19050       10.01370       -8.00910
Cl        -9.08160        9.26970       -9.06780
C        -10.77570       11.24170       -8.34970
Cl       -10.41390       11.97230       -9.85220
C        -11.61560       11.88810       -7.44490
Cl       -12.23400       13.43390       -7.83640
C        -11.94990       11.30370       -6.21210
Cl       -12.83410       12.24480       -5.08350
C        -11.46620       10.03310       -5.92300
C        -11.64920        9.15280       -4.77230
C        -12.69690        9.13680       -3.88860
C        -13.90940        9.84950       -4.00500
N        -14.96560       10.29580       -4.05370
C        -12.76740        8.26310       -2.78020
N        -12.88590        7.61330       -1.84120
H          9.51550       -3.48080        6.08720
H          4.58850       -6.01410        5.76890
H          2.26440       -6.84520        5.69200
H         -0.65910       -4.94360        7.05890
H         -0.31680       -5.65780        5.48020
H         -0.04150       -6.59730        6.94180
H          0.91480       -3.21650        7.48380
H          3.22690       -2.38140        7.54100
H          4.81400       -4.53580        9.07710
H          5.60420       -3.59270       11.20000
H          6.77950       -0.42300       11.71860
H          8.28350       -1.32030       11.57420
H          6.90820       -2.03950       12.42210
H          7.68550       -0.53930        9.06770
H          6.91900       -1.48380        6.94680
H          5.27340       -0.90770        1.23700
H          4.25990        0.56540       -0.42910
H          4.80350        0.38610       -4.00350
H          3.25790       -0.27090       -3.47980
H          3.88900        1.19670       -2.72330
H          5.68860       -1.96420       -3.55020
H          6.75450       -3.41560       -1.88010
H          7.21490       -5.62430        1.55920
H          9.33480       -6.76950        1.14570
H         11.70250       -5.86950       -1.30380
H         11.48170       -6.87440        0.13520
H         12.32610       -5.32720        0.24960
H         10.77450       -3.35780       -0.96880
H          8.66340       -2.19090       -0.53010
H          4.16580       -6.01140        1.50230
H          5.60290       -7.97880        1.16950
H          6.76090       -8.31700       -0.97750
H          6.15140       -6.23170       -3.98780
H          6.70890       -7.81780       -3.43600
H          8.64440       -6.37400       -3.98290
H          8.08780       -5.15330       -2.83520
H          8.62330       -6.72140       -2.24890
H          4.91550       -4.79730       -2.52210
H         -6.17830        1.17810       -8.01890
H         -6.67900        1.97850      -10.29070
H         -6.99020        4.38290      -10.71590
H         -7.32470        6.88320       -8.10110
H         -7.38820        6.58160       -9.84270
H         -5.56990        8.18180       -9.28960
H         -4.82830        6.98850       -8.21940
H         -4.89870        6.68920       -9.95620
H         -6.19670        5.21730       -6.61320
H         -0.19620       -0.45790        0.21210
H         -1.01410        0.51560       -1.03830
H          2.00320        0.21160       -0.76700
H          1.16510        1.15460       -2.00600
H          1.05320        1.62770       -0.30570
H         -3.52580        0.88880       -1.27040
H         -2.65600       -0.66510       -1.11090
H         -5.38040       -0.28670       -2.42480
H         -4.47290       -1.80340       -2.37630
H         -5.04500       -1.06230       -0.87720
H         -9.68780        7.33530        0.24810
H         -8.53900        8.57920       -0.27830
H         -8.79170        7.50220        2.58380
H         -7.65130        8.74470        2.06120
H         -9.39100        9.06920        2.02370
H         -5.06710        3.99120       -0.31960
H         -5.12240        5.66740        0.28150
H         -6.26170        4.48650        0.90630
H        -10.50820        7.48070       -2.83280
