
  xtb     02082223013D
 energy: -437.318012503744 gnorm: 0.000341026382 xtb: 6.4.1 (unknown)
262290  0     0  0            999 V2000
  -13.0358    3.2005   -1.3060 C   0  0  0  0  0  0  0  0  0  0  0  0
  -13.7408    2.5703   -0.2947 C   0  0  0  0  0  0  0  0  0  0  0  0
  -13.1164    1.7073    0.7054 C   0  0  0  0  0  0  0  0  0  0  0  0
  -11.9429    1.3998    0.7894 O   0  0  0  0  0  0  0  0  0  0  0  0
  -14.2390    1.1426    1.4974 C   0  0  0  0  0  0  0  0  0  0  0  0
  -14.1893    0.2598    2.5575 C   0  0  0  0  0  0  0  0  0  0  0  0
  -12.6995   -0.2171    3.2446 Cl  0  0  0  0  0  0  0  0  0  0  0  0
  -15.3969   -0.2281    3.0752 C   0  0  0  0  0  0  0  0  0  0  0  0
  -15.3861   -1.2836    4.4222 Cl  0  0  0  0  0  0  0  0  0  0  0  0
  -16.6020    0.1178    2.4702 C   0  0  0  0  0  0  0  0  0  0  0  0
  -18.0594   -0.5667    3.0531 Cl  0  0  0  0  0  0  0  0  0  0  0  0
  -16.6444    1.0108    1.3864 C   0  0  0  0  0  0  0  0  0  0  0  0
  -18.1461    1.2567    0.5941 Cl  0  0  0  0  0  0  0  0  0  0  0  0
  -15.4589    1.5823    0.9475 C   0  0  0  0  0  0  0  0  0  0  0  0
  -15.1599    2.5789   -0.0817 C   0  0  0  0  0  0  0  0  0  0  0  0
  -15.9973    3.5599   -0.5588 C   0  0  0  0  0  0  0  0  0  0  0  0
  -15.5768    4.5416   -1.4811 C   0  0  0  0  0  0  0  0  0  0  0  0
  -15.3075    5.3801   -2.2186 N   0  0  0  0  0  0  0  0  0  0  0  0
  -17.2745    3.8881   -0.0695 C   0  0  0  0  0  0  0  0  0  0  0  0
  -18.2630    4.3172    0.3295 N   0  0  0  0  0  0  0  0  0  0  0  0
  -11.6930    3.5632   -1.2758 C   0  0  0  0  0  0  0  0  0  0  0  0
  -10.7944    3.7826   -0.2043 C   0  0  0  0  0  0  0  0  0  0  0  0
  -11.0941    3.8283    1.1235 N   0  0  0  0  0  0  0  0  0  0  0  0
  -12.3519    4.1957    1.6171 C   0  0  0  0  0  0  0  0  0  0  0  0
  -13.1141    5.1876    0.9995 C   0  0  0  0  0  0  0  0  0  0  0  0
  -14.3482    5.5308    1.5087 C   0  0  0  0  0  0  0  0  0  0  0  0
  -14.8667    4.9006    2.6389 C   0  0  0  0  0  0  0  0  0  0  0  0
  -16.2143    5.2778    3.1650 C   0  0  0  0  0  0  0  0  0  0  0  0
  -14.0934    3.9283    3.2588 C   0  0  0  0  0  0  0  0  0  0  0  0
  -12.8512    3.5789    2.7634 C   0  0  0  0  0  0  0  0  0  0  0  0
  -10.0738    3.5470    2.0617 C   0  0  0  0  0  0  0  0  0  0  0  0
   -9.2849    2.4100    1.9151 C   0  0  0  0  0  0  0  0  0  0  0  0
   -8.2927    2.1409    2.8348 C   0  0  0  0  0  0  0  0  0  0  0  0
   -8.0655    2.9881    3.9150 C   0  0  0  0  0  0  0  0  0  0  0  0
   -6.9712    2.6881    4.8919 C   0  0  0  0  0  0  0  0  0  0  0  0
   -8.8690    4.1122    4.0568 C   0  0  0  0  0  0  0  0  0  0  0  0
   -9.8657    4.3955    3.1424 C   0  0  0  0  0  0  0  0  0  0  0  0
   -9.5020    4.0743   -0.7012 C   0  0  0  0  0  0  0  0  0  0  0  0
   -7.9816    4.4028    0.0549 S   0  0  0  0  0  0  0  0  0  0  0  0
   -7.2400    4.6913   -1.5100 C   0  0  0  0  0  0  0  0  0  0  0  0
   -8.1189    4.4914   -2.5658 C   0  0  0  0  0  0  0  0  0  0  0  0
   -7.7853    4.5679   -3.9041 N   0  0  0  0  0  0  0  0  0  0  0  0
   -8.7094    5.0258   -4.8555 C   0  0  0  0  0  0  0  0  0  0  0  0
   -8.6746    4.5103   -6.1481 C   0  0  0  0  0  0  0  0  0  0  0  0
   -9.5755    4.9501   -7.0973 C   0  0  0  0  0  0  0  0  0  0  0  0
  -10.5368    5.9038   -6.7885 C   0  0  0  0  0  0  0  0  0  0  0  0
  -11.5283    6.3735   -7.8079 C   0  0  0  0  0  0  0  0  0  0  0  0
  -10.5600    6.4198   -5.4984 C   0  0  0  0  0  0  0  0  0  0  0  0
   -9.6584    5.9972   -4.5424 C   0  0  0  0  0  0  0  0  0  0  0  0
   -6.4693    4.2651   -4.3138 C   0  0  0  0  0  0  0  0  0  0  0  0
   -5.7445    5.1673   -5.0880 C   0  0  0  0  0  0  0  0  0  0  0  0
   -4.4343    4.8930   -5.4207 C   0  0  0  0  0  0  0  0  0  0  0  0
   -3.8172    3.7166   -5.0056 C   0  0  0  0  0  0  0  0  0  0  0  0
   -2.3823    3.4543   -5.3466 C   0  0  0  0  0  0  0  0  0  0  0  0
   -4.5635    2.8034   -4.2749 C   0  0  0  0  0  0  0  0  0  0  0  0
   -5.8764    3.0685   -3.9307 C   0  0  0  0  0  0  0  0  0  0  0  0
   -9.4115    4.1643   -2.0834 C   0  0  0  0  0  0  0  0  0  0  0  0
  -10.9265    3.8565   -2.8469 S   0  0  0  0  0  0  0  0  0  0  0  0
   -5.8138    4.8925   -1.5669 C   0  0  0  0  0  0  0  0  0  0  0  0
   -5.0413    5.9418   -2.0118 C   0  0  0  0  0  0  0  0  0  0  0  0
   -5.4961    7.2910   -2.3547 C   0  0  0  0  0  0  0  0  0  0  0  0
   -6.7445    7.5559   -2.9105 C   0  0  0  0  0  0  0  0  0  0  0  0
   -7.1084    8.8483   -3.2362 C   0  0  0  0  0  0  0  0  0  0  0  0
   -6.2406    9.9014   -3.0089 C   0  0  0  0  0  0  0  0  0  0  0  0
   -5.0023    9.6675   -2.4267 C   0  0  0  0  0  0  0  0  0  0  0  0
   -4.0256   10.7841   -2.1948 C   0  0  0  0  0  0  0  0  0  0  0  0
   -2.9752   10.8085   -3.3070 C   0  0  0  0  0  0  0  0  0  0  0  0
   -4.6478    8.3676   -2.1017 C   0  0  0  0  0  0  0  0  0  0  0  0
   -3.6667    5.5820   -2.0188 C   0  0  0  0  0  0  0  0  0  0  0  0
   -2.2338    6.3973   -2.5999 S   0  0  0  0  0  0  0  0  0  0  0  0
   -1.2926    5.0025   -2.1996 C   0  0  0  0  0  0  0  0  0  0  0  0
    0.0475    4.5809   -2.2023 C   0  0  0  0  0  0  0  0  0  0  0  0
    1.2384    5.2853   -2.4805 C   0  0  0  0  0  0  0  0  0  0  0  0
    2.4968    4.6570   -2.1945 C   0  0  0  0  0  0  0  0  0  0  0  0
    3.5258    5.4566   -2.4271 N   0  0  0  0  0  0  0  0  0  0  0  0
    2.9614    6.8742   -2.9701 S   0  0  0  0  0  0  0  0  0  0  0  0
    1.3801    6.5248   -2.9235 N   0  0  0  0  0  0  0  0  0  0  0  0
    2.5055    3.3101   -1.7728 C   0  0  0  0  0  0  0  0  0  0  0  0
    3.5683    2.4254   -1.5202 C   0  0  0  0  0  0  0  0  0  0  0  0
    5.2946    2.4440   -1.3920 S   0  0  0  0  0  0  0  0  0  0  0  0
    5.2642    0.7447   -0.9959 C   0  0  0  0  0  0  0  0  0  0  0  0
    6.2703   -0.1791   -0.6369 C   0  0  0  0  0  0  0  0  0  0  0  0
    7.7076    0.0867   -0.6039 C   0  0  0  0  0  0  0  0  0  0  0  0
    8.6095   -0.8889   -1.0239 C   0  0  0  0  0  0  0  0  0  0  0  0
    9.9683   -0.6443   -0.9729 C   0  0  0  0  0  0  0  0  0  0  0  0
   10.4421    0.5607   -0.4857 C   0  0  0  0  0  0  0  0  0  0  0  0
    9.5579    1.5518   -0.0784 C   0  0  0  0  0  0  0  0  0  0  0  0
   10.0742    2.8383    0.4984 C   0  0  0  0  0  0  0  0  0  0  0  0
   10.4459    2.6470    1.9707 C   0  0  0  0  0  0  0  0  0  0  0  0
    8.1953    1.3125   -0.1625 C   0  0  0  0  0  0  0  0  0  0  0  0
    5.7273   -1.4110   -0.3402 C   0  0  0  0  0  0  0  0  0  0  0  0
    3.9911   -1.4740   -0.5945 S   0  0  0  0  0  0  0  0  0  0  0  0
    3.9791    0.2049   -0.9959 C   0  0  0  0  0  0  0  0  0  0  0  0
    3.0058    1.1721   -1.2812 C   0  0  0  0  0  0  0  0  0  0  0  0
    1.6400    1.2494   -1.3359 N   0  0  0  0  0  0  0  0  0  0  0  0
    1.3037    2.5651   -1.6172 C   0  0  0  0  0  0  0  0  0  0  0  0
    0.0611    3.2480   -1.7064 C   0  0  0  0  0  0  0  0  0  0  0  0
   -1.2387    2.8923   -1.3827 N   0  0  0  0  0  0  0  0  0  0  0  0
   -2.0465    3.9610   -1.6624 C   0  0  0  0  0  0  0  0  0  0  0  0
   -3.4035    4.2978   -1.5546 C   0  0  0  0  0  0  0  0  0  0  0  0
   -4.8464    3.5171   -1.0280 S   0  0  0  0  0  0  0  0  0  0  0  0
   -1.7321    1.8194   -0.5507 C   0  0  0  0  0  0  0  0  0  0  0  0
   -1.0980    1.8458    0.8374 C   0  0  0  0  0  0  0  0  0  0  0  0
    0.8609    0.0422   -1.4969 C   0  0  0  0  0  0  0  0  0  0  0  0
    0.2333   -0.0397   -2.8859 C   0  0  0  0  0  0  0  0  0  0  0  0
    6.3950   -2.4879    0.3337 C   0  0  0  0  0  0  0  0  0  0  0  0
    7.0729   -2.3738    1.5380 C   0  0  0  0  0  0  0  0  0  0  0  0
    7.1609   -1.2209    2.3014 N   0  0  0  0  0  0  0  0  0  0  0  0
    6.0762   -0.3346    2.3707 C   0  0  0  0  0  0  0  0  0  0  0  0
    6.2843    1.0432    2.3970 C   0  0  0  0  0  0  0  0  0  0  0  0
    5.2133    1.9116    2.3839 C   0  0  0  0  0  0  0  0  0  0  0  0
    3.9048    1.4408    2.3584 C   0  0  0  0  0  0  0  0  0  0  0  0
    2.7546    2.3985    2.2898 C   0  0  0  0  0  0  0  0  0  0  0  0
    3.7032    0.0684    2.3896 C   0  0  0  0  0  0  0  0  0  0  0  0
    4.7688   -0.8119    2.4009 C   0  0  0  0  0  0  0  0  0  0  0  0
    8.3598   -0.9325    2.9689 C   0  0  0  0  0  0  0  0  0  0  0  0
    8.3412   -0.2882    4.2047 C   0  0  0  0  0  0  0  0  0  0  0  0
    9.5230    0.0055    4.8515 C   0  0  0  0  0  0  0  0  0  0  0  0
   10.7522   -0.3434    4.3012 C   0  0  0  0  0  0  0  0  0  0  0  0
   12.0239   -0.0050    5.0172 C   0  0  0  0  0  0  0  0  0  0  0  0
   10.7608   -1.0001    3.0790 C   0  0  0  0  0  0  0  0  0  0  0  0
    9.5847   -1.2904    2.4150 C   0  0  0  0  0  0  0  0  0  0  0  0
    7.6198   -3.6225    1.9202 C   0  0  0  0  0  0  0  0  0  0  0  0
    8.5320   -4.1850    3.2727 S   0  0  0  0  0  0  0  0  0  0  0  0
    8.5776   -5.8144    2.6089 C   0  0  0  0  0  0  0  0  0  0  0  0
    7.9069   -5.9018    1.3858 C   0  0  0  0  0  0  0  0  0  0  0  0
    7.6197   -7.0689    0.6918 N   0  0  0  0  0  0  0  0  0  0  0  0
    6.2726   -7.3416    0.4235 C   0  0  0  0  0  0  0  0  0  0  0  0
    5.8788   -7.9489   -0.7658 C   0  0  0  0  0  0  0  0  0  0  0  0
    4.5425   -8.2017   -1.0066 C   0  0  0  0  0  0  0  0  0  0  0  0
    3.5650   -7.8503   -0.0853 C   0  0  0  0  0  0  0  0  0  0  0  0
    2.1149   -8.1222   -0.3454 C   0  0  0  0  0  0  0  0  0  0  0  0
    3.9670   -7.2483    1.1023 C   0  0  0  0  0  0  0  0  0  0  0  0
    5.2984   -7.0013    1.3623 C   0  0  0  0  0  0  0  0  0  0  0  0
    8.6272   -7.7466   -0.0200 C   0  0  0  0  0  0  0  0  0  0  0  0
    9.5522   -7.0325   -0.7720 C   0  0  0  0  0  0  0  0  0  0  0  0
   10.5285   -7.7047   -1.4839 C   0  0  0  0  0  0  0  0  0  0  0  0
   10.6073   -9.0896   -1.4585 C   0  0  0  0  0  0  0  0  0  0  0  0
   11.6659   -9.8166   -2.2316 C   0  0  0  0  0  0  0  0  0  0  0  0
    9.6849   -9.7934   -0.6893 C   0  0  0  0  0  0  0  0  0  0  0  0
    8.7019   -9.1348    0.0215 C   0  0  0  0  0  0  0  0  0  0  0  0
    7.3473   -4.6532    1.0346 C   0  0  0  0  0  0  0  0  0  0  0  0
    6.3691   -4.1277   -0.2898 S   0  0  0  0  0  0  0  0  0  0  0  0
    8.9916   -6.8751    3.4489 C   0  0  0  0  0  0  0  0  0  0  0  0
    9.7342   -7.9577    3.0695 C   0  0  0  0  0  0  0  0  0  0  0  0
   10.7733   -7.9012    2.0198 C   0  0  0  0  0  0  0  0  0  0  0  0
   11.0477   -6.9522    1.3145 O   0  0  0  0  0  0  0  0  0  0  0  0
   11.5244   -9.1665    2.1385 C   0  0  0  0  0  0  0  0  0  0  0  0
   12.6120   -9.5706    1.3696 C   0  0  0  0  0  0  0  0  0  0  0  0
   13.1194  -10.8000    1.7170 C   0  0  0  0  0  0  0  0  0  0  0  0
   12.6111  -11.5559    2.7818 C   0  0  0  0  0  0  0  0  0  0  0  0
   11.5456  -11.1651    3.5565 C   0  0  0  0  0  0  0  0  0  0  0  0
   10.9950   -9.9323    3.1966 C   0  0  0  0  0  0  0  0  0  0  0  0
    9.8642   -9.2111    3.7705 C   0  0  0  0  0  0  0  0  0  0  0  0
    8.9870   -9.6817    4.7154 C   0  0  0  0  0  0  0  0  0  0  0  0
    7.8282   -8.9851    5.1156 C   0  0  0  0  0  0  0  0  0  0  0  0
    6.8528   -8.4827    5.4560 N   0  0  0  0  0  0  0  0  0  0  0  0
    9.1005  -10.9276    5.3615 C   0  0  0  0  0  0  0  0  0  0  0  0
    9.1435  -11.9272    5.9257 N   0  0  0  0  0  0  0  0  0  0  0  0
   13.6273  -12.6550    2.5933 C   0  0  0  0  0  0  0  0  0  0  0  0
   13.1579  -13.9715    1.9294 C   0  0  0  0  0  0  0  0  0  0  0  0
   11.9758  -13.6122    1.0645 C   0  0  0  0  0  0  0  0  0  0  0  0
   12.4280  -12.9063    0.0370 C   0  0  0  0  0  0  0  0  0  0  0  0
   13.9232  -12.7749    0.1880 C   0  0  0  0  0  0  0  0  0  0  0  0
   14.2451  -14.1229    0.8532 C   0  0  0  0  0  0  0  0  0  0  0  0
   14.1746  -11.8268    1.3881 C   0  0  0  0  0  0  0  0  0  0  0  0
  -13.5490    3.3985   -2.2391 H   0  0  0  0  0  0  0  0  0  0  0  0
  -12.7331    5.6951    0.1260 H   0  0  0  0  0  0  0  0  0  0  0  0
  -14.9246    6.3039    1.0217 H   0  0  0  0  0  0  0  0  0  0  0  0
  -16.9882    5.0480    2.4330 H   0  0  0  0  0  0  0  0  0  0  0  0
  -16.2584    6.3480    3.3611 H   0  0  0  0  0  0  0  0  0  0  0  0
  -16.4369    4.7429    4.0844 H   0  0  0  0  0  0  0  0  0  0  0  0
  -14.4671    3.4299    4.1413 H   0  0  0  0  0  0  0  0  0  0  0  0
  -12.2605    2.8229    3.2580 H   0  0  0  0  0  0  0  0  0  0  0  0
   -9.4828    1.7360    1.0968 H   0  0  0  0  0  0  0  0  0  0  0  0
   -7.6874    1.2540    2.7191 H   0  0  0  0  0  0  0  0  0  0  0  0
   -6.0004    2.8611    4.4276 H   0  0  0  0  0  0  0  0  0  0  0  0
   -7.0482    3.3207    5.7722 H   0  0  0  0  0  0  0  0  0  0  0  0
   -7.0099    1.6457    5.2028 H   0  0  0  0  0  0  0  0  0  0  0  0
   -8.7123    4.7798    4.8915 H   0  0  0  0  0  0  0  0  0  0  0  0
  -10.4826    5.2746    3.2596 H   0  0  0  0  0  0  0  0  0  0  0  0
   -7.9384    3.7616   -6.4009 H   0  0  0  0  0  0  0  0  0  0  0  0
   -9.5345    4.5357   -8.0944 H   0  0  0  0  0  0  0  0  0  0  0  0
  -12.5418    6.1434   -7.4815 H   0  0  0  0  0  0  0  0  0  0  0  0
  -11.3561    5.8954   -8.7687 H   0  0  0  0  0  0  0  0  0  0  0  0
  -11.4593    7.4527   -7.9381 H   0  0  0  0  0  0  0  0  0  0  0  0
  -11.2935    7.1689   -5.2386 H   0  0  0  0  0  0  0  0  0  0  0  0
   -9.6874    6.4319   -3.5539 H   0  0  0  0  0  0  0  0  0  0  0  0
   -6.2077    6.0900   -5.4041 H   0  0  0  0  0  0  0  0  0  0  0  0
   -3.8706    5.6122   -5.9965 H   0  0  0  0  0  0  0  0  0  0  0  0
   -2.2635    3.3352   -6.4231 H   0  0  0  0  0  0  0  0  0  0  0  0
   -1.7579    4.2906   -5.0356 H   0  0  0  0  0  0  0  0  0  0  0  0
   -2.0238    2.5511   -4.8582 H   0  0  0  0  0  0  0  0  0  0  0  0
   -4.1124    1.8737   -3.9575 H   0  0  0  0  0  0  0  0  0  0  0  0
   -6.4440    2.3545   -3.3512 H   0  0  0  0  0  0  0  0  0  0  0  0
   -7.4297    6.7539   -3.1026 H   0  0  0  0  0  0  0  0  0  0  0  0
   -8.0770    9.0313   -3.6787 H   0  0  0  0  0  0  0  0  0  0  0  0
   -6.5282   10.9080   -3.2761 H   0  0  0  0  0  0  0  0  0  0  0  0
   -3.5257   10.6433   -1.2341 H   0  0  0  0  0  0  0  0  0  0  0  0
   -4.5518   11.7402   -2.1702 H   0  0  0  0  0  0  0  0  0  0  0  0
   -2.4322    9.8665   -3.3355 H   0  0  0  0  0  0  0  0  0  0  0  0
   -3.4523   10.9582   -4.2732 H   0  0  0  0  0  0  0  0  0  0  0  0
   -2.2648   11.6150   -3.1417 H   0  0  0  0  0  0  0  0  0  0  0  0
   -3.6959    8.1999   -1.6222 H   0  0  0  0  0  0  0  0  0  0  0  0
    8.2424   -1.8289   -1.4084 H   0  0  0  0  0  0  0  0  0  0  0  0
   10.6623   -1.4011   -1.3092 H   0  0  0  0  0  0  0  0  0  0  0  0
   11.5062    0.7394   -0.4307 H   0  0  0  0  0  0  0  0  0  0  0  0
    9.3129    3.6158    0.4129 H   0  0  0  0  0  0  0  0  0  0  0  0
   10.9586    3.1632   -0.0539 H   0  0  0  0  0  0  0  0  0  0  0  0
    9.5772    2.3404    2.5495 H   0  0  0  0  0  0  0  0  0  0  0  0
   10.8314    3.5738    2.3894 H   0  0  0  0  0  0  0  0  0  0  0  0
   11.2035    1.8738    2.0748 H   0  0  0  0  0  0  0  0  0  0  0  0
    7.4995    2.0836    0.1314 H   0  0  0  0  0  0  0  0  0  0  0  0
   -2.8106    1.9712   -0.4580 H   0  0  0  0  0  0  0  0  0  0  0  0
   -1.5841    0.8551   -1.0393 H   0  0  0  0  0  0  0  0  0  0  0  0
   -0.0159    1.7635    0.7743 H   0  0  0  0  0  0  0  0  0  0  0  0
   -1.4819    1.0241    1.4364 H   0  0  0  0  0  0  0  0  0  0  0  0
   -1.3388    2.7815    1.3368 H   0  0  0  0  0  0  0  0  0  0  0  0
    1.5536   -0.7925   -1.3639 H   0  0  0  0  0  0  0  0  0  0  0  0
    0.1067   -0.0401   -0.7127 H   0  0  0  0  0  0  0  0  0  0  0  0
   -0.4172    0.8114   -3.0736 H   0  0  0  0  0  0  0  0  0  0  0  0
    1.0118   -0.0445   -3.6452 H   0  0  0  0  0  0  0  0  0  0  0  0
   -0.3463   -0.9545   -2.9780 H   0  0  0  0  0  0  0  0  0  0  0  0
    7.2940    1.4225    2.4112 H   0  0  0  0  0  0  0  0  0  0  0  0
    5.3934    2.9769    2.3777 H   0  0  0  0  0  0  0  0  0  0  0  0
    2.8835    3.2068    3.0071 H   0  0  0  0  0  0  0  0  0  0  0  0
    2.6961    2.8453    1.2961 H   0  0  0  0  0  0  0  0  0  0  0  0
    1.8148    1.8927    2.4989 H   0  0  0  0  0  0  0  0  0  0  0  0
    2.6965   -0.3253    2.3984 H   0  0  0  0  0  0  0  0  0  0  0  0
    4.5887   -1.8770    2.4243 H   0  0  0  0  0  0  0  0  0  0  0  0
    7.3951   -0.0222    4.6529 H   0  0  0  0  0  0  0  0  0  0  0  0
    9.4934    0.5086    5.8074 H   0  0  0  0  0  0  0  0  0  0  0  0
   12.0036   -0.3932    6.0344 H   0  0  0  0  0  0  0  0  0  0  0  0
   12.8842   -0.4240    4.5018 H   0  0  0  0  0  0  0  0  0  0  0  0
   12.1478    1.0762    5.0768 H   0  0  0  0  0  0  0  0  0  0  0  0
   11.7010   -1.2859    2.6301 H   0  0  0  0  0  0  0  0  0  0  0  0
    9.6154   -1.7832    1.4555 H   0  0  0  0  0  0  0  0  0  0  0  0
    6.6214   -8.2116   -1.5044 H   0  0  0  0  0  0  0  0  0  0  0  0
    4.2557   -8.6707   -1.9369 H   0  0  0  0  0  0  0  0  0  0  0  0
    1.9528   -8.4110   -1.3808 H   0  0  0  0  0  0  0  0  0  0  0  0
    1.5147   -7.2404   -0.1280 H   0  0  0  0  0  0  0  0  0  0  0  0
    1.7628   -8.9306    0.2956 H   0  0  0  0  0  0  0  0  0  0  0  0
    3.2249   -6.9764    1.8388 H   0  0  0  0  0  0  0  0  0  0  0  0
    5.5920   -6.5516    2.2996 H   0  0  0  0  0  0  0  0  0  0  0  0
    9.5012   -5.9549   -0.7983 H   0  0  0  0  0  0  0  0  0  0  0  0
   11.2410   -7.1385   -2.0655 H   0  0  0  0  0  0  0  0  0  0  0  0
   12.1552   -9.1507   -2.9382 H   0  0  0  0  0  0  0  0  0  0  0  0
   11.2344  -10.6521   -2.7808 H   0  0  0  0  0  0  0  0  0  0  0  0
   12.4225  -10.2138   -1.5548 H   0  0  0  0  0  0  0  0  0  0  0  0
    9.7403  -10.8718   -0.6419 H   0  0  0  0  0  0  0  0  0  0  0  0
    7.9862   -9.6866    0.6140 H   0  0  0  0  0  0  0  0  0  0  0  0
    8.6689   -6.7954    4.4814 H   0  0  0  0  0  0  0  0  0  0  0  0
   12.9905   -8.9410    0.5798 H   0  0  0  0  0  0  0  0  0  0  0  0
   11.1691  -11.7493    4.3801 H   0  0  0  0  0  0  0  0  0  0  0  0
   14.2969  -12.8277    3.4336 H   0  0  0  0  0  0  0  0  0  0  0  0
   13.0151  -14.8000    2.6178 H   0  0  0  0  0  0  0  0  0  0  0  0
   10.9582  -13.8522    1.3110 H   0  0  0  0  0  0  0  0  0  0  0  0
   11.8619  -12.4446   -0.7499 H   0  0  0  0  0  0  0  0  0  0  0  0
   14.4758  -12.5180   -0.7126 H   0  0  0  0  0  0  0  0  0  0  0  0
   15.2539  -14.1762    1.2603 H   0  0  0  0  0  0  0  0  0  0  0  0
   14.0697  -14.9712    0.1931 H   0  0  0  0  0  0  0  0  0  0  0  0
   15.2069  -11.4834    1.4301 H   0  0  0  0  0  0  0  0  0  0  0  0
  1  2  2  0  0  0  0
  2  3  1  0  0  0  0
  3  4  2  0  0  0  0
  3  5  1  0  0  0  0
  5  6  2  0  0  0  0
  6  7  1  0  0  0  0
  6  8  1  0  0  0  0
  8  9  1  0  0  0  0
  8 10  2  0  0  0  0
 10 11  1  0  0  0  0
 10 12  1  0  0  0  0
 12 13  1  0  0  0  0
 12 14  2  0  0  0  0
 14 15  1  0  0  0  0
 15 16  2  0  0  0  0
 16 17  1  0  0  0  0
 17 18  3  0  0  0  0
 16 19  1  0  0  0  0
 19 20  3  0  0  0  0
  1 21  1  0  0  0  0
 21 22  2  0  0  0  0
 22 23  1  0  0  0  0
 23 24  1  0  0  0  0
 24 25  2  0  0  0  0
 25 26  1  0  0  0  0
 26 27  2  0  0  0  0
 27 28  1  0  0  0  0
 27 29  1  0  0  0  0
 29 30  2  0  0  0  0
 23 31  1  0  0  0  0
 31 32  2  0  0  0  0
 32 33  1  0  0  0  0
 33 34  2  0  0  0  0
 34 35  1  0  0  0  0
 34 36  1  0  0  0  0
 36 37  2  0  0  0  0
 22 38  1  0  0  0  0
 38 39  1  0  0  0  0
 39 40  1  0  0  0  0
 40 41  2  0  0  0  0
 41 42  1  0  0  0  0
 42 43  1  0  0  0  0
 43 44  2  0  0  0  0
 44 45  1  0  0  0  0
 45 46  2  0  0  0  0
 46 47  1  0  0  0  0
 46 48  1  0  0  0  0
 48 49  2  0  0  0  0
 42 50  1  0  0  0  0
 50 51  2  0  0  0  0
 51 52  1  0  0  0  0
 52 53  2  0  0  0  0
 53 54  1  0  0  0  0
 53 55  1  0  0  0  0
 55 56  2  0  0  0  0
 41 57  1  0  0  0  0
 57 58  1  0  0  0  0
 40 59  1  0  0  0  0
 59 60  2  0  0  0  0
 60 61  1  0  0  0  0
 61 62  2  0  0  0  0
 62 63  1  0  0  0  0
 63 64  2  0  0  0  0
 64 65  1  0  0  0  0
 65 66  1  0  0  0  0
 66 67  1  0  0  0  0
 65 68  2  0  0  0  0
 60 69  1  0  0  0  0
 69 70  1  0  0  0  0
 70 71  1  0  0  0  0
 71 72  1  0  0  0  0
 72 73  1  0  0  0  0
 73 74  1  0  0  0  0
 74 75  2  0  0  0  0
 75 76  1  0  0  0  0
 76 77  1  0  0  0  0
 74 78  1  0  0  0  0
 78 79  1  0  0  0  0
 79 80  1  0  0  0  0
 80 81  1  0  0  0  0
 81 82  1  0  0  0  0
 82 83  1  0  0  0  0
 83 84  2  0  0  0  0
 84 85  1  0  0  0  0
 85 86  2  0  0  0  0
 86 87  1  0  0  0  0
 87 88  1  0  0  0  0
 88 89  1  0  0  0  0
 87 90  2  0  0  0  0
 82 91  2  0  0  0  0
 91 92  1  0  0  0  0
 92 93  1  0  0  0  0
 93 94  1  0  0  0  0
 94 95  1  0  0  0  0
 95 96  1  0  0  0  0
 96 97  1  0  0  0  0
 97 98  1  0  0  0  0
 98 99  1  0  0  0  0
 99100  1  0  0  0  0
100101  1  0  0  0  0
 98102  1  0  0  0  0
102103  1  0  0  0  0
 95104  1  0  0  0  0
104105  1  0  0  0  0
 91106  1  0  0  0  0
106107  2  0  0  0  0
107108  1  0  0  0  0
108109  1  0  0  0  0
109110  2  0  0  0  0
110111  1  0  0  0  0
111112  2  0  0  0  0
112113  1  0  0  0  0
112114  1  0  0  0  0
114115  2  0  0  0  0
108116  1  0  0  0  0
116117  2  0  0  0  0
117118  1  0  0  0  0
118119  2  0  0  0  0
119120  1  0  0  0  0
119121  1  0  0  0  0
121122  2  0  0  0  0
107123  1  0  0  0  0
123124  1  0  0  0  0
124125  1  0  0  0  0
125126  2  0  0  0  0
126127  1  0  0  0  0
127128  1  0  0  0  0
128129  2  0  0  0  0
129130  1  0  0  0  0
130131  2  0  0  0  0
131132  1  0  0  0  0
131133  1  0  0  0  0
133134  2  0  0  0  0
127135  1  0  0  0  0
135136  2  0  0  0  0
136137  1  0  0  0  0
137138  2  0  0  0  0
138139  1  0  0  0  0
138140  1  0  0  0  0
140141  2  0  0  0  0
126142  1  0  0  0  0
142143  1  0  0  0  0
125144  1  0  0  0  0
144145  2  0  0  0  0
145146  1  0  0  0  0
146147  2  0  0  0  0
146148  1  0  0  0  0
148149  2  0  0  0  0
149150  1  0  0  0  0
150151  2  0  0  0  0
151152  1  0  0  0  0
152153  2  0  0  0  0
153154  1  0  0  0  0
154155  2  0  0  0  0
155156  1  0  0  0  0
156157  3  0  0  0  0
155158  1  0  0  0  0
158159  3  0  0  0  0
151160  1  0  0  0  0
160161  1  0  0  0  0
161162  1  0  0  0  0
162163  2  0  0  0  0
163164  1  0  0  0  0
164165  1  0  0  0  0
164166  1  0  0  0  0
 15  2  1  0  0  0  0
 58 21  1  0  0  0  0
101 59  1  0  0  0  0
143106  1  0  0  0  0
154145  1  0  0  0  0
166160  1  0  0  0  0
 14  5  1  0  0  0  0
 30 24  1  0  0  0  0
 37 31  1  0  0  0  0
 57 38  2  0  0  0  0
 68 61  1  0  0  0  0
100 69  2  0  0  0  0
115109  1  0  0  0  0
122116  1  0  0  0  0
142123  2  0  0  0  0
153148  1  0  0  0  0
165161  1  0  0  0  0
 49 43  1  0  0  0  0
 56 50  1  0  0  0  0
 99 71  2  0  0  0  0
134128  1  0  0  0  0
141135  1  0  0  0  0
166150  1  0  0  0  0
 97 72  2  0  0  0  0
 77 73  2  0  0  0  0
 96 78  2  0  0  0  0
 94 79  2  0  0  0  0
 93 81  2  0  0  0  0
 90 83  1  0  0  0  0
  1167  1  0  0  0  0
 25168  1  0  0  0  0
 26169  1  0  0  0  0
 28170  1  0  0  0  0
 28171  1  0  0  0  0
 28172  1  0  0  0  0
 29173  1  0  0  0  0
 30174  1  0  0  0  0
 32175  1  0  0  0  0
 33176  1  0  0  0  0
 35177  1  0  0  0  0
 35178  1  0  0  0  0
 35179  1  0  0  0  0
 36180  1  0  0  0  0
 37181  1  0  0  0  0
 44182  1  0  0  0  0
 45183  1  0  0  0  0
 47184  1  0  0  0  0
 47185  1  0  0  0  0
 47186  1  0  0  0  0
 48187  1  0  0  0  0
 49188  1  0  0  0  0
 51189  1  0  0  0  0
 52190  1  0  0  0  0
 54191  1  0  0  0  0
 54192  1  0  0  0  0
 54193  1  0  0  0  0
 55194  1  0  0  0  0
 56195  1  0  0  0  0
 62196  1  0  0  0  0
 63197  1  0  0  0  0
 64198  1  0  0  0  0
 66199  1  0  0  0  0
 66200  1  0  0  0  0
 67201  1  0  0  0  0
 67202  1  0  0  0  0
 67203  1  0  0  0  0
 68204  1  0  0  0  0
 84205  1  0  0  0  0
 85206  1  0  0  0  0
 86207  1  0  0  0  0
 88208  1  0  0  0  0
 88209  1  0  0  0  0
 89210  1  0  0  0  0
 89211  1  0  0  0  0
 89212  1  0  0  0  0
 90213  1  0  0  0  0
102214  1  0  0  0  0
102215  1  0  0  0  0
103216  1  0  0  0  0
103217  1  0  0  0  0
103218  1  0  0  0  0
104219  1  0  0  0  0
104220  1  0  0  0  0
105221  1  0  0  0  0
105222  1  0  0  0  0
105223  1  0  0  0  0
110224  1  0  0  0  0
111225  1  0  0  0  0
113226  1  0  0  0  0
113227  1  0  0  0  0
113228  1  0  0  0  0
114229  1  0  0  0  0
115230  1  0  0  0  0
117231  1  0  0  0  0
118232  1  0  0  0  0
120233  1  0  0  0  0
120234  1  0  0  0  0
120235  1  0  0  0  0
121236  1  0  0  0  0
122237  1  0  0  0  0
129238  1  0  0  0  0
130239  1  0  0  0  0
132240  1  0  0  0  0
132241  1  0  0  0  0
132242  1  0  0  0  0
133243  1  0  0  0  0
134244  1  0  0  0  0
136245  1  0  0  0  0
137246  1  0  0  0  0
139247  1  0  0  0  0
139248  1  0  0  0  0
139249  1  0  0  0  0
140250  1  0  0  0  0
141251  1  0  0  0  0
144252  1  0  0  0  0
149253  1  0  0  0  0
152254  1  0  0  0  0
160255  1  0  0  0  0
161256  1  0  0  0  0
162257  1  0  0  0  0
163258  1  0  0  0  0
164259  1  0  0  0  0
165260  1  0  0  0  0
165261  1  0  0  0  0
166262  1  0  0  0  0
M  END
