
  xtb     02082213503D
 energy: -450.077404586146 gnorm: 0.000415868192 xtb: 6.4.1 (unknown)
261287  0     0  0            999 V2000
   -1.5482    7.6628   -0.5341 C   0  0  0  0  0  0  0  0  0  0  0  0
   -2.0390    7.5213    0.7568 C   0  0  0  0  0  0  0  0  0  0  0  0
   -2.7217    6.3310    1.2574 C   0  0  0  0  0  0  0  0  0  0  0  0
   -3.0438    5.3406    0.6279 O   0  0  0  0  0  0  0  0  0  0  0  0
   -3.0882    6.6472    2.6656 C   0  0  0  0  0  0  0  0  0  0  0  0
   -3.7037    5.8507    3.6117 C   0  0  0  0  0  0  0  0  0  0  0  0
   -4.0442    4.2056    3.3130 Cl  0  0  0  0  0  0  0  0  0  0  0  0
   -4.0096    6.4172    4.8562 C   0  0  0  0  0  0  0  0  0  0  0  0
   -4.6765    5.4467    6.0961 Cl  0  0  0  0  0  0  0  0  0  0  0  0
   -3.7986    7.7730    5.0821 C   0  0  0  0  0  0  0  0  0  0  0  0
   -4.2914    8.4659    6.5692 Cl  0  0  0  0  0  0  0  0  0  0  0  0
   -3.1851    8.5801    4.1111 C   0  0  0  0  0  0  0  0  0  0  0  0
   -3.1095   10.2717    4.3870 Cl  0  0  0  0  0  0  0  0  0  0  0  0
   -2.7469    7.9866    2.9362 C   0  0  0  0  0  0  0  0  0  0  0  0
   -1.9740    8.4976    1.8044 C   0  0  0  0  0  0  0  0  0  0  0  0
   -1.0802    9.5442    1.8339 C   0  0  0  0  0  0  0  0  0  0  0  0
   -0.2864    9.9188    0.7304 C   0  0  0  0  0  0  0  0  0  0  0  0
    0.4056   10.2793   -0.1130 N   0  0  0  0  0  0  0  0  0  0  0  0
   -0.6413   10.2290    2.9815 C   0  0  0  0  0  0  0  0  0  0  0  0
   -0.1238   10.7545    3.8630 N   0  0  0  0  0  0  0  0  0  0  0  0
   -1.1352    6.6528   -1.3894 C   0  0  0  0  0  0  0  0  0  0  0  0
   -0.8071    5.2901   -1.1654 C   0  0  0  0  0  0  0  0  0  0  0  0
   -0.5853    4.6815    0.0270 N   0  0  0  0  0  0  0  0  0  0  0  0
   -0.1845    5.3506    1.1922 C   0  0  0  0  0  0  0  0  0  0  0  0
    0.6487    6.4682    1.1532 C   0  0  0  0  0  0  0  0  0  0  0  0
    1.0091    7.1037    2.3232 C   0  0  0  0  0  0  0  0  0  0  0  0
    0.5525    6.6553    3.5607 C   0  0  0  0  0  0  0  0  0  0  0  0
    0.9267    7.3797    4.8140 C   0  0  0  0  0  0  0  0  0  0  0  0
   -0.2387    5.5140    3.5921 C   0  0  0  0  0  0  0  0  0  0  0  0
   -0.6017    4.8613    2.4298 C   0  0  0  0  0  0  0  0  0  0  0  0
   -0.5904    3.2647    0.0850 C   0  0  0  0  0  0  0  0  0  0  0  0
   -1.6989    2.5445   -0.3393 C   0  0  0  0  0  0  0  0  0  0  0  0
   -1.6727    1.1629   -0.2966 C   0  0  0  0  0  0  0  0  0  0  0  0
   -0.5544    0.4814    0.1632 C   0  0  0  0  0  0  0  0  0  0  0  0
   -0.4977   -1.0134    0.1828 C   0  0  0  0  0  0  0  0  0  0  0  0
    0.5371    1.2182    0.6130 C   0  0  0  0  0  0  0  0  0  0  0  0
    0.5254    2.5959    0.5786 C   0  0  0  0  0  0  0  0  0  0  0  0
   -0.5634    4.6456   -2.4036 C   0  0  0  0  0  0  0  0  0  0  0  0
   -0.2143    3.0126   -2.8400 S   0  0  0  0  0  0  0  0  0  0  0  0
    0.0817    3.4999   -4.5037 C   0  0  0  0  0  0  0  0  0  0  0  0
   -0.1414    4.8443   -4.7181 C   0  0  0  0  0  0  0  0  0  0  0  0
   -0.0298    5.4886   -5.9337 N   0  0  0  0  0  0  0  0  0  0  0  0
   -0.3138    4.8219   -7.1306 C   0  0  0  0  0  0  0  0  0  0  0  0
    0.3877    5.1314   -8.2944 C   0  0  0  0  0  0  0  0  0  0  0  0
    0.1208    4.4571   -9.4681 C   0  0  0  0  0  0  0  0  0  0  0  0
   -0.8437    3.4566   -9.5228 C   0  0  0  0  0  0  0  0  0  0  0  0
   -1.0943    2.7105  -10.7979 C   0  0  0  0  0  0  0  0  0  0  0  0
   -1.5550    3.1705   -8.3659 C   0  0  0  0  0  0  0  0  0  0  0  0
   -1.3053    3.8455   -7.1869 C   0  0  0  0  0  0  0  0  0  0  0  0
    0.4477    6.8123   -5.9436 C   0  0  0  0  0  0  0  0  0  0  0  0
    1.4997    7.1817   -5.1098 C   0  0  0  0  0  0  0  0  0  0  0  0
    1.9501    8.4857   -5.1003 C   0  0  0  0  0  0  0  0  0  0  0  0
    1.3752    9.4494   -5.9211 C   0  0  0  0  0  0  0  0  0  0  0  0
    1.8637   10.8643   -5.8821 C   0  0  0  0  0  0  0  0  0  0  0  0
    0.3342    9.0678   -6.7581 C   0  0  0  0  0  0  0  0  0  0  0  0
   -0.1321    7.7677   -6.7711 C   0  0  0  0  0  0  0  0  0  0  0  0
   -0.5250    5.4836   -3.5090 C   0  0  0  0  0  0  0  0  0  0  0  0
   -0.9125    7.1109   -3.0919 S   0  0  0  0  0  0  0  0  0  0  0  0
    0.5890    2.4711   -5.3753 C   0  0  0  0  0  0  0  0  0  0  0  0
    1.8713    2.3417   -5.8496 C   0  0  0  0  0  0  0  0  0  0  0  0
    2.8630    3.4311   -5.8071 C   0  0  0  0  0  0  0  0  0  0  0  0
    3.1474    4.0956   -6.9945 C   0  0  0  0  0  0  0  0  0  0  0  0
    4.0146    5.1709   -7.0084 C   0  0  0  0  0  0  0  0  0  0  0  0
    4.6103    5.5850   -5.8297 C   0  0  0  0  0  0  0  0  0  0  0  0
    4.3580    4.9012   -4.6552 C   0  0  0  0  0  0  0  0  0  0  0  0
    3.4910    3.8154   -4.6222 C   0  0  0  0  0  0  0  0  0  0  0  0
    3.3331    3.0347   -3.3482 C   0  0  0  0  0  0  0  0  0  0  0  0
    4.4992    2.0564   -3.1890 C   0  0  0  0  0  0  0  0  0  0  0  0
    2.1111    1.0376   -6.3326 C   0  0  0  0  0  0  0  0  0  0  0  0
    3.5994    0.1752   -6.6521 S   0  0  0  0  0  0  0  0  0  0  0  0
    2.7273   -1.3222   -6.5615 C   0  0  0  0  0  0  0  0  0  0  0  0
    3.0008   -2.6905   -6.3257 C   0  0  0  0  0  0  0  0  0  0  0  0
    4.1986   -3.4229   -6.1662 C   0  0  0  0  0  0  0  0  0  0  0  0
    4.1519   -4.7165   -5.5287 C   0  0  0  0  0  0  0  0  0  0  0  0
    5.3514   -5.2617   -5.4139 N   0  0  0  0  0  0  0  0  0  0  0  0
    6.4438   -4.2520   -6.0522 S   0  0  0  0  0  0  0  0  0  0  0  0
    5.4314   -3.0679   -6.4889 N   0  0  0  0  0  0  0  0  0  0  0  0
    2.9212   -5.1868   -5.0139 C   0  0  0  0  0  0  0  0  0  0  0  0
    2.6166   -6.1065   -3.9918 C   0  0  0  0  0  0  0  0  0  0  0  0
    3.4474   -7.0437   -2.7831 S   0  0  0  0  0  0  0  0  0  0  0  0
    1.9695   -7.1070   -1.8353 C   0  0  0  0  0  0  0  0  0  0  0  0
    1.7173   -7.3657   -0.4750 C   0  0  0  0  0  0  0  0  0  0  0  0
    2.7611   -7.8080    0.4707 C   0  0  0  0  0  0  0  0  0  0  0  0
    3.4908   -6.8835    1.2234 C   0  0  0  0  0  0  0  0  0  0  0  0
    3.2649   -5.4023    1.1082 C   0  0  0  0  0  0  0  0  0  0  0  0
    4.3170   -4.7654    0.1984 C   0  0  0  0  0  0  0  0  0  0  0  0
    4.4757   -7.3562    2.0813 C   0  0  0  0  0  0  0  0  0  0  0  0
    4.7437   -8.7075    2.1934 C   0  0  0  0  0  0  0  0  0  0  0  0
    4.0135   -9.6174    1.4487 C   0  0  0  0  0  0  0  0  0  0  0  0
    3.0268   -9.1669    0.5913 C   0  0  0  0  0  0  0  0  0  0  0  0
    0.4123   -7.0403   -0.1353 C   0  0  0  0  0  0  0  0  0  0  0  0
   -0.5266   -6.4968   -1.5185 S   0  0  0  0  0  0  0  0  0  0  0  0
    0.8787   -6.5549   -2.5125 C   0  0  0  0  0  0  0  0  0  0  0  0
    1.2511   -5.9653   -3.7224 C   0  0  0  0  0  0  0  0  0  0  0  0
    0.6884   -5.0393   -4.5575 N   0  0  0  0  0  0  0  0  0  0  0  0
    1.7099   -4.5010   -5.3143 C   0  0  0  0  0  0  0  0  0  0  0  0
    1.7528   -3.2951   -6.0459 C   0  0  0  0  0  0  0  0  0  0  0  0
    0.7231   -2.3679   -6.2269 N   0  0  0  0  0  0  0  0  0  0  0  0
    1.3478   -1.1500   -6.4344 C   0  0  0  0  0  0  0  0  0  0  0  0
    1.0001    0.1961   -6.2615 C   0  0  0  0  0  0  0  0  0  0  0  0
   -0.3681    1.0169   -5.6017 S   0  0  0  0  0  0  0  0  0  0  0  0
   -0.4806   -2.6925   -6.9814 C   0  0  0  0  0  0  0  0  0  0  0  0
   -1.7210   -1.9557   -6.4922 C   0  0  0  0  0  0  0  0  0  0  0  0
   -0.5951   -4.4730   -4.2073 C   0  0  0  0  0  0  0  0  0  0  0  0
   -0.4442   -3.2948   -3.2472 C   0  0  0  0  0  0  0  0  0  0  0  0
   -0.1430   -6.7659    1.1453 C   0  0  0  0  0  0  0  0  0  0  0  0
    0.4512   -6.8445    2.3750 C   0  0  0  0  0  0  0  0  0  0  0  0
   -0.1949   -6.0685    3.3636 C   0  0  0  0  0  0  0  0  0  0  0  0
    0.3106   -5.7402    4.6394 C   0  0  0  0  0  0  0  0  0  0  0  0
    1.5379   -6.3716    5.0838 C   0  0  0  0  0  0  0  0  0  0  0  0
    1.8293   -7.7071    5.0385 C   0  0  0  0  0  0  0  0  0  0  0  0
    3.1615   -7.9620    5.3984 C   0  0  0  0  0  0  0  0  0  0  0  0
    4.1494   -9.3694    5.5117 S   0  0  0  0  0  0  0  0  0  0  0  0
    5.5472   -8.4020    5.9269 C   0  0  0  0  0  0  0  0  0  0  0  0
    7.2263   -9.2188    6.2124 Si  0  0  0  0  0  4  0  0  0  0  0  0
    7.4368   -9.5070    8.0915 C   0  0  0  0  0  0  0  0  0  0  0  0
    6.3468  -10.3974    8.6801 C   0  0  0  0  0  0  0  0  0  0  0  0
    8.5760   -8.0282    5.5678 C   0  0  0  0  0  0  0  0  0  0  0  0
    8.4136   -7.6713    4.0938 C   0  0  0  0  0  0  0  0  0  0  0  0
    7.2220  -10.8685    5.2449 C   0  0  0  0  0  0  0  0  0  0  0  0
    8.4852  -11.6969    5.4582 C   0  0  0  0  0  0  0  0  0  0  0  0
    5.2413   -7.0737    5.9952 C   0  0  0  0  0  0  0  0  0  0  0  0
    3.8926   -6.8166    5.6984 C   0  0  0  0  0  0  0  0  0  0  0  0
    2.9111   -5.3988    5.5759 S   0  0  0  0  0  0  0  0  0  0  0  0
   -0.3433   -4.7268    5.3256 C   0  0  0  0  0  0  0  0  0  0  0  0
   -1.5177   -4.1059    4.8254 C   0  0  0  0  0  0  0  0  0  0  0  0
   -2.0681   -4.4829    3.5791 C   0  0  0  0  0  0  0  0  0  0  0  0
   -3.1929   -3.7376    3.0499 C   0  0  0  0  0  0  0  0  0  0  0  0
   -3.0587   -2.9792    1.4729 S   0  0  0  0  0  0  0  0  0  0  0  0
   -4.5362   -2.1228    1.7335 C   0  0  0  0  0  0  0  0  0  0  0  0
   -5.2574   -1.1422    1.0332 C   0  0  0  0  0  0  0  0  0  0  0  0
   -6.3742   -0.7318    1.7030 C   0  0  0  0  0  0  0  0  0  0  0  0
   -7.5730    0.6605    1.2378 Si  0  0  0  0  0  4  0  0  0  0  0  0
   -6.6423    2.3330    1.1436 C   0  0  0  0  0  0  0  0  0  0  0  0
   -5.2426    2.2871    0.5389 C   0  0  0  0  0  0  0  0  0  0  0  0
   -8.8737    0.7875    2.6323 C   0  0  0  0  0  0  0  0  0  0  0  0
   -9.8918   -0.3470    2.6401 C   0  0  0  0  0  0  0  0  0  0  0  0
   -8.4392    0.1980   -0.4083 C   0  0  0  0  0  0  0  0  0  0  0  0
   -7.5562    0.2952   -1.6475 C   0  0  0  0  0  0  0  0  0  0  0  0
   -6.5677   -1.5909    3.2169 S   0  0  0  0  0  0  0  0  0  0  0  0
   -5.1059   -2.4678    2.9558 C   0  0  0  0  0  0  0  0  0  0  0  0
   -4.3387   -3.3753    3.7047 C   0  0  0  0  0  0  0  0  0  0  0  0
   -1.3581   -5.4284    2.8636 C   0  0  0  0  0  0  0  0  0  0  0  0
   -1.6540   -5.8679    1.2075 S   0  0  0  0  0  0  0  0  0  0  0  0
   -1.8989   -3.0014    5.6007 C   0  0  0  0  0  0  0  0  0  0  0  0
   -1.0704   -2.7531    6.6677 C   0  0  0  0  0  0  0  0  0  0  0  0
    0.1818   -3.9725    6.8065 S   0  0  0  0  0  0  0  0  0  0  0  0
   -1.1821   -1.6599    7.5581 C   0  0  0  0  0  0  0  0  0  0  0  0
   -1.8350   -0.4969    7.2760 C   0  0  0  0  0  0  0  0  0  0  0  0
   -2.2998    0.3966    8.3690 C   0  0  0  0  0  0  0  0  0  0  0  0
   -1.9408    0.3797    9.5200 O   0  0  0  0  0  0  0  0  0  0  0  0
   -3.3514    1.2412    7.7462 C   0  0  0  0  0  0  0  0  0  0  0  0
   -4.2782    2.0739    8.3502 C   0  0  0  0  0  0  0  0  0  0  0  0
   -4.2070    2.4197   10.0189 Cl  0  0  0  0  0  0  0  0  0  0  0  0
   -5.3032    2.6139    7.5575 C   0  0  0  0  0  0  0  0  0  0  0  0
   -6.4720    3.6391    8.2647 Cl  0  0  0  0  0  0  0  0  0  0  0  0
   -5.3954    2.2884    6.2045 C   0  0  0  0  0  0  0  0  0  0  0  0
   -6.7117    2.8670    5.2844 Cl  0  0  0  0  0  0  0  0  0  0  0  0
   -4.4332    1.4728    5.5903 C   0  0  0  0  0  0  0  0  0  0  0  0
   -4.6579    1.0151    3.9576 Cl  0  0  0  0  0  0  0  0  0  0  0  0
   -3.3902    0.9814    6.3617 C   0  0  0  0  0  0  0  0  0  0  0  0
   -2.2892    0.0823    6.0248 C   0  0  0  0  0  0  0  0  0  0  0  0
   -1.6242    0.0598    4.8266 C   0  0  0  0  0  0  0  0  0  0  0  0
   -0.5252   -0.7737    4.5263 C   0  0  0  0  0  0  0  0  0  0  0  0
    0.3686   -1.4032    4.1759 N   0  0  0  0  0  0  0  0  0  0  0  0
   -1.8192    0.9770    3.7719 C   0  0  0  0  0  0  0  0  0  0  0  0
   -1.8288    1.7243    2.9005 N   0  0  0  0  0  0  0  0  0  0  0  0
   -1.4905    8.6639   -0.9434 H   0  0  0  0  0  0  0  0  0  0  0  0
    1.0206    6.8356    0.2083 H   0  0  0  0  0  0  0  0  0  0  0  0
    1.6538    7.9695    2.2780 H   0  0  0  0  0  0  0  0  0  0  0  0
    0.7168    8.4441    4.7197 H   0  0  0  0  0  0  0  0  0  0  0  0
    0.3801    6.9871    5.6675 H   0  0  0  0  0  0  0  0  0  0  0  0
    1.9938    7.2719    5.0065 H   0  0  0  0  0  0  0  0  0  0  0  0
   -0.5866    5.1314    4.5409 H   0  0  0  0  0  0  0  0  0  0  0  0
   -1.2140    3.9732    2.4692 H   0  0  0  0  0  0  0  0  0  0  0  0
   -2.5741    3.0773   -0.6756 H   0  0  0  0  0  0  0  0  0  0  0  0
   -2.5386    0.6074   -0.6251 H   0  0  0  0  0  0  0  0  0  0  0  0
   -1.4037   -1.4470   -0.2309 H   0  0  0  0  0  0  0  0  0  0  0  0
   -0.3726   -1.3746    1.2031 H   0  0  0  0  0  0  0  0  0  0  0  0
    0.3543   -1.3642   -0.3981 H   0  0  0  0  0  0  0  0  0  0  0  0
    1.4055    0.6998    0.9921 H   0  0  0  0  0  0  0  0  0  0  0  0
    1.3785    3.1621    0.9236 H   0  0  0  0  0  0  0  0  0  0  0  0
    1.1464    5.8989   -8.2677 H   0  0  0  0  0  0  0  0  0  0  0  0
    0.6792    4.7051  -10.3596 H   0  0  0  0  0  0  0  0  0  0  0  0
   -1.1728    3.3992  -11.6371 H   0  0  0  0  0  0  0  0  0  0  0  0
   -0.2682    2.0290  -11.0039 H   0  0  0  0  0  0  0  0  0  0  0  0
   -2.0105    2.1286  -10.7347 H   0  0  0  0  0  0  0  0  0  0  0  0
   -2.3241    2.4113   -8.3840 H   0  0  0  0  0  0  0  0  0  0  0  0
   -1.8893    3.6207   -6.3066 H   0  0  0  0  0  0  0  0  0  0  0  0
    1.9660    6.4379   -4.4802 H   0  0  0  0  0  0  0  0  0  0  0  0
    2.7644    8.7612   -4.4465 H   0  0  0  0  0  0  0  0  0  0  0  0
    2.9502   10.8976   -5.9398 H   0  0  0  0  0  0  0  0  0  0  0  0
    1.4498   11.4438   -6.7033 H   0  0  0  0  0  0  0  0  0  0  0  0
    1.5666   11.3341   -4.9447 H   0  0  0  0  0  0  0  0  0  0  0  0
   -0.1278    9.8007   -7.4037 H   0  0  0  0  0  0  0  0  0  0  0  0
   -0.9490    7.4857   -7.4190 H   0  0  0  0  0  0  0  0  0  0  0  0
    2.6724    3.7633   -7.9057 H   0  0  0  0  0  0  0  0  0  0  0  0
    4.2224    5.6853   -7.9346 H   0  0  0  0  0  0  0  0  0  0  0  0
    5.2785    6.4331   -5.8280 H   0  0  0  0  0  0  0  0  0  0  0  0
    4.8409    5.2121   -3.7393 H   0  0  0  0  0  0  0  0  0  0  0  0
    2.4011    2.4701   -3.3511 H   0  0  0  0  0  0  0  0  0  0  0  0
    3.3149    3.7175   -2.4954 H   0  0  0  0  0  0  0  0  0  0  0  0
    4.3899    1.4868   -2.2691 H   0  0  0  0  0  0  0  0  0  0  0  0
    4.5263    1.3631   -4.0268 H   0  0  0  0  0  0  0  0  0  0  0  0
    5.4457    2.5910   -3.1588 H   0  0  0  0  0  0  0  0  0  0  0  0
    3.3279   -4.9503    2.1010 H   0  0  0  0  0  0  0  0  0  0  0  0
    2.2705   -5.1969    0.7094 H   0  0  0  0  0  0  0  0  0  0  0  0
    4.1554   -3.6924    0.1286 H   0  0  0  0  0  0  0  0  0  0  0  0
    4.2655   -5.1913   -0.8009 H   0  0  0  0  0  0  0  0  0  0  0  0
    5.3153   -4.9421    0.5913 H   0  0  0  0  0  0  0  0  0  0  0  0
    5.0381   -6.6465    2.6715 H   0  0  0  0  0  0  0  0  0  0  0  0
    5.5185   -9.0488    2.8632 H   0  0  0  0  0  0  0  0  0  0  0  0
    4.2110  -10.6751    1.5350 H   0  0  0  0  0  0  0  0  0  0  0  0
    2.4520   -9.8698    0.0056 H   0  0  0  0  0  0  0  0  0  0  0  0
   -0.6181   -3.7746   -6.9394 H   0  0  0  0  0  0  0  0  0  0  0  0
   -0.3097   -2.4361   -8.0362 H   0  0  0  0  0  0  0  0  0  0  0  0
   -2.6002   -2.3664   -6.9821 H   0  0  0  0  0  0  0  0  0  0  0  0
   -1.6570   -0.8995   -6.7351 H   0  0  0  0  0  0  0  0  0  0  0  0
   -1.8400   -2.0474   -5.4170 H   0  0  0  0  0  0  0  0  0  0  0  0
   -1.1672   -5.2683   -3.7221 H   0  0  0  0  0  0  0  0  0  0  0  0
   -1.1367   -4.1744   -5.0996 H   0  0  0  0  0  0  0  0  0  0  0  0
   -1.4244   -2.9331   -2.9498 H   0  0  0  0  0  0  0  0  0  0  0  0
    0.0898   -3.6063   -2.3528 H   0  0  0  0  0  0  0  0  0  0  0  0
    0.1057   -2.4826   -3.7161 H   0  0  0  0  0  0  0  0  0  0  0  0
    1.3753   -7.3630    2.5440 H   0  0  0  0  0  0  0  0  0  0  0  0
    1.1127   -8.4645    4.7780 H   0  0  0  0  0  0  0  0  0  0  0  0
    8.4107   -9.9545    8.2918 H   0  0  0  0  0  0  0  0  0  0  0  0
    7.4269   -8.5475    8.6107 H   0  0  0  0  0  0  0  0  0  0  0  0
    6.4816  -10.5171    9.7535 H   0  0  0  0  0  0  0  0  0  0  0  0
    6.3662  -11.3833    8.2229 H   0  0  0  0  0  0  0  0  0  0  0  0
    5.3648   -9.9639    8.5062 H   0  0  0  0  0  0  0  0  0  0  0  0
    9.5587   -8.4753    5.7186 H   0  0  0  0  0  0  0  0  0  0  0  0
    8.5669   -7.1109    6.1573 H   0  0  0  0  0  0  0  0  0  0  0  0
    9.1858   -6.9728    3.7764 H   0  0  0  0  0  0  0  0  0  0  0  0
    7.4444   -7.2114    3.9169 H   0  0  0  0  0  0  0  0  0  0  0  0
    8.4862   -8.5598    3.4717 H   0  0  0  0  0  0  0  0  0  0  0  0
    7.1052  -10.6746    4.1773 H   0  0  0  0  0  0  0  0  0  0  0  0
    6.3532  -11.4586    5.5410 H   0  0  0  0  0  0  0  0  0  0  0  0
    9.3653  -11.1447    5.1374 H   0  0  0  0  0  0  0  0  0  0  0  0
    8.6072  -11.9488    6.5085 H   0  0  0  0  0  0  0  0  0  0  0  0
    8.4405  -12.6241    4.8897 H   0  0  0  0  0  0  0  0  0  0  0  0
    5.9618   -6.3155    6.2401 H   0  0  0  0  0  0  0  0  0  0  0  0
   -4.9582   -0.7397    0.0840 H   0  0  0  0  0  0  0  0  0  0  0  0
   -6.5706    2.7574    2.1465 H   0  0  0  0  0  0  0  0  0  0  0  0
   -7.2501    3.0307    0.5645 H   0  0  0  0  0  0  0  0  0  0  0  0
   -4.5867    1.6456    1.1228 H   0  0  0  0  0  0  0  0  0  0  0  0
   -5.2712    1.9070   -0.4793 H   0  0  0  0  0  0  0  0  0  0  0  0
   -4.8040    3.2829    0.5188 H   0  0  0  0  0  0  0  0  0  0  0  0
   -8.3657    0.8085    3.5974 H   0  0  0  0  0  0  0  0  0  0  0  0
   -9.4048    1.7363    2.5459 H   0  0  0  0  0  0  0  0  0  0  0  0
  -10.4609   -0.3592    1.7141 H   0  0  0  0  0  0  0  0  0  0  0  0
  -10.5903   -0.2323    3.4670 H   0  0  0  0  0  0  0  0  0  0  0  0
   -9.3947   -1.3077    2.7487 H   0  0  0  0  0  0  0  0  0  0  0  0
   -8.8327   -0.8176   -0.3385 H   0  0  0  0  0  0  0  0  0  0  0  0
   -9.3007    0.8540   -0.5434 H   0  0  0  0  0  0  0  0  0  0  0  0
   -8.1151    0.0197   -2.5405 H   0  0  0  0  0  0  0  0  0  0  0  0
   -6.7026   -0.3728   -1.5648 H   0  0  0  0  0  0  0  0  0  0  0  0
   -7.1890    1.3097   -1.7784 H   0  0  0  0  0  0  0  0  0  0  0  0
   -4.6209   -3.7597    4.6682 H   0  0  0  0  0  0  0  0  0  0  0  0
   -2.7607   -2.3968    5.3840 H   0  0  0  0  0  0  0  0  0  0  0  0
   -0.7865   -1.7693    8.5606 H   0  0  0  0  0  0  0  0  0  0  0  0
  1  2  2  0  0  0  0
  2  3  1  0  0  0  0
  3  4  2  0  0  0  0
  3  5  1  0  0  0  0
  5  6  2  0  0  0  0
  6  7  1  0  0  0  0
  6  8  1  0  0  0  0
  8  9  1  0  0  0  0
  8 10  2  0  0  0  0
 10 11  1  0  0  0  0
 10 12  1  0  0  0  0
 12 13  1  0  0  0  0
 12 14  2  0  0  0  0
 14 15  1  0  0  0  0
 15 16  2  0  0  0  0
 16 17  1  0  0  0  0
 17 18  3  0  0  0  0
 16 19  1  0  0  0  0
 19 20  3  0  0  0  0
  1 21  1  0  0  0  0
 21 22  2  0  0  0  0
 22 23  1  0  0  0  0
 23 24  1  0  0  0  0
 24 25  2  0  0  0  0
 25 26  1  0  0  0  0
 26 27  2  0  0  0  0
 27 28  1  0  0  0  0
 27 29  1  0  0  0  0
 29 30  2  0  0  0  0
 23 31  1  0  0  0  0
 31 32  2  0  0  0  0
 32 33  1  0  0  0  0
 33 34  2  0  0  0  0
 34 35  1  0  0  0  0
 34 36  1  0  0  0  0
 36 37  2  0  0  0  0
 22 38  1  0  0  0  0
 38 39  1  0  0  0  0
 39 40  1  0  0  0  0
 40 41  2  0  0  0  0
 41 42  1  0  0  0  0
 42 43  1  0  0  0  0
 43 44  2  0  0  0  0
 44 45  1  0  0  0  0
 45 46  2  0  0  0  0
 46 47  1  0  0  0  0
 46 48  1  0  0  0  0
 48 49  2  0  0  0  0
 42 50  1  0  0  0  0
 50 51  2  0  0  0  0
 51 52  1  0  0  0  0
 52 53  2  0  0  0  0
 53 54  1  0  0  0  0
 53 55  1  0  0  0  0
 55 56  2  0  0  0  0
 41 57  1  0  0  0  0
 57 58  1  0  0  0  0
 40 59  1  0  0  0  0
 59 60  2  0  0  0  0
 60 61  1  0  0  0  0
 61 62  2  0  0  0  0
 62 63  1  0  0  0  0
 63 64  2  0  0  0  0
 64 65  1  0  0  0  0
 65 66  2  0  0  0  0
 66 67  1  0  0  0  0
 67 68  1  0  0  0  0
 60 69  1  0  0  0  0
 69 70  1  0  0  0  0
 70 71  1  0  0  0  0
 71 72  1  0  0  0  0
 72 73  1  0  0  0  0
 73 74  1  0  0  0  0
 74 75  2  0  0  0  0
 75 76  1  0  0  0  0
 76 77  1  0  0  0  0
 74 78  1  0  0  0  0
 78 79  1  0  0  0  0
 79 80  1  0  0  0  0
 80 81  1  0  0  0  0
 81 82  1  0  0  0  0
 82 83  1  0  0  0  0
 83 84  2  0  0  0  0
 84 85  1  0  0  0  0
 85 86  1  0  0  0  0
 84 87  1  0  0  0  0
 87 88  2  0  0  0  0
 88 89  1  0  0  0  0
 89 90  2  0  0  0  0
 82 91  2  0  0  0  0
 91 92  1  0  0  0  0
 92 93  1  0  0  0  0
 93 94  1  0  0  0  0
 94 95  1  0  0  0  0
 95 96  1  0  0  0  0
 96 97  1  0  0  0  0
 97 98  1  0  0  0  0
 98 99  1  0  0  0  0
 99100  1  0  0  0  0
100101  1  0  0  0  0
 98102  1  0  0  0  0
102103  1  0  0  0  0
 95104  1  0  0  0  0
104105  1  0  0  0  0
 91106  1  0  0  0  0
106107  2  0  0  0  0
107108  1  0  0  0  0
108109  2  0  0  0  0
109110  1  0  0  0  0
110111  2  0  0  0  0
111112  1  0  0  0  0
112113  1  0  0  0  0
113114  1  0  0  0  0
114115  1  0  0  0  0
115116  1  0  0  0  0
116117  1  0  0  0  0
115118  1  0  0  0  0
118119  1  0  0  0  0
115120  1  0  0  0  0
120121  1  0  0  0  0
114122  2  0  0  0  0
122123  1  0  0  0  0
123124  1  0  0  0  0
109125  1  0  0  0  0
125126  2  0  0  0  0
126127  1  0  0  0  0
127128  1  0  0  0  0
128129  1  0  0  0  0
129130  1  0  0  0  0
130131  1  0  0  0  0
131132  2  0  0  0  0
132133  1  0  0  0  0
133134  1  0  0  0  0
134135  1  0  0  0  0
133136  1  0  0  0  0
136137  1  0  0  0  0
133138  1  0  0  0  0
138139  1  0  0  0  0
132140  1  0  0  0  0
140141  1  0  0  0  0
141142  1  0  0  0  0
127143  2  0  0  0  0
143144  1  0  0  0  0
126145  1  0  0  0  0
145146  2  0  0  0  0
146147  1  0  0  0  0
146148  1  0  0  0  0
148149  2  0  0  0  0
149150  1  0  0  0  0
150151  2  0  0  0  0
150152  1  0  0  0  0
152153  2  0  0  0  0
153154  1  0  0  0  0
153155  1  0  0  0  0
155156  1  0  0  0  0
155157  2  0  0  0  0
157158  1  0  0  0  0
157159  1  0  0  0  0
159160  1  0  0  0  0
159161  2  0  0  0  0
161162  1  0  0  0  0
162163  2  0  0  0  0
163164  1  0  0  0  0
164165  3  0  0  0  0
163166  1  0  0  0  0
166167  3  0  0  0  0
 15  2  1  0  0  0  0
 58 21  1  0  0  0  0
101 59  1  0  0  0  0
144106  1  0  0  0  0
162149  1  0  0  0  0
 14  5  1  0  0  0  0
 30 24  1  0  0  0  0
 37 31  1  0  0  0  0
 57 38  2  0  0  0  0
 66 61  1  0  0  0  0
100 69  2  0  0  0  0
143108  1  0  0  0  0
161152  1  0  0  0  0
 49 43  1  0  0  0  0
 56 50  1  0  0  0  0
 99 71  2  0  0  0  0
124110  1  0  0  0  0
147125  1  0  0  0  0
 97 72  2  0  0  0  0
123112  2  0  0  0  0
142128  2  0  0  0  0
 77 73  2  0  0  0  0
 96 78  2  0  0  0  0
141130  2  0  0  0  0
 94 79  2  0  0  0  0
 93 81  2  0  0  0  0
 90 83  1  0  0  0  0
  1168  1  0  0  0  0
 25169  1  0  0  0  0
 26170  1  0  0  0  0
 28171  1  0  0  0  0
 28172  1  0  0  0  0
 28173  1  0  0  0  0
 29174  1  0  0  0  0
 30175  1  0  0  0  0
 32176  1  0  0  0  0
 33177  1  0  0  0  0
 35178  1  0  0  0  0
 35179  1  0  0  0  0
 35180  1  0  0  0  0
 36181  1  0  0  0  0
 37182  1  0  0  0  0
 44183  1  0  0  0  0
 45184  1  0  0  0  0
 47185  1  0  0  0  0
 47186  1  0  0  0  0
 47187  1  0  0  0  0
 48188  1  0  0  0  0
 49189  1  0  0  0  0
 51190  1  0  0  0  0
 52191  1  0  0  0  0
 54192  1  0  0  0  0
 54193  1  0  0  0  0
 54194  1  0  0  0  0
 55195  1  0  0  0  0
 56196  1  0  0  0  0
 62197  1  0  0  0  0
 63198  1  0  0  0  0
 64199  1  0  0  0  0
 65200  1  0  0  0  0
 67201  1  0  0  0  0
 67202  1  0  0  0  0
 68203  1  0  0  0  0
 68204  1  0  0  0  0
 68205  1  0  0  0  0
 85206  1  0  0  0  0
 85207  1  0  0  0  0
 86208  1  0  0  0  0
 86209  1  0  0  0  0
 86210  1  0  0  0  0
 87211  1  0  0  0  0
 88212  1  0  0  0  0
 89213  1  0  0  0  0
 90214  1  0  0  0  0
102215  1  0  0  0  0
102216  1  0  0  0  0
103217  1  0  0  0  0
103218  1  0  0  0  0
103219  1  0  0  0  0
104220  1  0  0  0  0
104221  1  0  0  0  0
105222  1  0  0  0  0
105223  1  0  0  0  0
105224  1  0  0  0  0
107225  1  0  0  0  0
111226  1  0  0  0  0
116227  1  0  0  0  0
116228  1  0  0  0  0
117229  1  0  0  0  0
117230  1  0  0  0  0
117231  1  0  0  0  0
118232  1  0  0  0  0
118233  1  0  0  0  0
119234  1  0  0  0  0
119235  1  0  0  0  0
119236  1  0  0  0  0
120237  1  0  0  0  0
120238  1  0  0  0  0
121239  1  0  0  0  0
121240  1  0  0  0  0
121241  1  0  0  0  0
122242  1  0  0  0  0
131243  1  0  0  0  0
134244  1  0  0  0  0
134245  1  0  0  0  0
135246  1  0  0  0  0
135247  1  0  0  0  0
135248  1  0  0  0  0
136249  1  0  0  0  0
136250  1  0  0  0  0
137251  1  0  0  0  0
137252  1  0  0  0  0
137253  1  0  0  0  0
138254  1  0  0  0  0
138255  1  0  0  0  0
139256  1  0  0  0  0
139257  1  0  0  0  0
139258  1  0  0  0  0
142259  1  0  0  0  0
145260  1  0  0  0  0
148261  1  0  0  0  0
M  END
