187

C          1.41520        8.28580        7.11170
C          0.56110        9.31260        7.40480
C          0.60850        9.97580        8.72310
O          1.49310        9.91430        9.54360
C         -0.70580       10.66240        8.84830
C         -1.26000       11.28700        9.95160
Cl        -0.37320       11.49260       11.39490
C         -2.58310       11.74450        9.86180
Cl        -3.30050       12.54040       11.19490
C         -3.32700       11.52240        8.70430
Cl        -4.96540       12.01000        8.65120
C         -2.75890       10.89250        7.58580
Cl        -3.76100       10.51530        6.24450
C         -1.42760       10.50900        7.64700
C         -0.54660        9.87810        6.66560
C         -0.54020       10.09800        5.31300
C         -1.42710       10.91750        4.58660
N         -2.04980       11.60640        3.91190
C          0.52280        9.66290        4.49080
N          1.39060        9.37170        3.79820
C          1.23310        7.25910        6.17180
C          2.15070        6.25040        5.86770
C          3.49720        6.19460        6.46160
C          3.74720        5.29220        7.49920
C          5.00800        5.26100        8.07490
C          6.02450        6.09790        7.64110
C          7.39580        6.01920        8.24740
C          8.26930        5.03590        7.46590
C          5.75940        6.97540        6.60060
C          4.50910        7.04370        6.00520
C          4.28950        7.96900        4.84260
C          4.46310        7.22420        3.51760
C          2.66660        4.39910        8.04620
C          1.86460        5.11090        9.13770
C          1.63240        5.30460        4.98590
C          0.31340        5.53190        4.62890
S         -0.29710        6.97280        5.37290
C         -0.47640        4.75640        3.74530
C         -1.83730        4.84070        3.49160
C         -2.77830        5.69060        4.22890
C         -3.57820        6.60630        3.55530
C         -4.46600        7.39260        4.26650
C         -4.56370        7.26910        5.64110
C         -3.77990        6.34940        6.32740
C         -3.83750        6.24730        7.82430
C         -2.78660        7.16470        8.45400
C         -2.89590        5.56000        5.60940
C         -2.22230        3.96150        2.46790
S         -3.76900        3.61200        1.73520
C         -2.99690        2.42800        0.73660
C         -3.32560        1.51540       -0.27970
C         -4.53170        1.27150       -0.97300
C         -4.54140        0.30240       -2.03270
N         -5.72170        0.21520       -2.62550
S         -6.73410        1.25640       -1.91180
N         -5.70700        1.86030       -0.81660
C         -3.38080       -0.46870       -2.26530
C         -3.15910       -1.59500       -3.07220
S         -4.02100       -2.57480       -4.20820
C         -2.65140       -3.65790       -4.26550
C         -2.42410       -4.84760       -4.97270
C         -3.40670       -5.41830       -5.90110
C         -4.69200       -5.70180       -5.45540
C         -5.61940       -6.23620       -6.33050
C         -5.27410       -6.48570       -7.64530
C         -3.99690       -6.19620       -8.11000
C         -3.63450       -6.43160       -9.54740
C         -3.98840       -5.21110      -10.39890
C         -3.07540       -5.64970       -7.23260
C         -1.16870       -5.37250       -4.69320
S         -0.25890       -4.35680       -3.57500
C         -1.58390       -3.25550       -3.45460
C         -1.87600       -2.06880       -2.77320
N         -1.28910       -1.26260       -1.83320
C         -2.18850       -0.26120       -1.51670
C         -2.12580        0.82850       -0.61420
N         -1.08560        1.35060        0.13950
C         -1.62160        2.31040        0.96210
C         -1.17440        3.19110        1.95060
S          0.32200        3.55830        2.72930
C          0.31340        1.45380       -0.21900
C          0.59340        2.74780       -0.98340
C         -0.13590       -1.72670       -1.09460
C          1.15790       -1.60180       -1.89950
C         -0.62430       -6.60970       -5.12440
C          0.71200       -7.02400       -5.02930
C          1.82310       -6.19820       -4.51960
C          2.31160       -5.13910       -5.29220
C          3.39960       -4.41440       -4.83200
C          4.01540       -4.71580       -3.62690
C          5.19320       -3.91810       -3.14410
C          4.73880       -2.74710       -2.27220
C          3.50740       -5.75920       -2.86830
C          2.42640       -6.51330       -3.29850
C          1.90970       -7.62670       -2.42910
C          0.70430       -7.17380       -1.60410
C          1.72590       -4.81330       -6.63890
C          2.30270       -5.72870       -7.72000
C          0.88840       -8.30630       -5.51950
C         -0.27600       -8.90940       -6.00380
S         -1.63650       -7.82750       -5.82670
C         -0.29330      -10.19530       -6.55060
C         -1.31600      -10.87920       -7.16640
C         -2.64540      -10.34950       -7.46110
O         -3.13990       -9.30580       -7.07980
C         -3.28330      -11.33860       -8.36010
C         -4.49430      -11.24430       -9.02030
Cl        -5.55330       -9.93630       -8.74590
C         -4.82950      -12.25160       -9.93600
Cl        -6.33110      -12.19780      -10.75220
C         -3.92110      -13.27110      -10.21350
Cl        -4.30920      -14.43380      -11.40700
C         -2.68700      -13.35430       -9.54620
Cl        -1.55600      -14.53050      -10.07450
C         -2.40060      -12.41900       -8.56050
C         -1.25060      -12.23560       -7.67500
C         -0.40140      -13.21430       -7.22610
C         -0.57160      -14.60400       -7.40470
N         -0.66760      -15.74760       -7.40100
C          0.68450      -12.98540       -6.35270
N          1.59280      -12.88370       -5.65730
H          2.28240        8.18730        7.75750
H          5.19770        4.56970        8.88410
H          7.86330        7.00570        8.23330
H          7.32340        5.69000        9.28570
H          8.36560        5.35570        6.43070
H          9.26240        4.97630        7.90510
H          7.82400        4.04340        7.47680
H          6.54380        7.62970        6.24700
H          5.01270        8.78490        4.88970
H          3.28980        8.40360        4.87030
H          5.46160        6.79740        3.44650
H          3.73660        6.41910        3.43600
H          4.31190        7.90770        2.68660
H          3.12510        3.50370        8.47110
H          1.98940        4.08570        7.24960
H          2.52630        5.45930        9.92710
H          1.13320        4.43280        9.57200
H          1.33780        5.97130        8.73140
H          2.19170        4.46050        4.61950
H         -3.49350        6.70690        2.48380
H         -5.08360        8.10770        3.74410
H         -5.26050        7.88620        6.18900
H         -4.82720        6.53750        8.18080
H         -3.64900        5.21740        8.13380
H         -2.80640        7.08300        9.53800
H         -1.79080        6.89980        8.10350
H         -2.97940        8.19980        8.18240
H         -2.29170        4.82670        6.12600
H         -4.95380       -5.52020       -4.42360
H         -6.61550       -6.46370       -5.98100
H         -6.00120       -6.91200       -8.32100
H         -2.56450       -6.63410       -9.62950
H         -4.17470       -7.30280       -9.92210
H         -3.45170       -4.33370      -10.04440
H         -5.05470       -5.00520      -10.33970
H         -3.72490       -5.38290      -11.44000
H         -2.08150       -5.40550       -7.58290
H          0.59500        0.61450       -0.84320
H          0.90100        1.43310        0.70430
H          1.64340        2.78850       -1.25960
H          0.36370        3.61790       -0.37450
H         -0.00970        2.78800       -1.88820
H         -0.29520       -2.78490       -0.85740
H         -0.08170       -1.18290       -0.15070
H          1.17910       -2.33910       -2.69760
H          2.01040       -1.77670       -1.24980
H          1.25520       -0.61670       -2.35110
H          3.78480       -3.60500       -5.43660
H          5.85810       -4.56050       -2.56360
H          5.75220       -3.53270       -3.99890
H          4.09110       -2.08340       -2.84040
H          4.18720       -3.11440       -1.40950
H          5.59690       -2.17940       -1.92000
H          3.97670       -6.00520       -1.92600
H          2.70370       -7.94690       -1.75200
H          1.62000       -8.48420       -3.03810
H         -0.13450       -6.93370       -2.25270
H          0.95410       -6.28860       -1.02290
H          0.39610       -7.96350       -0.92310
H          0.64010       -4.91960       -6.62240
H          1.95670       -3.77570       -6.88880
H          2.04660       -6.76630       -7.51790
H          1.90610       -5.45810       -8.69600
H          3.38640       -5.64190       -7.74900
H          1.84390       -8.80210       -5.54970
H          0.66740      -10.69470       -6.50630
