
  xtb     02242202023D
 energy: -374.529491141340 gnorm: 0.000415452150 xtb: 6.4.1 (unknown)
209231  0     0  0            999 V2000
   16.3204   -0.1623    0.9354 C   0  0  0  0  0  0  0  0  0  0  0  0
   16.5843   -0.4907   -0.3636 C   0  0  0  0  0  0  0  0  0  0  0  0
   15.6702   -0.6739   -1.5124 C   0  0  0  0  0  0  0  0  0  0  0  0
   14.4770   -0.8789   -1.5219 O   0  0  0  0  0  0  0  0  0  0  0  0
   16.5227   -0.5235   -2.7185 C   0  0  0  0  0  0  0  0  0  0  0  0
   16.1299   -0.4523   -4.0440 C   0  0  0  0  0  0  0  0  0  0  0  0
   14.5040   -0.6764   -4.5091 Cl  0  0  0  0  0  0  0  0  0  0  0  0
   17.1068   -0.1771   -5.0111 C   0  0  0  0  0  0  0  0  0  0  0  0
   16.6743   -0.1077   -6.6642 Cl  0  0  0  0  0  0  0  0  0  0  0  0
   18.4217    0.0817   -4.6256 C   0  0  0  0  0  0  0  0  0  0  0  0
   19.5736    0.5111   -5.8146 Cl  0  0  0  0  0  0  0  0  0  0  0  0
   18.8138    0.0102   -3.2795 C   0  0  0  0  0  0  0  0  0  0  0  0
   20.4019    0.5043   -2.8609 Cl  0  0  0  0  0  0  0  0  0  0  0  0
   17.8676   -0.3614   -2.3328 C   0  0  0  0  0  0  0  0  0  0  0  0
   17.9453   -0.5631   -0.8916 C   0  0  0  0  0  0  0  0  0  0  0  0
   19.0333   -0.9871   -0.1801 C   0  0  0  0  0  0  0  0  0  0  0  0
   19.0179   -1.2500    1.2099 C   0  0  0  0  0  0  0  0  0  0  0  0
   19.0927   -1.4905    2.3295 N   0  0  0  0  0  0  0  0  0  0  0  0
   20.2683   -1.4027   -0.7258 C   0  0  0  0  0  0  0  0  0  0  0  0
   21.2650   -1.8506   -1.0752 N   0  0  0  0  0  0  0  0  0  0  0  0
   15.1074   -0.0485    1.6820 C   0  0  0  0  0  0  0  0  0  0  0  0
   13.8915   -0.6161    1.2829 C   0  0  0  0  0  0  0  0  0  0  0  0
   12.7835   -0.4305    2.0835 C   0  0  0  0  0  0  0  0  0  0  0  0
   11.4949   -0.8636    1.8889 N   0  0  0  0  0  0  0  0  0  0  0  0
   11.0397   -1.6527    0.7737 C   0  0  0  0  0  0  0  0  0  0  0  0
   11.1658   -3.1488    1.0555 C   0  0  0  0  0  0  0  0  0  0  0  0
   10.7347   -0.4531    2.9520 C   0  0  0  0  0  0  0  0  0  0  0  0
   11.5441    0.2857    3.8558 C   0  0  0  0  0  0  0  0  0  0  0  0
   12.8560    0.2987    3.3018 C   0  0  0  0  0  0  0  0  0  0  0  0
   14.0770    0.8365    3.7092 C   0  0  0  0  0  0  0  0  0  0  0  0
   15.1775    0.6547    2.9118 C   0  0  0  0  0  0  0  0  0  0  0  0
   10.9736    0.8388    5.0009 C   0  0  0  0  0  0  0  0  0  0  0  0
    9.6361    0.6432    5.2411 C   0  0  0  0  0  0  0  0  0  0  0  0
    8.8371   -0.1184    4.3638 C   0  0  0  0  0  0  0  0  0  0  0  0
    9.3890   -0.6588    3.2057 C   0  0  0  0  0  0  0  0  0  0  0  0
    7.4264   -0.2998    4.6342 C   0  0  0  0  0  0  0  0  0  0  0  0
    6.7569   -0.3385    5.8391 C   0  0  0  0  0  0  0  0  0  0  0  0
    7.3897   -0.3911    7.1589 C   0  0  0  0  0  0  0  0  0  0  0  0
    6.8792    0.3550    8.2168 C   0  0  0  0  0  0  0  0  0  0  0  0
    7.4829    0.2904    9.4588 C   0  0  0  0  0  0  0  0  0  0  0  0
    8.5943   -0.5099    9.6559 C   0  0  0  0  0  0  0  0  0  0  0  0
    9.1082   -1.2727    8.6141 C   0  0  0  0  0  0  0  0  0  0  0  0
   10.3457   -2.1031    8.7971 C   0  0  0  0  0  0  0  0  0  0  0  0
   11.5749   -1.3265    8.3197 C   0  0  0  0  0  0  0  0  0  0  0  0
    8.4926   -1.2124    7.3744 C   0  0  0  0  0  0  0  0  0  0  0  0
    5.3581   -0.4099    5.6496 C   0  0  0  0  0  0  0  0  0  0  0  0
    4.0158   -0.4786    6.7663 S   0  0  0  0  0  0  0  0  0  0  0  0
    2.9308   -0.5534    5.4202 C   0  0  0  0  0  0  0  0  0  0  0  0
    1.5538   -0.6709    5.1698 C   0  0  0  0  0  0  0  0  0  0  0  0
    0.4637   -0.8584    6.0460 C   0  0  0  0  0  0  0  0  0  0  0  0
   -0.8410   -1.0775    5.4907 C   0  0  0  0  0  0  0  0  0  0  0  0
   -1.7576   -1.2935    6.4215 N   0  0  0  0  0  0  0  0  0  0  0  0
   -1.0411   -1.2228    7.8717 S   0  0  0  0  0  0  0  0  0  0  0  0
    0.4665   -0.9145    7.3689 N   0  0  0  0  0  0  0  0  0  0  0  0
   -1.0111   -0.9860    4.0927 C   0  0  0  0  0  0  0  0  0  0  0  0
   -2.1725   -1.0214    3.3023 C   0  0  0  0  0  0  0  0  0  0  0  0
   -3.8800   -1.2349    3.4898 S   0  0  0  0  0  0  0  0  0  0  0  0
   -4.0776   -0.9273    1.7822 C   0  0  0  0  0  0  0  0  0  0  0  0
   -5.2146   -0.8895    0.9497 C   0  0  0  0  0  0  0  0  0  0  0  0
   -6.5614   -1.2150    1.4194 C   0  0  0  0  0  0  0  0  0  0  0  0
   -7.3145   -2.1849    0.7666 C   0  0  0  0  0  0  0  0  0  0  0  0
   -8.5495   -2.5464    1.2690 C   0  0  0  0  0  0  0  0  0  0  0  0
   -9.0462   -1.9362    2.4066 C   0  0  0  0  0  0  0  0  0  0  0  0
   -8.3133   -0.9537    3.0588 C   0  0  0  0  0  0  0  0  0  0  0  0
   -8.8307   -0.3122    4.3128 C   0  0  0  0  0  0  0  0  0  0  0  0
   -8.3211   -1.0635    5.5443 C   0  0  0  0  0  0  0  0  0  0  0  0
   -7.0637   -0.6126    2.5661 C   0  0  0  0  0  0  0  0  0  0  0  0
   -4.8685   -0.5926   -0.3527 C   0  0  0  0  0  0  0  0  0  0  0  0
   -3.1313   -0.4065   -0.5681 S   0  0  0  0  0  0  0  0  0  0  0  0
   -2.8732   -0.6860    1.1183 C   0  0  0  0  0  0  0  0  0  0  0  0
   -1.7804   -0.7423    1.9927 C   0  0  0  0  0  0  0  0  0  0  0  0
   -0.4203   -0.5678    1.9290 N   0  0  0  0  0  0  0  0  0  0  0  0
    0.0772   -0.7161    3.2177 C   0  0  0  0  0  0  0  0  0  0  0  0
    1.3901   -0.6745    3.7560 C   0  0  0  0  0  0  0  0  0  0  0  0
    2.6444   -0.6103    3.1742 N   0  0  0  0  0  0  0  0  0  0  0  0
    3.5706   -0.5278    4.1803 C   0  0  0  0  0  0  0  0  0  0  0  0
    4.9642   -0.4516    4.3128 C   0  0  0  0  0  0  0  0  0  0  0  0
    6.3337   -0.3980    3.2621 S   0  0  0  0  0  0  0  0  0  0  0  0
    3.0712   -0.9561    1.8382 C   0  0  0  0  0  0  0  0  0  0  0  0
    3.6011    0.2535    1.0688 C   0  0  0  0  0  0  0  0  0  0  0  0
    0.1047    0.2181    0.8329 C   0  0  0  0  0  0  0  0  0  0  0  0
    0.1027    1.7060    1.1789 C   0  0  0  0  0  0  0  0  0  0  0  0
   -5.7178   -0.3149   -1.4659 C   0  0  0  0  0  0  0  0  0  0  0  0
   -6.9186    0.3703   -1.4783 C   0  0  0  0  0  0  0  0  0  0  0  0
   -7.5137    0.9518   -0.3421 N   0  0  0  0  0  0  0  0  0  0  0  0
   -8.8381    0.6391   -0.0302 C   0  0  0  0  0  0  0  0  0  0  0  0
   -9.4741    1.3087    1.0144 C   0  0  0  0  0  0  0  0  0  0  0  0
  -10.7616    0.9765    1.3799 C   0  0  0  0  0  0  0  0  0  0  0  0
  -11.4583   -0.0331    0.7289 C   0  0  0  0  0  0  0  0  0  0  0  0
  -12.8675   -0.3729    1.1107 C   0  0  0  0  0  0  0  0  0  0  0  0
  -10.8132   -0.7113   -0.2951 C   0  0  0  0  0  0  0  0  0  0  0  0
   -9.5225   -0.3930   -0.6671 C   0  0  0  0  0  0  0  0  0  0  0  0
   -7.0600    2.2852   -0.1094 C   0  0  0  0  0  0  0  0  0  0  0  0
   -7.8034    3.3681   -0.5715 C   0  0  0  0  0  0  0  0  0  0  0  0
   -7.3524    4.6559   -0.3671 C   0  0  0  0  0  0  0  0  0  0  0  0
   -6.1495    4.8986    0.2890 C   0  0  0  0  0  0  0  0  0  0  0  0
   -5.6800    6.3040    0.5103 C   0  0  0  0  0  0  0  0  0  0  0  0
   -5.4121    3.8121    0.7368 C   0  0  0  0  0  0  0  0  0  0  0  0
   -5.8585    2.5163    0.5433 C   0  0  0  0  0  0  0  0  0  0  0  0
   -7.4062    0.5278   -2.7946 C   0  0  0  0  0  0  0  0  0  0  0  0
   -8.8287    1.2586   -3.4417 S   0  0  0  0  0  0  0  0  0  0  0  0
   -8.2983    0.8518   -5.0769 C   0  0  0  0  0  0  0  0  0  0  0  0
   -7.0981    0.0814   -5.0749 C   0  0  0  0  0  0  0  0  0  0  0  0
   -6.5261   -0.4969   -6.1721 N   0  0  0  0  0  0  0  0  0  0  0  0
   -5.1327   -0.7115   -6.1743 C   0  0  0  0  0  0  0  0  0  0  0  0
   -4.6060   -1.9312   -6.5869 C   0  0  0  0  0  0  0  0  0  0  0  0
   -3.2397   -2.1272   -6.5854 C   0  0  0  0  0  0  0  0  0  0  0  0
   -2.3702   -1.1231   -6.1744 C   0  0  0  0  0  0  0  0  0  0  0  0
   -0.8913   -1.3542   -6.1454 C   0  0  0  0  0  0  0  0  0  0  0  0
   -2.9068    0.0940   -5.7720 C   0  0  0  0  0  0  0  0  0  0  0  0
   -4.2710    0.3054   -5.7733 C   0  0  0  0  0  0  0  0  0  0  0  0
   -7.2790   -0.9817   -7.2605 C   0  0  0  0  0  0  0  0  0  0  0  0
   -6.7718   -0.8879   -8.5534 C   0  0  0  0  0  0  0  0  0  0  0  0
   -7.5262   -1.3269   -9.6249 C   0  0  0  0  0  0  0  0  0  0  0  0
   -8.8002   -1.8493   -9.4429 C   0  0  0  0  0  0  0  0  0  0  0  0
   -9.6467   -2.2351  -10.6134 C   0  0  0  0  0  0  0  0  0  0  0  0
   -9.2791   -1.9775   -8.1415 C   0  0  0  0  0  0  0  0  0  0  0  0
   -8.5289   -1.5657   -7.0601 C   0  0  0  0  0  0  0  0  0  0  0  0
   -6.5950   -0.0428   -3.7712 C   0  0  0  0  0  0  0  0  0  0  0  0
   -5.1857   -0.7753   -3.0727 S   0  0  0  0  0  0  0  0  0  0  0  0
   -8.9012    1.2960   -6.2435 C   0  0  0  0  0  0  0  0  0  0  0  0
  -10.1147    1.9258   -6.4559 C   0  0  0  0  0  0  0  0  0  0  0  0
  -11.1238    2.1844   -5.4376 C   0  0  0  0  0  0  0  0  0  0  0  0
  -11.0202    2.0646   -4.2308 O   0  0  0  0  0  0  0  0  0  0  0  0
  -12.3313    2.6315   -6.1710 C   0  0  0  0  0  0  0  0  0  0  0  0
  -13.5445    3.0470   -5.6563 C   0  0  0  0  0  0  0  0  0  0  0  0
  -13.8720    2.9797   -3.9823 Cl  0  0  0  0  0  0  0  0  0  0  0  0
  -14.5084    3.5402   -6.5474 C   0  0  0  0  0  0  0  0  0  0  0  0
  -16.0377    4.0349   -5.9636 Cl  0  0  0  0  0  0  0  0  0  0  0  0
  -14.2055    3.6631   -7.9008 C   0  0  0  0  0  0  0  0  0  0  0  0
  -15.3670    4.3454   -8.9571 Cl  0  0  0  0  0  0  0  0  0  0  0  0
  -12.9639    3.2529   -8.4142 C   0  0  0  0  0  0  0  0  0  0  0  0
  -12.6268    3.5846  -10.0635 Cl  0  0  0  0  0  0  0  0  0  0  0  0
  -12.0433    2.6706   -7.5512 C   0  0  0  0  0  0  0  0  0  0  0  0
  -10.6845    2.1725   -7.7546 C   0  0  0  0  0  0  0  0  0  0  0  0
  -10.0819    1.8830   -8.9637 C   0  0  0  0  0  0  0  0  0  0  0  0
   -8.6922    1.7668   -9.1459 C   0  0  0  0  0  0  0  0  0  0  0  0
   -7.5705    1.7430   -9.4017 N   0  0  0  0  0  0  0  0  0  0  0  0
  -10.7453    1.5192  -10.1489 C   0  0  0  0  0  0  0  0  0  0  0  0
  -11.1711    1.0423  -11.1046 N   0  0  0  0  0  0  0  0  0  0  0  0
   17.1935    0.1275    1.5111 H   0  0  0  0  0  0  0  0  0  0  0  0
   13.8329   -1.1870    0.3745 H   0  0  0  0  0  0  0  0  0  0  0  0
   11.6353   -1.3853   -0.1026 H   0  0  0  0  0  0  0  0  0  0  0  0
    9.9970   -1.3940    0.5708 H   0  0  0  0  0  0  0  0  0  0  0  0
   12.2038   -3.4093    1.2478 H   0  0  0  0  0  0  0  0  0  0  0  0
   10.5737   -3.4227    1.9259 H   0  0  0  0  0  0  0  0  0  0  0  0
   10.8162   -3.7198    0.2000 H   0  0  0  0  0  0  0  0  0  0  0  0
   14.1494    1.3808    4.6382 H   0  0  0  0  0  0  0  0  0  0  0  0
   16.1287    1.0654    3.2161 H   0  0  0  0  0  0  0  0  0  0  0  0
   11.5739    1.4238    5.6808 H   0  0  0  0  0  0  0  0  0  0  0  0
    9.1766    1.0894    6.1082 H   0  0  0  0  0  0  0  0  0  0  0  0
    8.7690   -1.2320    2.5322 H   0  0  0  0  0  0  0  0  0  0  0  0
    6.0235    0.9943    8.0610 H   0  0  0  0  0  0  0  0  0  0  0  0
    7.0858    0.8728   10.2770 H   0  0  0  0  0  0  0  0  0  0  0  0
    9.0652   -0.5479   10.6277 H   0  0  0  0  0  0  0  0  0  0  0  0
   10.4680   -2.3646    9.8497 H   0  0  0  0  0  0  0  0  0  0  0  0
   10.2600   -3.0273    8.2219 H   0  0  0  0  0  0  0  0  0  0  0  0
   11.4726   -1.0647    7.2683 H   0  0  0  0  0  0  0  0  0  0  0  0
   11.6855   -0.4079    8.8920 H   0  0  0  0  0  0  0  0  0  0  0  0
   12.4752   -1.9235    8.4443 H   0  0  0  0  0  0  0  0  0  0  0  0
    8.8737   -1.8121    6.5599 H   0  0  0  0  0  0  0  0  0  0  0  0
   -6.9191   -2.6633   -0.1178 H   0  0  0  0  0  0  0  0  0  0  0  0
   -9.1289   -3.3093    0.7706 H   0  0  0  0  0  0  0  0  0  0  0  0
  -10.0163   -2.2190    2.7879 H   0  0  0  0  0  0  0  0  0  0  0  0
   -8.4966    0.7260    4.3597 H   0  0  0  0  0  0  0  0  0  0  0  0
   -9.9220   -0.3204    4.3061 H   0  0  0  0  0  0  0  0  0  0  0  0
   -7.2336   -1.0594    5.5667 H   0  0  0  0  0  0  0  0  0  0  0  0
   -8.6579   -2.0975    5.5215 H   0  0  0  0  0  0  0  0  0  0  0  0
   -8.6903   -0.5978    6.4551 H   0  0  0  0  0  0  0  0  0  0  0  0
   -6.4805    0.1464    3.0674 H   0  0  0  0  0  0  0  0  0  0  0  0
    3.8809   -1.6895    1.9300 H   0  0  0  0  0  0  0  0  0  0  0  0
    2.2460   -1.4476    1.3210 H   0  0  0  0  0  0  0  0  0  0  0  0
    4.5165    0.6130    1.5308 H   0  0  0  0  0  0  0  0  0  0  0  0
    3.8244   -0.0301    0.0437 H   0  0  0  0  0  0  0  0  0  0  0  0
    2.8833    1.0687    1.0633 H   0  0  0  0  0  0  0  0  0  0  0  0
   -0.5514    0.0385   -0.0229 H   0  0  0  0  0  0  0  0  0  0  0  0
    1.1039   -0.1039    0.5581 H   0  0  0  0  0  0  0  0  0  0  0  0
   -0.9095    2.0390    1.3964 H   0  0  0  0  0  0  0  0  0  0  0  0
    0.7212    1.8949    2.0542 H   0  0  0  0  0  0  0  0  0  0  0  0
    0.4855    2.2841    0.3421 H   0  0  0  0  0  0  0  0  0  0  0  0
   -8.9497    2.0902    1.5433 H   0  0  0  0  0  0  0  0  0  0  0  0
  -11.2328    1.5128    2.1914 H   0  0  0  0  0  0  0  0  0  0  0  0
  -13.5689    0.1650    0.4717 H   0  0  0  0  0  0  0  0  0  0  0  0
  -13.0557   -1.4378    0.9908 H   0  0  0  0  0  0  0  0  0  0  0  0
  -13.0689   -0.0924    2.1422 H   0  0  0  0  0  0  0  0  0  0  0  0
  -11.3277   -1.5087   -0.8124 H   0  0  0  0  0  0  0  0  0  0  0  0
   -9.0440   -0.9613   -1.4498 H   0  0  0  0  0  0  0  0  0  0  0  0
   -8.7358    3.1886   -1.0873 H   0  0  0  0  0  0  0  0  0  0  0  0
   -7.9381    5.4888   -0.7286 H   0  0  0  0  0  0  0  0  0  0  0  0
   -4.6596    6.3210    0.8848 H   0  0  0  0  0  0  0  0  0  0  0  0
   -5.7239    6.8726   -0.4170 H   0  0  0  0  0  0  0  0  0  0  0  0
   -6.3212    6.8039    1.2362 H   0  0  0  0  0  0  0  0  0  0  0  0
   -4.4759    3.9776    1.2511 H   0  0  0  0  0  0  0  0  0  0  0  0
   -5.2781    1.6847    0.9077 H   0  0  0  0  0  0  0  0  0  0  0  0
   -5.2724   -2.7199   -6.9030 H   0  0  0  0  0  0  0  0  0  0  0  0
   -2.8415   -3.0793   -6.9041 H   0  0  0  0  0  0  0  0  0  0  0  0
   -0.3502   -0.4278   -6.3231 H   0  0  0  0  0  0  0  0  0  0  0  0
   -0.5972   -2.0858   -6.8939 H   0  0  0  0  0  0  0  0  0  0  0  0
   -0.5962   -1.7346   -5.1668 H   0  0  0  0  0  0  0  0  0  0  0  0
   -2.2479    0.8908   -5.4599 H   0  0  0  0  0  0  0  0  0  0  0  0
   -4.6765    1.2612   -5.4751 H   0  0  0  0  0  0  0  0  0  0  0  0
   -5.7990   -0.4513   -8.7165 H   0  0  0  0  0  0  0  0  0  0  0  0
   -7.1273   -1.2308  -10.6231 H   0  0  0  0  0  0  0  0  0  0  0  0
   -9.0328   -2.5921  -11.4367 H   0  0  0  0  0  0  0  0  0  0  0  0
  -10.2037   -1.3642  -10.9649 H   0  0  0  0  0  0  0  0  0  0  0  0
  -10.3638   -3.0058  -10.3414 H   0  0  0  0  0  0  0  0  0  0  0  0
  -10.2543   -2.4111   -7.9737 H   0  0  0  0  0  0  0  0  0  0  0  0
   -8.9145   -1.6777   -6.0573 H   0  0  0  0  0  0  0  0  0  0  0  0
   -8.3319    1.0819   -7.1380 H   0  0  0  0  0  0  0  0  0  0  0  0
  1  2  2  0  0  0  0
  2  3  1  0  0  0  0
  3  4  2  0  0  0  0
  3  5  1  0  0  0  0
  5  6  2  0  0  0  0
  6  7  1  0  0  0  0
  6  8  1  0  0  0  0
  8  9  1  0  0  0  0
  8 10  2  0  0  0  0
 10 11  1  0  0  0  0
 10 12  1  0  0  0  0
 12 13  1  0  0  0  0
 12 14  2  0  0  0  0
 14 15  1  0  0  0  0
 15 16  2  0  0  0  0
 16 17  1  0  0  0  0
 17 18  3  0  0  0  0
 16 19  1  0  0  0  0
 19 20  3  0  0  0  0
  1 21  1  0  0  0  0
 21 22  2  0  0  0  0
 22 23  1  0  0  0  0
 23 24  1  0  0  0  0
 24 25  1  0  0  0  0
 25 26  1  0  0  0  0
 24 27  1  0  0  0  0
 27 28  2  0  0  0  0
 28 29  1  0  0  0  0
 29 30  1  0  0  0  0
 30 31  2  0  0  0  0
 28 32  1  0  0  0  0
 32 33  2  0  0  0  0
 33 34  1  0  0  0  0
 34 35  2  0  0  0  0
 34 36  1  0  0  0  0
 36 37  2  0  0  0  0
 37 38  1  0  0  0  0
 38 39  2  0  0  0  0
 39 40  1  0  0  0  0
 40 41  2  0  0  0  0
 41 42  1  0  0  0  0
 42 43  1  0  0  0  0
 43 44  1  0  0  0  0
 42 45  2  0  0  0  0
 37 46  1  0  0  0  0
 46 47  1  0  0  0  0
 47 48  1  0  0  0  0
 48 49  1  0  0  0  0
 49 50  1  0  0  0  0
 50 51  1  0  0  0  0
 51 52  2  0  0  0  0
 52 53  1  0  0  0  0
 53 54  1  0  0  0  0
 51 55  1  0  0  0  0
 55 56  1  0  0  0  0
 56 57  1  0  0  0  0
 57 58  1  0  0  0  0
 58 59  1  0  0  0  0
 59 60  1  0  0  0  0
 60 61  2  0  0  0  0
 61 62  1  0  0  0  0
 62 63  2  0  0  0  0
 63 64  1  0  0  0  0
 64 65  1  0  0  0  0
 65 66  1  0  0  0  0
 64 67  2  0  0  0  0
 59 68  2  0  0  0  0
 68 69  1  0  0  0  0
 69 70  1  0  0  0  0
 70 71  1  0  0  0  0
 71 72  1  0  0  0  0
 72 73  1  0  0  0  0
 73 74  1  0  0  0  0
 74 75  1  0  0  0  0
 75 76  1  0  0  0  0
 76 77  1  0  0  0  0
 77 78  1  0  0  0  0
 75 79  1  0  0  0  0
 79 80  1  0  0  0  0
 72 81  1  0  0  0  0
 81 82  1  0  0  0  0
 68 83  1  0  0  0  0
 83 84  2  0  0  0  0
 84 85  1  0  0  0  0
 85 86  1  0  0  0  0
 86 87  2  0  0  0  0
 87 88  1  0  0  0  0
 88 89  2  0  0  0  0
 89 90  1  0  0  0  0
 89 91  1  0  0  0  0
 91 92  2  0  0  0  0
 85 93  1  0  0  0  0
 93 94  2  0  0  0  0
 94 95  1  0  0  0  0
 95 96  2  0  0  0  0
 96 97  1  0  0  0  0
 96 98  1  0  0  0  0
 98 99  2  0  0  0  0
 84100  1  0  0  0  0
100101  1  0  0  0  0
101102  1  0  0  0  0
102103  2  0  0  0  0
103104  1  0  0  0  0
104105  1  0  0  0  0
105106  2  0  0  0  0
106107  1  0  0  0  0
107108  2  0  0  0  0
108109  1  0  0  0  0
108110  1  0  0  0  0
110111  2  0  0  0  0
104112  1  0  0  0  0
112113  2  0  0  0  0
113114  1  0  0  0  0
114115  2  0  0  0  0
115116  1  0  0  0  0
115117  1  0  0  0  0
117118  2  0  0  0  0
103119  1  0  0  0  0
119120  1  0  0  0  0
102121  1  0  0  0  0
121122  2  0  0  0  0
122123  1  0  0  0  0
123124  2  0  0  0  0
123125  1  0  0  0  0
125126  2  0  0  0  0
126127  1  0  0  0  0
126128  1  0  0  0  0
128129  1  0  0  0  0
128130  2  0  0  0  0
130131  1  0  0  0  0
130132  1  0  0  0  0
132133  1  0  0  0  0
132134  2  0  0  0  0
134135  1  0  0  0  0
135136  2  0  0  0  0
136137  1  0  0  0  0
137138  3  0  0  0  0
136139  1  0  0  0  0
139140  3  0  0  0  0
 15  2  1  0  0  0  0
 31 21  1  0  0  0  0
 78 36  1  0  0  0  0
120 83  1  0  0  0  0
135122  1  0  0  0  0
 14  5  1  0  0  0  0
 29 23  2  0  0  0  0
 45 38  1  0  0  0  0
 77 46  2  0  0  0  0
 92 86  1  0  0  0  0
 99 93  1  0  0  0  0
119100  2  0  0  0  0
134125  1  0  0  0  0
 35 27  1  0  0  0  0
 76 48  2  0  0  0  0
111105  1  0  0  0  0
118112  1  0  0  0  0
 74 49  2  0  0  0  0
 54 50  2  0  0  0  0
 73 55  2  0  0  0  0
 71 56  2  0  0  0  0
 70 58  2  0  0  0  0
 67 60  1  0  0  0  0
  1141  1  0  0  0  0
 22142  1  0  0  0  0
 25143  1  0  0  0  0
 25144  1  0  0  0  0
 26145  1  0  0  0  0
 26146  1  0  0  0  0
 26147  1  0  0  0  0
 30148  1  0  0  0  0
 31149  1  0  0  0  0
 32150  1  0  0  0  0
 33151  1  0  0  0  0
 35152  1  0  0  0  0
 39153  1  0  0  0  0
 40154  1  0  0  0  0
 41155  1  0  0  0  0
 43156  1  0  0  0  0
 43157  1  0  0  0  0
 44158  1  0  0  0  0
 44159  1  0  0  0  0
 44160  1  0  0  0  0
 45161  1  0  0  0  0
 61162  1  0  0  0  0
 62163  1  0  0  0  0
 63164  1  0  0  0  0
 65165  1  0  0  0  0
 65166  1  0  0  0  0
 66167  1  0  0  0  0
 66168  1  0  0  0  0
 66169  1  0  0  0  0
 67170  1  0  0  0  0
 79171  1  0  0  0  0
 79172  1  0  0  0  0
 80173  1  0  0  0  0
 80174  1  0  0  0  0
 80175  1  0  0  0  0
 81176  1  0  0  0  0
 81177  1  0  0  0  0
 82178  1  0  0  0  0
 82179  1  0  0  0  0
 82180  1  0  0  0  0
 87181  1  0  0  0  0
 88182  1  0  0  0  0
 90183  1  0  0  0  0
 90184  1  0  0  0  0
 90185  1  0  0  0  0
 91186  1  0  0  0  0
 92187  1  0  0  0  0
 94188  1  0  0  0  0
 95189  1  0  0  0  0
 97190  1  0  0  0  0
 97191  1  0  0  0  0
 97192  1  0  0  0  0
 98193  1  0  0  0  0
 99194  1  0  0  0  0
106195  1  0  0  0  0
107196  1  0  0  0  0
109197  1  0  0  0  0
109198  1  0  0  0  0
109199  1  0  0  0  0
110200  1  0  0  0  0
111201  1  0  0  0  0
113202  1  0  0  0  0
114203  1  0  0  0  0
116204  1  0  0  0  0
116205  1  0  0  0  0
116206  1  0  0  0  0
117207  1  0  0  0  0
118208  1  0  0  0  0
121209  1  0  0  0  0
M  END
