
  xtb     02112206503D
 energy: -275.785270621830 gnorm: 0.000923776489 xtb: 6.4.1 (unknown)
131145  0     0  0            999 V2000
   -9.8386   -4.4347    3.9482 C   0  0  0  0  0  0  0  0  0  0  0  0
   -9.7851   -5.0383    5.1540 C   0  0  0  0  0  0  0  0  0  0  0  0
  -11.0592   -5.4295    5.8345 C   0  0  0  0  0  0  0  0  0  0  0  0
  -12.1675   -5.0657    5.5382 O   0  0  0  0  0  0  0  0  0  0  0  0
  -10.6511   -6.3952    6.8778 C   0  0  0  0  0  0  0  0  0  0  0  0
  -11.4495   -7.1928    7.6817 C   0  0  0  0  0  0  0  0  0  0  0  0
  -13.1480   -7.0506    7.6648 Cl  0  0  0  0  0  0  0  0  0  0  0  0
  -10.8223   -8.1346    8.5112 C   0  0  0  0  0  0  0  0  0  0  0  0
  -11.7641   -9.1215    9.5393 Cl  0  0  0  0  0  0  0  0  0  0  0  0
   -9.4363   -8.2941    8.4731 C   0  0  0  0  0  0  0  0  0  0  0  0
   -8.7064   -9.5083    9.4274 Cl  0  0  0  0  0  0  0  0  0  0  0  0
   -8.6308   -7.4825    7.6572 C   0  0  0  0  0  0  0  0  0  0  0  0
   -6.9577   -7.8287    7.5374 Cl  0  0  0  0  0  0  0  0  0  0  0  0
   -9.2430   -6.4901    6.9032 C   0  0  0  0  0  0  0  0  0  0  0  0
   -8.6932   -5.4716    6.0139 C   0  0  0  0  0  0  0  0  0  0  0  0
   -7.5075   -4.8124    6.1710 C   0  0  0  0  0  0  0  0  0  0  0  0
   -6.6091   -4.9805    7.2497 C   0  0  0  0  0  0  0  0  0  0  0  0
   -5.8692   -4.9834    8.1255 N   0  0  0  0  0  0  0  0  0  0  0  0
   -7.1012   -3.7348    5.3540 C   0  0  0  0  0  0  0  0  0  0  0  0
   -6.7188   -2.8576    4.7211 N   0  0  0  0  0  0  0  0  0  0  0  0
   -8.7790   -4.2062    2.9978 C   0  0  0  0  0  0  0  0  0  0  0  0
   -7.6853   -5.0643    2.8191 C   0  0  0  0  0  0  0  0  0  0  0  0
   -7.6008   -6.1863    3.5510 F   0  0  0  0  0  0  0  0  0  0  0  0
   -6.6880   -4.8001    1.9011 C   0  0  0  0  0  0  0  0  0  0  0  0
   -5.6498   -5.6420    1.8315 F   0  0  0  0  0  0  0  0  0  0  0  0
   -6.7077   -3.6473    1.1019 C   0  0  0  0  0  0  0  0  0  0  0  0
   -7.8102   -2.7962    1.2692 C   0  0  0  0  0  0  0  0  0  0  0  0
   -7.9014   -1.6911    0.5162 F   0  0  0  0  0  0  0  0  0  0  0  0
   -8.8238   -3.0809    2.1625 C   0  0  0  0  0  0  0  0  0  0  0  0
   -9.8598   -2.2423    2.2669 F   0  0  0  0  0  0  0  0  0  0  0  0
   -5.6213   -3.3158    0.2120 C   0  0  0  0  0  0  0  0  0  0  0  0
   -4.8901   -4.1597   -0.6072 C   0  0  0  0  0  0  0  0  0  0  0  0
   -5.2421   -5.5469   -0.9015 C   0  0  0  0  0  0  0  0  0  0  0  0
   -6.5727   -5.9188   -1.0837 C   0  0  0  0  0  0  0  0  0  0  0  0
   -6.8870   -7.2331   -1.3699 C   0  0  0  0  0  0  0  0  0  0  0  0
   -5.8863   -8.1833   -1.4771 C   0  0  0  0  0  0  0  0  0  0  0  0
   -4.5537   -7.8279   -1.3094 C   0  0  0  0  0  0  0  0  0  0  0  0
   -3.4669   -8.8608   -1.3764 C   0  0  0  0  0  0  0  0  0  0  0  0
   -3.2132   -9.4489    0.0132 C   0  0  0  0  0  0  0  0  0  0  0  0
   -4.2437   -6.5074   -1.0242 C   0  0  0  0  0  0  0  0  0  0  0  0
   -3.8080   -3.4741   -1.1939 C   0  0  0  0  0  0  0  0  0  0  0  0
   -2.5348   -3.9650   -2.2863 S   0  0  0  0  0  0  0  0  0  0  0  0
   -1.8846   -2.3630   -2.2172 C   0  0  0  0  0  0  0  0  0  0  0  0
   -0.7900   -1.6329   -2.7123 C   0  0  0  0  0  0  0  0  0  0  0  0
    0.2272   -1.9544   -3.6384 C   0  0  0  0  0  0  0  0  0  0  0  0
    1.2030   -0.9551   -3.9763 C   0  0  0  0  0  0  0  0  0  0  0  0
    2.0637   -1.3790   -4.8879 N   0  0  0  0  0  0  0  0  0  0  0  0
    1.6846   -2.9014   -5.2856 S   0  0  0  0  0  0  0  0  0  0  0  0
    0.4076   -3.0819   -4.3077 N   0  0  0  0  0  0  0  0  0  0  0  0
    1.2016    0.2698   -3.2712 C   0  0  0  0  0  0  0  0  0  0  0  0
    2.1490    1.3031   -3.1980 C   0  0  0  0  0  0  0  0  0  0  0  0
    3.6640    1.7373   -3.9101 S   0  0  0  0  0  0  0  0  0  0  0  0
    3.7895    3.0612   -2.7778 C   0  0  0  0  0  0  0  0  0  0  0  0
    4.7773    4.0428   -2.5636 C   0  0  0  0  0  0  0  0  0  0  0  0
    5.9575    4.2138   -3.4088 C   0  0  0  0  0  0  0  0  0  0  0  0
    6.3572    5.4845   -3.8177 C   0  0  0  0  0  0  0  0  0  0  0  0
    7.4703    5.6293   -4.6225 C   0  0  0  0  0  0  0  0  0  0  0  0
    8.1901    4.5177   -5.0252 C   0  0  0  0  0  0  0  0  0  0  0  0
    7.7978    3.2427   -4.6373 C   0  0  0  0  0  0  0  0  0  0  0  0
    8.5987    2.0365   -5.0318 C   0  0  0  0  0  0  0  0  0  0  0  0
    9.6539    1.7326   -3.9662 C   0  0  0  0  0  0  0  0  0  0  0  0
    6.6789    3.1027   -3.8311 C   0  0  0  0  0  0  0  0  0  0  0  0
    4.4303    4.8712   -1.5107 C   0  0  0  0  0  0  0  0  0  0  0  0
    2.8662    4.4784   -0.8210 S   0  0  0  0  0  0  0  0  0  0  0  0
    2.6920    3.1589   -1.9173 C   0  0  0  0  0  0  0  0  0  0  0  0
    1.7448    2.1577   -2.1662 C   0  0  0  0  0  0  0  0  0  0  0  0
    0.5649    1.7161   -1.6292 N   0  0  0  0  0  0  0  0  0  0  0  0
    0.2052    0.5630   -2.2997 C   0  0  0  0  0  0  0  0  0  0  0  0
   -0.8757   -0.3374   -2.1330 C   0  0  0  0  0  0  0  0  0  0  0  0
   -2.0292   -0.2593   -1.3718 N   0  0  0  0  0  0  0  0  0  0  0  0
   -2.6242   -1.4944   -1.4090 C   0  0  0  0  0  0  0  0  0  0  0  0
   -3.7306   -2.1260   -0.8312 C   0  0  0  0  0  0  0  0  0  0  0  0
   -5.0106   -1.6726    0.2285 S   0  0  0  0  0  0  0  0  0  0  0  0
   -2.8323    0.9153   -1.1047 C   0  0  0  0  0  0  0  0  0  0  0  0
   -3.9934    1.0312   -2.0924 C   0  0  0  0  0  0  0  0  0  0  0  0
    0.0991    2.2335   -0.3611 C   0  0  0  0  0  0  0  0  0  0  0  0
   -0.5393    3.6154   -0.4983 C   0  0  0  0  0  0  0  0  0  0  0  0
    5.2205    5.9107   -0.8973 C   0  0  0  0  0  0  0  0  0  0  0  0
    6.6004    5.7747   -0.6846 C   0  0  0  0  0  0  0  0  0  0  0  0
    7.2149    4.6318   -1.0110 F   0  0  0  0  0  0  0  0  0  0  0  0
    7.3510    6.7704   -0.0898 C   0  0  0  0  0  0  0  0  0  0  0  0
    8.6606    6.5467    0.0863 F   0  0  0  0  0  0  0  0  0  0  0  0
    6.7877    7.9715    0.3725 C   0  0  0  0  0  0  0  0  0  0  0  0
    5.4028    8.0948    0.1764 C   0  0  0  0  0  0  0  0  0  0  0  0
    4.7635    9.2114    0.5530 F   0  0  0  0  0  0  0  0  0  0  0  0
    4.6536    7.1037   -0.4296 C   0  0  0  0  0  0  0  0  0  0  0  0
    3.3392    7.3154   -0.5969 F   0  0  0  0  0  0  0  0  0  0  0  0
    7.5784    8.9941    1.0157 C   0  0  0  0  0  0  0  0  0  0  0  0
    7.1351   10.0275    1.8233 C   0  0  0  0  0  0  0  0  0  0  0  0
    8.1608   10.8398    2.2871 C   0  0  0  0  0  0  0  0  0  0  0  0
    9.4123   10.4493    1.8349 C   0  0  0  0  0  0  0  0  0  0  0  0
   10.6403   11.0989    2.1543 C   0  0  0  0  0  0  0  0  0  0  0  0
   11.8969   10.7675    1.7058 C   0  0  0  0  0  0  0  0  0  0  0  0
   12.1790    9.7133    0.8148 C   0  0  0  0  0  0  0  0  0  0  0  0
   12.4630    8.8751    0.0846 N   0  0  0  0  0  0  0  0  0  0  0  0
   13.0292   11.5048    2.1196 C   0  0  0  0  0  0  0  0  0  0  0  0
   13.9589   12.0879    2.4496 N   0  0  0  0  0  0  0  0  0  0  0  0
   10.5451   12.2111    3.0349 C   0  0  0  0  0  0  0  0  0  0  0  0
   10.4626   13.1047    3.7459 N   0  0  0  0  0  0  0  0  0  0  0  0
    9.3019    9.0364    0.8314 S   0  0  0  0  0  0  0  0  0  0  0  0
  -10.8233   -4.0975    3.6386 H   0  0  0  0  0  0  0  0  0  0  0  0
   -7.3539   -5.1744   -1.0227 H   0  0  0  0  0  0  0  0  0  0  0  0
   -7.9190   -7.5178   -1.5135 H   0  0  0  0  0  0  0  0  0  0  0  0
   -6.1413   -9.2095   -1.6984 H   0  0  0  0  0  0  0  0  0  0  0  0
   -2.5476   -8.4055   -1.7491 H   0  0  0  0  0  0  0  0  0  0  0  0
   -3.7559   -9.6609   -2.0604 H   0  0  0  0  0  0  0  0  0  0  0  0
   -4.1132   -9.9280    0.3919 H   0  0  0  0  0  0  0  0  0  0  0  0
   -2.4159  -10.1873   -0.0260 H   0  0  0  0  0  0  0  0  0  0  0  0
   -2.9279   -8.6633    0.7090 H   0  0  0  0  0  0  0  0  0  0  0  0
   -3.2127   -6.2241   -0.8737 H   0  0  0  0  0  0  0  0  0  0  0  0
    5.7834    6.3513   -3.5213 H   0  0  0  0  0  0  0  0  0  0  0  0
    7.7774    6.6150   -4.9396 H   0  0  0  0  0  0  0  0  0  0  0  0
    9.0623    4.6408   -5.6505 H   0  0  0  0  0  0  0  0  0  0  0  0
    7.9375    1.1748   -5.1418 H   0  0  0  0  0  0  0  0  0  0  0  0
    9.0924    2.2152   -5.9888 H   0  0  0  0  0  0  0  0  0  0  0  0
   10.2293    0.8520   -4.2417 H   0  0  0  0  0  0  0  0  0  0  0  0
    9.1787    1.5526   -3.0047 H   0  0  0  0  0  0  0  0  0  0  0  0
   10.3347    2.5735   -3.8567 H   0  0  0  0  0  0  0  0  0  0  0  0
    6.3758    2.1181   -3.5076 H   0  0  0  0  0  0  0  0  0  0  0  0
   -2.2103    1.7979   -1.2046 H   0  0  0  0  0  0  0  0  0  0  0  0
   -3.2195    0.8512   -0.0829 H   0  0  0  0  0  0  0  0  0  0  0  0
   -4.5370    1.9528   -1.9044 H   0  0  0  0  0  0  0  0  0  0  0  0
   -3.6183    1.0476   -3.1138 H   0  0  0  0  0  0  0  0  0  0  0  0
   -4.6843    0.1997   -1.9879 H   0  0  0  0  0  0  0  0  0  0  0  0
   -0.5872    1.5134    0.0848 H   0  0  0  0  0  0  0  0  0  0  0  0
    0.9678    2.3178    0.3021 H   0  0  0  0  0  0  0  0  0  0  0  0
   -1.3273    3.6247   -1.2480 H   0  0  0  0  0  0  0  0  0  0  0  0
    0.2070    4.3486   -0.7911 H   0  0  0  0  0  0  0  0  0  0  0  0
   -0.9608    3.9186    0.4558 H   0  0  0  0  0  0  0  0  0  0  0  0
    6.1057   10.1824    2.0847 H   0  0  0  0  0  0  0  0  0  0  0  0
    8.0105   11.6877    2.9317 H   0  0  0  0  0  0  0  0  0  0  0  0
  1  2  2  0  0  0  0
  2  3  1  0  0  0  0
  3  4  2  0  0  0  0
  3  5  1  0  0  0  0
  5  6  2  0  0  0  0
  6  7  1  0  0  0  0
  6  8  1  0  0  0  0
  8  9  1  0  0  0  0
  8 10  2  0  0  0  0
 10 11  1  0  0  0  0
 10 12  1  0  0  0  0
 12 13  1  0  0  0  0
 12 14  2  0  0  0  0
 14 15  1  0  0  0  0
 15 16  2  0  0  0  0
 16 17  1  0  0  0  0
 17 18  3  0  0  0  0
 16 19  1  0  0  0  0
 19 20  3  0  0  0  0
  1 21  1  0  0  0  0
 21 22  2  0  0  0  0
 22 23  1  0  0  0  0
 22 24  1  0  0  0  0
 24 25  1  0  0  0  0
 24 26  2  0  0  0  0
 26 27  1  0  0  0  0
 27 28  1  0  0  0  0
 27 29  2  0  0  0  0
 29 30  1  0  0  0  0
 26 31  1  0  0  0  0
 31 32  2  0  0  0  0
 32 33  1  0  0  0  0
 33 34  2  0  0  0  0
 34 35  1  0  0  0  0
 35 36  2  0  0  0  0
 36 37  1  0  0  0  0
 37 38  1  0  0  0  0
 38 39  1  0  0  0  0
 37 40  2  0  0  0  0
 32 41  1  0  0  0  0
 41 42  1  0  0  0  0
 42 43  1  0  0  0  0
 43 44  1  0  0  0  0
 44 45  1  0  0  0  0
 45 46  1  0  0  0  0
 46 47  2  0  0  0  0
 47 48  1  0  0  0  0
 48 49  1  0  0  0  0
 46 50  1  0  0  0  0
 50 51  1  0  0  0  0
 51 52  1  0  0  0  0
 52 53  1  0  0  0  0
 53 54  1  0  0  0  0
 54 55  1  0  0  0  0
 55 56  2  0  0  0  0
 56 57  1  0  0  0  0
 57 58  2  0  0  0  0
 58 59  1  0  0  0  0
 59 60  1  0  0  0  0
 60 61  1  0  0  0  0
 59 62  2  0  0  0  0
 54 63  2  0  0  0  0
 63 64  1  0  0  0  0
 64 65  1  0  0  0  0
 65 66  1  0  0  0  0
 66 67  1  0  0  0  0
 67 68  1  0  0  0  0
 68 69  1  0  0  0  0
 69 70  1  0  0  0  0
 70 71  1  0  0  0  0
 71 72  1  0  0  0  0
 72 73  1  0  0  0  0
 70 74  1  0  0  0  0
 74 75  1  0  0  0  0
 67 76  1  0  0  0  0
 76 77  1  0  0  0  0
 63 78  1  0  0  0  0
 78 79  2  0  0  0  0
 79 80  1  0  0  0  0
 79 81  1  0  0  0  0
 81 82  1  0  0  0  0
 81 83  2  0  0  0  0
 83 84  1  0  0  0  0
 84 85  1  0  0  0  0
 84 86  2  0  0  0  0
 86 87  1  0  0  0  0
 83 88  1  0  0  0  0
 88 89  2  0  0  0  0
 89 90  1  0  0  0  0
 90 91  2  0  0  0  0
 91 92  1  0  0  0  0
 92 93  2  0  0  0  0
 93 94  1  0  0  0  0
 94 95  3  0  0  0  0
 93 96  1  0  0  0  0
 96 97  3  0  0  0  0
 92 98  1  0  0  0  0
 98 99  3  0  0  0  0
 91100  1  0  0  0  0
 15  2  1  0  0  0  0
 29 21  1  0  0  0  0
 73 31  1  0  0  0  0
 86 78  1  0  0  0  0
100 88  1  0  0  0  0
 14  5  1  0  0  0  0
 40 33  1  0  0  0  0
 72 41  2  0  0  0  0
 71 43  2  0  0  0  0
 69 44  2  0  0  0  0
 49 45  2  0  0  0  0
 68 50  2  0  0  0  0
 66 51  2  0  0  0  0
 65 53  2  0  0  0  0
 62 55  1  0  0  0  0
  1101  1  0  0  0  0
 34102  1  0  0  0  0
 35103  1  0  0  0  0
 36104  1  0  0  0  0
 38105  1  0  0  0  0
 38106  1  0  0  0  0
 39107  1  0  0  0  0
 39108  1  0  0  0  0
 39109  1  0  0  0  0
 40110  1  0  0  0  0
 56111  1  0  0  0  0
 57112  1  0  0  0  0
 58113  1  0  0  0  0
 60114  1  0  0  0  0
 60115  1  0  0  0  0
 61116  1  0  0  0  0
 61117  1  0  0  0  0
 61118  1  0  0  0  0
 62119  1  0  0  0  0
 74120  1  0  0  0  0
 74121  1  0  0  0  0
 75122  1  0  0  0  0
 75123  1  0  0  0  0
 75124  1  0  0  0  0
 76125  1  0  0  0  0
 76126  1  0  0  0  0
 77127  1  0  0  0  0
 77128  1  0  0  0  0
 77129  1  0  0  0  0
 89130  1  0  0  0  0
 90131  1  0  0  0  0
M  END
