135

C          9.61320        3.04150       -0.49860
C         10.00880        3.47000        0.71750
C         11.46770        3.51050        1.04760
O         12.35440        2.98210        0.42890
C         11.56340        4.38560        2.23630
C         12.69700        4.89060        2.85270
Cl        14.25910        4.41760        2.36170
C         12.52770        5.81380        3.89550
Cl        13.89500        6.44050        4.70520
C         11.25010        6.25040        4.24910
Cl        11.07760        7.44270        5.45970
C         10.10380        5.73550        3.62160
Cl         8.57860        6.42350        3.98750
C         10.26600        4.75240        2.65420
C          9.29530        3.98720        1.87790
C          8.07450        3.55530        2.31040
C          7.24270        2.68570        1.57100
N          6.52180        1.98290        1.02080
C          7.53870        3.76200        3.60280
N          7.06170        3.80390        4.64440
C          8.30730        3.14320       -1.10390
C          7.43110        4.21600       -0.89270
F          7.82410        5.24780       -0.12920
C          6.16680        4.24970       -1.44760
F          5.36860        5.27960       -1.14320
C          5.68620        3.20270       -2.24820
C          6.57570        2.14550       -2.48770
F          6.18580        1.13270       -3.27380
C          7.85220        2.13080       -1.95960
F          8.66190        1.10160       -2.22810
C          4.32120        3.17200       -2.71830
C          3.55630        4.22030       -3.20300
C          4.11180        5.51490       -3.58740
C          3.40880        6.69430       -3.35680
C          3.97360        7.90720       -3.70010
C          5.23630        7.95940       -4.26580
C          5.94440        6.79180       -4.51990
C          7.33230        6.82430       -5.09370
C          8.36660        6.50580       -4.01180
C          5.36620        5.57690       -4.18830
C          2.20920        3.83250       -3.34510
S          0.76000        4.68760       -3.81760
C         -0.16540        3.26070       -3.49540
C         -1.50870        2.84680       -3.45500
C         -2.72110        3.47680       -3.81480
C         -3.95720        2.76290       -3.63960
N         -5.00320        3.45690       -4.05820
S         -4.48440        4.88370       -4.61980
N         -2.90280        4.67390       -4.34870
C         -3.94150        1.50550       -2.99250
C         -4.97110        0.70990       -2.46790
S         -6.70070        0.68710       -2.37310
C         -6.60480       -0.72320       -1.33760
C         -7.56670       -1.47240       -0.64670
C         -8.99210       -1.15060       -0.66470
C         -9.62830       -0.87490       -1.87310
C        -10.97090       -0.55070       -1.88560
C        -11.68640       -0.48700       -0.70210
C        -11.06380       -0.73650        0.51450
C        -11.83620       -0.69460        1.80160
C        -12.31370       -2.09720        2.18400
C         -9.71730       -1.06870        0.52140
C         -6.98810       -2.51180        0.09400
S         -5.23280       -2.50750       -0.06550
C         -5.28810       -1.14230       -1.11000
C         -4.35650       -0.32490       -1.75020
N         -2.99340       -0.22270       -1.83320
C         -2.71640        0.89440       -2.60080
C         -1.49830        1.51120       -2.96950
N         -0.18960        1.09580       -2.80820
C          0.61340        2.17100       -3.08900
C          1.97050        2.49850       -3.00030
S          3.40970        1.69250       -2.50330
C          0.30130       -0.26100       -2.93180
C          1.04940       -0.47110       -4.24730
C         -2.16430       -0.89500       -0.84890
C         -1.55360        0.08000        0.15100
C         -7.70410       -3.49130        0.81270
C         -7.25270       -4.50270        1.62090
C         -5.91480       -4.78520        1.93790
C         -5.48330       -5.79660        2.75540
C         -4.10800       -5.97100        2.96600
C         -3.51270       -6.90850        3.77410
C         -4.23450       -7.90210        4.58640
O         -5.43100       -8.01840        4.73480
C         -3.17950       -8.76280        5.18200
C         -3.32980       -9.90370        5.94890
Cl        -4.86450      -10.42070        6.48720
C         -2.18260      -10.64310        6.27160
Cl        -2.31360      -12.03930        7.24980
C         -0.94410      -10.26780        5.75620
Cl         0.42470      -11.24470        6.07390
C         -0.80000       -9.11390        4.96870
Cl         0.71820       -8.83050        4.22120
C         -1.91490       -8.31460        4.74800
C         -2.09500       -7.06340        4.01220
C         -1.12770       -6.12050        3.75740
C         -1.30760       -4.96110        2.97420
N         -1.34040       -4.01340        2.32390
C          0.14790       -6.06870        4.35940
N          1.15190       -5.86650        4.87850
H         10.38010        2.57080       -1.10560
H          2.43790        6.65870       -2.88800
H          3.42950        8.82130       -3.51530
H          5.67450        8.91440       -4.51690
H          7.41720        6.08940       -5.89760
H          7.53810        7.81110       -5.51100
H          8.21520        5.50050       -3.62180
H          9.37350        6.57010       -4.41710
H          8.27860        7.20850       -3.18600
H          5.89460        4.66050       -4.41340
H         -9.07200       -0.93210       -2.79630
H        -11.46290       -0.34440       -2.82430
H        -12.73550       -0.22990       -0.72070
H        -12.70030       -0.03680        1.69350
H        -11.20390       -0.30060        2.59980
H        -12.88510       -2.06450        3.10840
H        -11.46480       -2.76260        2.32560
H        -12.94520       -2.50890        1.39980
H         -9.21450       -1.23160        1.46440
H         -0.55800       -0.92790       -2.92610
H          0.95830       -0.49100       -2.08690
H          1.96590        0.10970       -4.28140
H          0.42080       -0.18470       -5.08810
H          1.30850       -1.52150       -4.34790
H         -1.38370       -1.49100       -1.32260
H         -2.81760       -1.59050       -0.31780
H         -1.01210       -0.47930        0.90830
H         -2.33530        0.65850        0.63840
H         -0.86720        0.76780       -0.33520
H         -8.77720       -3.41530        0.68320
H         -8.00100       -5.14760        2.06260
H         -5.14510       -4.15510        1.51650
H         -6.18290       -6.45760        3.24380
H         -3.45930       -5.30490        2.41140
