
  xtb     02112205353D
 energy: -285.786447218936 gnorm: 0.000499345821 xtb: 6.4.1 (unknown)
141155  0     0  0            999 V2000
   -6.6172    8.2446    5.0662 C   0  0  0  0  0  0  0  0  0  0  0  0
   -7.0721    9.4346    4.6194 C   0  0  0  0  0  0  0  0  0  0  0  0
   -6.7738    9.9860    3.2657 C   0  0  0  0  0  0  0  0  0  0  0  0
   -5.9746    9.5710    2.4648 O   0  0  0  0  0  0  0  0  0  0  0  0
   -7.7791   11.0533    3.0649 C   0  0  0  0  0  0  0  0  0  0  0  0
   -8.0084   11.8054    1.9243 C   0  0  0  0  0  0  0  0  0  0  0  0
   -6.9956   11.6804    0.5598 Cl  0  0  0  0  0  0  0  0  0  0  0  0
   -9.1061   12.6790    1.9157 C   0  0  0  0  0  0  0  0  0  0  0  0
   -9.4075   13.6528    0.5452 Cl  0  0  0  0  0  0  0  0  0  0  0  0
   -9.9738   12.7258    3.0071 C   0  0  0  0  0  0  0  0  0  0  0  0
  -11.3556   13.7282    2.9348 Cl  0  0  0  0  0  0  0  0  0  0  0  0
   -9.7412   11.9549    4.1580 C   0  0  0  0  0  0  0  0  0  0  0  0
  -10.9318   11.9420    5.3906 Cl  0  0  0  0  0  0  0  0  0  0  0  0
   -8.6005   11.1627    4.2086 C   0  0  0  0  0  0  0  0  0  0  0  0
   -8.0576   10.3008    5.2506 C   0  0  0  0  0  0  0  0  0  0  0  0
   -8.1937   10.4089    6.6056 C   0  0  0  0  0  0  0  0  0  0  0  0
   -7.5028    9.5625    7.5065 C   0  0  0  0  0  0  0  0  0  0  0  0
   -6.9618    8.9172    8.2851 N   0  0  0  0  0  0  0  0  0  0  0  0
   -8.8622   11.4311    7.3158 C   0  0  0  0  0  0  0  0  0  0  0  0
   -9.2999   12.2486    7.9904 N   0  0  0  0  0  0  0  0  0  0  0  0
   -5.4986    7.5285    4.4923 C   0  0  0  0  0  0  0  0  0  0  0  0
   -4.2855    8.1619    4.1916 C   0  0  0  0  0  0  0  0  0  0  0  0
   -4.1521    9.4707    4.4182 F   0  0  0  0  0  0  0  0  0  0  0  0
   -3.1902    7.4445    3.7482 C   0  0  0  0  0  0  0  0  0  0  0  0
   -2.0641    8.1055    3.4583 F   0  0  0  0  0  0  0  0  0  0  0  0
   -3.2365    6.0516    3.5807 C   0  0  0  0  0  0  0  0  0  0  0  0
   -4.4669    5.4295    3.8335 C   0  0  0  0  0  0  0  0  0  0  0  0
   -4.5759    4.1016    3.6793 F   0  0  0  0  0  0  0  0  0  0  0  0
   -5.5532    6.1435    4.3024 C   0  0  0  0  0  0  0  0  0  0  0  0
   -6.6977    5.5029    4.5761 F   0  0  0  0  0  0  0  0  0  0  0  0
   -2.0593    5.2993    3.2117 C   0  0  0  0  0  0  0  0  0  0  0  0
   -0.7850    5.4585    3.7264 C   0  0  0  0  0  0  0  0  0  0  0  0
   -0.4623    6.3395    4.8483 C   0  0  0  0  0  0  0  0  0  0  0  0
    0.6931    7.1147    4.8309 C   0  0  0  0  0  0  0  0  0  0  0  0
    0.9574    7.9707    5.8825 C   0  0  0  0  0  0  0  0  0  0  0  0
    0.0803    8.0638    6.9496 C   0  0  0  0  0  0  0  0  0  0  0  0
   -1.0646    7.2783    6.9962 C   0  0  0  0  0  0  0  0  0  0  0  0
   -2.0398    7.3803    8.1352 C   0  0  0  0  0  0  0  0  0  0  0  0
   -3.3510    8.0244    7.6798 C   0  0  0  0  0  0  0  0  0  0  0  0
   -1.3173    6.4114    5.9441 C   0  0  0  0  0  0  0  0  0  0  0  0
    0.1244    4.5851    3.1003 C   0  0  0  0  0  0  0  0  0  0  0  0
    1.8298    4.2887    3.3309 S   0  0  0  0  0  0  0  0  0  0  0  0
    1.7482    3.0459    2.1301 C   0  0  0  0  0  0  0  0  0  0  0  0
    2.5782    2.0779    1.5460 C   0  0  0  0  0  0  0  0  0  0  0  0
    3.9163    1.7260    1.8262 C   0  0  0  0  0  0  0  0  0  0  0  0
    4.4741    0.5706    1.1884 C   0  0  0  0  0  0  0  0  0  0  0  0
    5.7126    0.3213    1.5845 N   0  0  0  0  0  0  0  0  0  0  0  0
    6.1410    1.4495    2.6641 S   0  0  0  0  0  0  0  0  0  0  0  0
    4.7622    2.2967    2.6699 N   0  0  0  0  0  0  0  0  0  0  0  0
    3.7012   -0.1157    0.2270 C   0  0  0  0  0  0  0  0  0  0  0  0
    4.0143   -1.2191   -0.5811 C   0  0  0  0  0  0  0  0  0  0  0  0
    5.2997   -2.3537   -0.8118 S   0  0  0  0  0  0  0  0  0  0  0  0
    4.3646   -3.1172   -2.0744 C   0  0  0  0  0  0  0  0  0  0  0  0
    4.5902   -4.2574   -2.8720 C   0  0  0  0  0  0  0  0  0  0  0  0
    5.7456   -5.1391   -2.7115 C   0  0  0  0  0  0  0  0  0  0  0  0
    5.5853   -6.5230   -2.6925 C   0  0  0  0  0  0  0  0  0  0  0  0
    6.6854   -7.3390   -2.5136 C   0  0  0  0  0  0  0  0  0  0  0  0
    7.9446   -6.7889   -2.3494 C   0  0  0  0  0  0  0  0  0  0  0  0
    8.1200   -5.4108   -2.3529 C   0  0  0  0  0  0  0  0  0  0  0  0
    9.4885   -4.8096   -2.2161 C   0  0  0  0  0  0  0  0  0  0  0  0
   10.1392   -4.6565   -3.5924 C   0  0  0  0  0  0  0  0  0  0  0  0
    7.0135   -4.5958   -2.5341 C   0  0  0  0  0  0  0  0  0  0  0  0
    3.5234   -4.4853   -3.7224 C   0  0  0  0  0  0  0  0  0  0  0  0
    2.2270   -3.3223   -3.5169 S   0  0  0  0  0  0  0  0  0  0  0  0
    3.1293   -2.5037   -2.2964 C   0  0  0  0  0  0  0  0  0  0  0  0
    2.9262   -1.4190   -1.4332 C   0  0  0  0  0  0  0  0  0  0  0  0
    1.9437   -0.5040   -1.1671 N   0  0  0  0  0  0  0  0  0  0  0  0
    2.3877    0.3040   -0.1311 C   0  0  0  0  0  0  0  0  0  0  0  0
    1.7821    1.3530    0.6128 C   0  0  0  0  0  0  0  0  0  0  0  0
    0.4959    1.8679    0.6525 N   0  0  0  0  0  0  0  0  0  0  0  0
    0.4764    2.8767    1.5770 C   0  0  0  0  0  0  0  0  0  0  0  0
   -0.4588    3.7564    2.1368 C   0  0  0  0  0  0  0  0  0  0  0  0
   -2.1530    4.0519    1.9874 S   0  0  0  0  0  0  0  0  0  0  0  0
   -0.7531    1.3073    0.1883 C   0  0  0  0  0  0  0  0  0  0  0  0
   -1.0291   -0.0520    0.8259 C   0  0  0  0  0  0  0  0  0  0  0  0
    0.8958   -0.2865   -2.1397 C   0  0  0  0  0  0  0  0  0  0  0  0
    1.0688    1.0486   -2.8596 C   0  0  0  0  0  0  0  0  0  0  0  0
    3.3984   -5.5152   -4.7273 C   0  0  0  0  0  0  0  0  0  0  0  0
    2.1867   -6.1844   -4.9542 C   0  0  0  0  0  0  0  0  0  0  0  0
    1.1020   -5.8409   -4.2439 F   0  0  0  0  0  0  0  0  0  0  0  0
    2.0793   -7.2123   -5.8705 C   0  0  0  0  0  0  0  0  0  0  0  0
    0.8834   -7.7854   -6.0602 F   0  0  0  0  0  0  0  0  0  0  0  0
    3.1738   -7.6289   -6.6356 C   0  0  0  0  0  0  0  0  0  0  0  0
    4.3610   -6.9086   -6.4726 C   0  0  0  0  0  0  0  0  0  0  0  0
    5.4216   -7.2338   -7.2216 F   0  0  0  0  0  0  0  0  0  0  0  0
    4.4753   -5.8891   -5.5445 C   0  0  0  0  0  0  0  0  0  0  0  0
    5.6331   -5.2200   -5.4654 F   0  0  0  0  0  0  0  0  0  0  0  0
    3.0875   -8.7203   -7.5836 C   0  0  0  0  0  0  0  0  0  0  0  0
    2.4746   -9.9036   -7.3617 C   0  0  0  0  0  0  0  0  0  0  0  0
    2.0090  -10.3225   -6.0301 C   0  0  0  0  0  0  0  0  0  0  0  0
    2.3861   -9.8152   -4.9955 O   0  0  0  0  0  0  0  0  0  0  0  0
    1.1171  -11.3793   -6.0243 N   0  0  0  0  0  0  0  0  0  0  0  0
    0.5367  -11.7248   -4.7300 C   0  0  0  0  0  0  0  0  0  0  0  0
    1.3432  -12.8093   -4.0291 C   0  0  0  0  0  0  0  0  0  0  0  0
    0.8195  -12.1437   -7.1196 C   0  0  0  0  0  0  0  0  0  0  0  0
   -0.2667  -13.3797   -7.0098 S   0  0  0  0  0  0  0  0  0  0  0  0
    1.4641  -11.8849   -8.3003 N   0  0  0  0  0  0  0  0  0  0  0  0
    1.2481  -12.7727   -9.4396 C   0  0  0  0  0  0  0  0  0  0  0  0
    2.1489  -13.9977   -9.3625 C   0  0  0  0  0  0  0  0  0  0  0  0
    2.3366  -10.8301   -8.4995 C   0  0  0  0  0  0  0  0  0  0  0  0
    2.9029  -10.6684   -9.5578 O   0  0  0  0  0  0  0  0  0  0  0  0
   -7.1111    7.7487    5.8924 H   0  0  0  0  0  0  0  0  0  0  0  0
    1.3621    7.0617    3.9860 H   0  0  0  0  0  0  0  0  0  0  0  0
    1.8496    8.5784    5.8655 H   0  0  0  0  0  0  0  0  0  0  0  0
    0.2894    8.7486    7.7585 H   0  0  0  0  0  0  0  0  0  0  0  0
   -1.6044    7.9766    8.9383 H   0  0  0  0  0  0  0  0  0  0  0  0
   -2.2503    6.3828    8.5286 H   0  0  0  0  0  0  0  0  0  0  0  0
   -3.1605    8.9979    7.2331 H   0  0  0  0  0  0  0  0  0  0  0  0
   -3.8471    7.3993    6.9397 H   0  0  0  0  0  0  0  0  0  0  0  0
   -4.0266    8.1567    8.5208 H   0  0  0  0  0  0  0  0  0  0  0  0
   -2.1867    5.7694    5.9841 H   0  0  0  0  0  0  0  0  0  0  0  0
    4.6011   -6.9564   -2.7970 H   0  0  0  0  0  0  0  0  0  0  0  0
    6.5571   -8.4112   -2.4985 H   0  0  0  0  0  0  0  0  0  0  0  0
    8.7995   -7.4349   -2.2109 H   0  0  0  0  0  0  0  0  0  0  0  0
   10.1136   -5.4497   -1.5904 H   0  0  0  0  0  0  0  0  0  0  0  0
    9.4153   -3.8303   -1.7397 H   0  0  0  0  0  0  0  0  0  0  0  0
    9.5298   -4.0193   -4.2290 H   0  0  0  0  0  0  0  0  0  0  0  0
   11.1279   -4.2136   -3.4986 H   0  0  0  0  0  0  0  0  0  0  0  0
   10.2362   -5.6262   -4.0752 H   0  0  0  0  0  0  0  0  0  0  0  0
    7.1397   -3.5235   -2.5564 H   0  0  0  0  0  0  0  0  0  0  0  0
   -1.5375    2.0078    0.4851 H   0  0  0  0  0  0  0  0  0  0  0  0
   -0.7682    1.2542   -0.9001 H   0  0  0  0  0  0  0  0  0  0  0  0
   -0.2269   -0.7561    0.6176 H   0  0  0  0  0  0  0  0  0  0  0  0
   -1.1139    0.0556    1.9047 H   0  0  0  0  0  0  0  0  0  0  0  0
   -1.9627   -0.4573    0.4454 H   0  0  0  0  0  0  0  0  0  0  0  0
    0.9743   -1.0990   -2.8662 H   0  0  0  0  0  0  0  0  0  0  0  0
   -0.0870   -0.3702   -1.6754 H   0  0  0  0  0  0  0  0  0  0  0  0
    1.0725    1.8785   -2.1569 H   0  0  0  0  0  0  0  0  0  0  0  0
    0.2611    1.1930   -3.5720 H   0  0  0  0  0  0  0  0  0  0  0  0
    2.0127    1.0594   -3.3998 H   0  0  0  0  0  0  0  0  0  0  0  0
    3.5467   -8.5693   -8.5544 H   0  0  0  0  0  0  0  0  0  0  0  0
   -0.4903  -12.0536   -4.8947 H   0  0  0  0  0  0  0  0  0  0  0  0
    0.5400  -10.8105   -4.1344 H   0  0  0  0  0  0  0  0  0  0  0  0
    2.3667  -12.4761   -3.8756 H   0  0  0  0  0  0  0  0  0  0  0  0
    1.3486  -13.7229   -4.6190 H   0  0  0  0  0  0  0  0  0  0  0  0
    0.8964  -13.0233   -3.0628 H   0  0  0  0  0  0  0  0  0  0  0  0
    1.4791  -12.1925  -10.3344 H   0  0  0  0  0  0  0  0  0  0  0  0
    0.1977  -13.0674   -9.4512 H   0  0  0  0  0  0  0  0  0  0  0  0
    3.1934  -13.6963   -9.3413 H   0  0  0  0  0  0  0  0  0  0  0  0
    1.9268  -14.5804   -8.4716 H   0  0  0  0  0  0  0  0  0  0  0  0
    1.9833  -14.6224  -10.2351 H   0  0  0  0  0  0  0  0  0  0  0  0
  1  2  2  0  0  0  0
  2  3  1  0  0  0  0
  3  4  2  0  0  0  0
  3  5  1  0  0  0  0
  5  6  2  0  0  0  0
  6  7  1  0  0  0  0
  6  8  1  0  0  0  0
  8  9  1  0  0  0  0
  8 10  2  0  0  0  0
 10 11  1  0  0  0  0
 10 12  1  0  0  0  0
 12 13  1  0  0  0  0
 12 14  2  0  0  0  0
 14 15  1  0  0  0  0
 15 16  2  0  0  0  0
 16 17  1  0  0  0  0
 17 18  3  0  0  0  0
 16 19  1  0  0  0  0
 19 20  3  0  0  0  0
  1 21  1  0  0  0  0
 21 22  2  0  0  0  0
 22 23  1  0  0  0  0
 22 24  1  0  0  0  0
 24 25  1  0  0  0  0
 24 26  2  0  0  0  0
 26 27  1  0  0  0  0
 27 28  1  0  0  0  0
 27 29  2  0  0  0  0
 29 30  1  0  0  0  0
 26 31  1  0  0  0  0
 31 32  2  0  0  0  0
 32 33  1  0  0  0  0
 33 34  2  0  0  0  0
 34 35  1  0  0  0  0
 35 36  2  0  0  0  0
 36 37  1  0  0  0  0
 37 38  1  0  0  0  0
 38 39  1  0  0  0  0
 37 40  2  0  0  0  0
 32 41  1  0  0  0  0
 41 42  1  0  0  0  0
 42 43  1  0  0  0  0
 43 44  1  0  0  0  0
 44 45  1  0  0  0  0
 45 46  1  0  0  0  0
 46 47  2  0  0  0  0
 47 48  1  0  0  0  0
 48 49  1  0  0  0  0
 46 50  1  0  0  0  0
 50 51  1  0  0  0  0
 51 52  1  0  0  0  0
 52 53  1  0  0  0  0
 53 54  1  0  0  0  0
 54 55  1  0  0  0  0
 55 56  2  0  0  0  0
 56 57  1  0  0  0  0
 57 58  2  0  0  0  0
 58 59  1  0  0  0  0
 59 60  1  0  0  0  0
 60 61  1  0  0  0  0
 59 62  2  0  0  0  0
 54 63  2  0  0  0  0
 63 64  1  0  0  0  0
 64 65  1  0  0  0  0
 65 66  1  0  0  0  0
 66 67  1  0  0  0  0
 67 68  1  0  0  0  0
 68 69  1  0  0  0  0
 69 70  1  0  0  0  0
 70 71  1  0  0  0  0
 71 72  1  0  0  0  0
 72 73  1  0  0  0  0
 70 74  1  0  0  0  0
 74 75  1  0  0  0  0
 67 76  1  0  0  0  0
 76 77  1  0  0  0  0
 63 78  1  0  0  0  0
 78 79  2  0  0  0  0
 79 80  1  0  0  0  0
 79 81  1  0  0  0  0
 81 82  1  0  0  0  0
 81 83  2  0  0  0  0
 83 84  1  0  0  0  0
 84 85  1  0  0  0  0
 84 86  2  0  0  0  0
 86 87  1  0  0  0  0
 83 88  1  0  0  0  0
 88 89  2  0  0  0  0
 89 90  1  0  0  0  0
 90 91  2  0  0  0  0
 90 92  1  0  0  0  0
 92 93  1  0  0  0  0
 93 94  1  0  0  0  0
 92 95  1  0  0  0  0
 95 96  2  0  0  0  0
 95 97  1  0  0  0  0
 97 98  1  0  0  0  0
 98 99  1  0  0  0  0
 97100  1  0  0  0  0
100101  2  0  0  0  0
 15  2  1  0  0  0  0
 29 21  1  0  0  0  0
 73 31  1  0  0  0  0
 86 78  1  0  0  0  0
100 89  1  0  0  0  0
 14  5  1  0  0  0  0
 40 33  1  0  0  0  0
 72 41  2  0  0  0  0
 71 43  2  0  0  0  0
 69 44  2  0  0  0  0
 49 45  2  0  0  0  0
 68 50  2  0  0  0  0
 66 51  2  0  0  0  0
 65 53  2  0  0  0  0
 62 55  1  0  0  0  0
  1102  1  0  0  0  0
 34103  1  0  0  0  0
 35104  1  0  0  0  0
 36105  1  0  0  0  0
 38106  1  0  0  0  0
 38107  1  0  0  0  0
 39108  1  0  0  0  0
 39109  1  0  0  0  0
 39110  1  0  0  0  0
 40111  1  0  0  0  0
 56112  1  0  0  0  0
 57113  1  0  0  0  0
 58114  1  0  0  0  0
 60115  1  0  0  0  0
 60116  1  0  0  0  0
 61117  1  0  0  0  0
 61118  1  0  0  0  0
 61119  1  0  0  0  0
 62120  1  0  0  0  0
 74121  1  0  0  0  0
 74122  1  0  0  0  0
 75123  1  0  0  0  0
 75124  1  0  0  0  0
 75125  1  0  0  0  0
 76126  1  0  0  0  0
 76127  1  0  0  0  0
 77128  1  0  0  0  0
 77129  1  0  0  0  0
 77130  1  0  0  0  0
 88131  1  0  0  0  0
 93132  1  0  0  0  0
 93133  1  0  0  0  0
 94134  1  0  0  0  0
 94135  1  0  0  0  0
 94136  1  0  0  0  0
 98137  1  0  0  0  0
 98138  1  0  0  0  0
 99139  1  0  0  0  0
 99140  1  0  0  0  0
 99141  1  0  0  0  0
M  END
