137

C          1.07630        8.30120       -7.91990
C          1.38330        8.21290       -9.23430
C          2.50450        7.38820       -9.77270
O          3.21330        6.62450       -9.16490
C          2.66320        7.82810      -11.17500
C          3.61780        7.42090      -12.09250
Cl         4.71720        6.17050      -11.73260
C          3.65780        8.06570      -13.33740
Cl         4.78700        7.56830      -14.51840
C          2.80470        9.13850      -13.59710
Cl         2.93870        9.97180      -15.08290
C          1.84690        9.55510      -12.65750
Cl         0.95550       10.98320      -12.97860
C          1.73050        8.84670      -11.46710
C          0.81920        8.97860      -10.33650
C         -0.45280        9.47880      -10.33370
C         -1.27560        9.48560       -9.18200
N         -1.99500        9.52440       -8.28960
C         -1.20260        9.89900      -11.45520
N         -1.93120       10.17310      -12.29750
C          1.52480        7.35710       -6.92260
C          1.51130        5.97250       -7.14820
F          0.98960        5.49610       -8.28210
C          1.92240        5.08030       -6.17900
F          1.80950        3.76920       -6.42310
C          2.38650        5.51090       -4.92480
C          2.34450        6.89110       -4.68290
F          2.75120        7.35960       -3.49330
C          1.91930        7.78320       -5.64890
F          1.92440        9.09580       -5.38400
C          2.80340        4.56300       -3.92000
C          3.54610        3.40890       -4.10160
C          4.24870        3.06510       -5.33550
C          4.87460        4.05020       -6.09800
C          5.52060        3.70750       -7.26910
C          5.56010        2.38730       -7.68450
C          4.95250        1.39110       -6.93120
C          5.03080       -0.05120       -7.33990
C          6.14430       -0.76180       -6.56780
C          4.30060        1.74150       -5.75900
C          3.57830        2.64260       -2.91900
S          4.27020        1.08640       -2.52500
C          3.54560        1.18470       -0.95710
C          3.36070        0.38720        0.18330
C          3.87010       -0.88640        0.51760
C          3.45040       -1.50120        1.74290
N          4.01570       -2.68250        1.93590
S          4.99350       -2.99360        0.68410
N          4.72810       -1.63610       -0.15650
C          2.46630       -0.85620        2.52390
C          1.68970       -1.33520        3.58990
S          1.46950       -2.79110        4.49940
C          0.02180       -2.10910        5.20500
C         -0.98280       -2.63560        6.04400
C         -0.95350       -3.95000        6.67930
C         -1.46370       -4.12620        7.96560
C         -1.44380       -5.37650        8.55130
C         -0.90760       -6.45670        7.87220
C         -0.37610       -6.29680        6.59800
C          0.17400       -7.47140        5.84200
C         -0.93600       -8.15320        5.03980
C         -0.40760       -5.04200        6.01060
C         -1.99150       -1.70750        6.24200
S         -1.67320       -0.16550        5.47180
C         -0.22180       -0.79700        4.78800
C          0.73170       -0.35550        3.86320
N          0.91990        0.72690        3.04960
C          1.96450        0.43530        2.18960
C          2.49520        1.10690        1.05630
N          2.22920        2.34360        0.48500
C          2.84440        2.37260       -0.73820
C          2.87310        3.21420       -1.85580
S          2.19640        4.74100       -2.28450
C          1.84070        3.59240        1.10730
C          2.70520        3.90250        2.32620
C         -0.08920        1.75820        2.99300
C         -0.98350        1.60160        1.76550
C         -3.29050       -1.92110        6.83040
C         -4.04590       -3.06140        6.51750
F         -3.55730       -3.96170        5.65510
C         -5.31650       -3.25370        7.01780
F         -6.00420       -4.32620        6.59770
C         -5.92820       -2.32660        7.87640
C         -5.18590       -1.16610        8.15250
F         -5.72300       -0.23300        8.94520
C         -3.91530       -0.96970        7.64920
F         -3.25350        0.15240        7.96450
C         -7.26350       -2.44900        8.39470
C         -8.03450       -3.54320        8.58160
C         -9.50500       -3.35630        8.78930
O        -10.06190       -2.32860        9.07600
C        -10.09860       -4.67690        8.48730
C        -11.43360       -5.00920        8.32400
Cl       -12.67260       -3.87700        8.62140
C        -11.74410       -6.30680        7.89010
Cl       -13.37700       -6.76710        7.68980
C        -10.72480       -7.20980        7.58500
Cl       -11.12880       -8.75300        6.97450
C         -9.37250       -6.86940        7.75630
Cl        -8.16800       -7.96430        7.22350
C         -9.06660       -5.61310        8.26180
C         -7.78830       -4.97650        8.56620
C         -6.66370       -5.58180        9.05070
C         -5.51070       -4.85910        9.42770
N         -4.55180       -4.30710        9.73080
C         -6.53510       -6.94930        9.38160
N         -6.36170       -8.01930        9.75550
H          0.48610        9.12960       -7.55000
H          4.86710        5.07810       -5.76560
H          5.99390        4.47580       -7.86150
H          6.06610        2.12840       -8.60330
H          5.22770       -0.12420       -8.41090
H          4.07920       -0.54440       -7.13220
H          5.95710       -0.70910       -5.49770
H          6.20120       -1.80770       -6.86000
H          7.10420       -0.29190       -6.77080
H          3.80080        0.97800       -5.18200
H         -1.85830       -3.28490        8.51530
H         -1.85050       -5.50440        9.54280
H         -0.89520       -7.43200        8.33680
H          0.60800       -8.18990        6.54000
H          0.95890       -7.13710        5.16100
H         -0.53910       -9.00040        4.48550
H         -1.71990       -8.50860        5.70470
H         -1.37830       -7.45180        4.33600
H         -0.02230       -4.91630        5.00990
H          0.77880        3.59260        1.35600
H          1.98990        4.37110        0.35520
H          2.39010        4.84140        2.77330
H          3.74760        3.99330        2.02950
H          2.63460        3.11530        3.07330
H         -0.69620        1.65130        3.89550
H          0.37390        2.74310        3.03470
H         -1.71860        2.40120        1.73670
H         -1.50920        0.65080        1.81050
H         -0.40010        1.62360        0.84810
H         -7.75210       -1.50570        8.62170
