
  xtb     02112203553D
 energy: -299.987365570765 gnorm: 0.000249805858 xtb: 6.4.1 (unknown)
137152  0     0  0            999 V2000
    1.0763    8.3012   -7.9199 C   0  0  0  0  0  0  0  0  0  0  0  0
    1.3833    8.2129   -9.2343 C   0  0  0  0  0  0  0  0  0  0  0  0
    2.5045    7.3882   -9.7727 C   0  0  0  0  0  0  0  0  0  0  0  0
    3.2133    6.6245   -9.1649 O   0  0  0  0  0  0  0  0  0  0  0  0
    2.6632    7.8281  -11.1750 C   0  0  0  0  0  0  0  0  0  0  0  0
    3.6178    7.4209  -12.0925 C   0  0  0  0  0  0  0  0  0  0  0  0
    4.7172    6.1705  -11.7326 Cl  0  0  0  0  0  0  0  0  0  0  0  0
    3.6578    8.0657  -13.3374 C   0  0  0  0  0  0  0  0  0  0  0  0
    4.7870    7.5683  -14.5184 Cl  0  0  0  0  0  0  0  0  0  0  0  0
    2.8047    9.1385  -13.5971 C   0  0  0  0  0  0  0  0  0  0  0  0
    2.9387    9.9718  -15.0829 Cl  0  0  0  0  0  0  0  0  0  0  0  0
    1.8469    9.5551  -12.6575 C   0  0  0  0  0  0  0  0  0  0  0  0
    0.9555   10.9832  -12.9786 Cl  0  0  0  0  0  0  0  0  0  0  0  0
    1.7305    8.8467  -11.4671 C   0  0  0  0  0  0  0  0  0  0  0  0
    0.8192    8.9786  -10.3365 C   0  0  0  0  0  0  0  0  0  0  0  0
   -0.4528    9.4788  -10.3337 C   0  0  0  0  0  0  0  0  0  0  0  0
   -1.2756    9.4856   -9.1820 C   0  0  0  0  0  0  0  0  0  0  0  0
   -1.9950    9.5244   -8.2896 N   0  0  0  0  0  0  0  0  0  0  0  0
   -1.2026    9.8990  -11.4552 C   0  0  0  0  0  0  0  0  0  0  0  0
   -1.9312   10.1731  -12.2975 N   0  0  0  0  0  0  0  0  0  0  0  0
    1.5248    7.3571   -6.9226 C   0  0  0  0  0  0  0  0  0  0  0  0
    1.5113    5.9725   -7.1482 C   0  0  0  0  0  0  0  0  0  0  0  0
    0.9896    5.4961   -8.2821 F   0  0  0  0  0  0  0  0  0  0  0  0
    1.9224    5.0803   -6.1790 C   0  0  0  0  0  0  0  0  0  0  0  0
    1.8095    3.7692   -6.4231 F   0  0  0  0  0  0  0  0  0  0  0  0
    2.3865    5.5109   -4.9248 C   0  0  0  0  0  0  0  0  0  0  0  0
    2.3445    6.8911   -4.6829 C   0  0  0  0  0  0  0  0  0  0  0  0
    2.7512    7.3596   -3.4933 F   0  0  0  0  0  0  0  0  0  0  0  0
    1.9193    7.7832   -5.6489 C   0  0  0  0  0  0  0  0  0  0  0  0
    1.9244    9.0958   -5.3840 F   0  0  0  0  0  0  0  0  0  0  0  0
    2.8034    4.5630   -3.9200 C   0  0  0  0  0  0  0  0  0  0  0  0
    3.5461    3.4089   -4.1016 C   0  0  0  0  0  0  0  0  0  0  0  0
    4.2487    3.0651   -5.3355 C   0  0  0  0  0  0  0  0  0  0  0  0
    4.8746    4.0502   -6.0980 C   0  0  0  0  0  0  0  0  0  0  0  0
    5.5206    3.7075   -7.2691 C   0  0  0  0  0  0  0  0  0  0  0  0
    5.5601    2.3873   -7.6845 C   0  0  0  0  0  0  0  0  0  0  0  0
    4.9525    1.3911   -6.9312 C   0  0  0  0  0  0  0  0  0  0  0  0
    5.0308   -0.0512   -7.3399 C   0  0  0  0  0  0  0  0  0  0  0  0
    6.1443   -0.7618   -6.5678 C   0  0  0  0  0  0  0  0  0  0  0  0
    4.3006    1.7415   -5.7590 C   0  0  0  0  0  0  0  0  0  0  0  0
    3.5783    2.6426   -2.9190 C   0  0  0  0  0  0  0  0  0  0  0  0
    4.2702    1.0864   -2.5250 S   0  0  0  0  0  0  0  0  0  0  0  0
    3.5456    1.1847   -0.9571 C   0  0  0  0  0  0  0  0  0  0  0  0
    3.3607    0.3872    0.1833 C   0  0  0  0  0  0  0  0  0  0  0  0
    3.8701   -0.8864    0.5176 C   0  0  0  0  0  0  0  0  0  0  0  0
    3.4504   -1.5012    1.7429 C   0  0  0  0  0  0  0  0  0  0  0  0
    4.0157   -2.6825    1.9359 N   0  0  0  0  0  0  0  0  0  0  0  0
    4.9935   -2.9936    0.6841 S   0  0  0  0  0  0  0  0  0  0  0  0
    4.7281   -1.6361   -0.1565 N   0  0  0  0  0  0  0  0  0  0  0  0
    2.4663   -0.8562    2.5239 C   0  0  0  0  0  0  0  0  0  0  0  0
    1.6897   -1.3352    3.5899 C   0  0  0  0  0  0  0  0  0  0  0  0
    1.4695   -2.7911    4.4994 S   0  0  0  0  0  0  0  0  0  0  0  0
    0.0218   -2.1091    5.2050 C   0  0  0  0  0  0  0  0  0  0  0  0
   -0.9828   -2.6356    6.0440 C   0  0  0  0  0  0  0  0  0  0  0  0
   -0.9535   -3.9500    6.6793 C   0  0  0  0  0  0  0  0  0  0  0  0
   -1.4637   -4.1262    7.9656 C   0  0  0  0  0  0  0  0  0  0  0  0
   -1.4438   -5.3765    8.5513 C   0  0  0  0  0  0  0  0  0  0  0  0
   -0.9076   -6.4567    7.8722 C   0  0  0  0  0  0  0  0  0  0  0  0
   -0.3761   -6.2968    6.5980 C   0  0  0  0  0  0  0  0  0  0  0  0
    0.1740   -7.4714    5.8420 C   0  0  0  0  0  0  0  0  0  0  0  0
   -0.9360   -8.1532    5.0398 C   0  0  0  0  0  0  0  0  0  0  0  0
   -0.4076   -5.0420    6.0106 C   0  0  0  0  0  0  0  0  0  0  0  0
   -1.9915   -1.7075    6.2420 C   0  0  0  0  0  0  0  0  0  0  0  0
   -1.6732   -0.1655    5.4718 S   0  0  0  0  0  0  0  0  0  0  0  0
   -0.2218   -0.7970    4.7880 C   0  0  0  0  0  0  0  0  0  0  0  0
    0.7317   -0.3555    3.8632 C   0  0  0  0  0  0  0  0  0  0  0  0
    0.9199    0.7269    3.0496 N   0  0  0  0  0  0  0  0  0  0  0  0
    1.9645    0.4353    2.1896 C   0  0  0  0  0  0  0  0  0  0  0  0
    2.4952    1.1069    1.0563 C   0  0  0  0  0  0  0  0  0  0  0  0
    2.2292    2.3436    0.4850 N   0  0  0  0  0  0  0  0  0  0  0  0
    2.8444    2.3726   -0.7382 C   0  0  0  0  0  0  0  0  0  0  0  0
    2.8731    3.2142   -1.8558 C   0  0  0  0  0  0  0  0  0  0  0  0
    2.1964    4.7410   -2.2845 S   0  0  0  0  0  0  0  0  0  0  0  0
    1.8407    3.5924    1.1073 C   0  0  0  0  0  0  0  0  0  0  0  0
    2.7052    3.9025    2.3262 C   0  0  0  0  0  0  0  0  0  0  0  0
   -0.0892    1.7582    2.9930 C   0  0  0  0  0  0  0  0  0  0  0  0
   -0.9835    1.6016    1.7655 C   0  0  0  0  0  0  0  0  0  0  0  0
   -3.2905   -1.9211    6.8304 C   0  0  0  0  0  0  0  0  0  0  0  0
   -4.0459   -3.0614    6.5175 C   0  0  0  0  0  0  0  0  0  0  0  0
   -3.5573   -3.9617    5.6551 F   0  0  0  0  0  0  0  0  0  0  0  0
   -5.3165   -3.2537    7.0178 C   0  0  0  0  0  0  0  0  0  0  0  0
   -6.0042   -4.3262    6.5977 F   0  0  0  0  0  0  0  0  0  0  0  0
   -5.9282   -2.3266    7.8764 C   0  0  0  0  0  0  0  0  0  0  0  0
   -5.1859   -1.1661    8.1525 C   0  0  0  0  0  0  0  0  0  0  0  0
   -5.7230   -0.2330    8.9452 F   0  0  0  0  0  0  0  0  0  0  0  0
   -3.9153   -0.9697    7.6492 C   0  0  0  0  0  0  0  0  0  0  0  0
   -3.2535    0.1524    7.9645 F   0  0  0  0  0  0  0  0  0  0  0  0
   -7.2635   -2.4490    8.3947 C   0  0  0  0  0  0  0  0  0  0  0  0
   -8.0345   -3.5432    8.5816 C   0  0  0  0  0  0  0  0  0  0  0  0
   -9.5050   -3.3563    8.7893 C   0  0  0  0  0  0  0  0  0  0  0  0
  -10.0619   -2.3286    9.0760 O   0  0  0  0  0  0  0  0  0  0  0  0
  -10.0986   -4.6769    8.4873 C   0  0  0  0  0  0  0  0  0  0  0  0
  -11.4336   -5.0092    8.3240 C   0  0  0  0  0  0  0  0  0  0  0  0
  -12.6726   -3.8770    8.6214 Cl  0  0  0  0  0  0  0  0  0  0  0  0
  -11.7441   -6.3068    7.8901 C   0  0  0  0  0  0  0  0  0  0  0  0
  -13.3770   -6.7671    7.6898 Cl  0  0  0  0  0  0  0  0  0  0  0  0
  -10.7248   -7.2098    7.5850 C   0  0  0  0  0  0  0  0  0  0  0  0
  -11.1288   -8.7530    6.9745 Cl  0  0  0  0  0  0  0  0  0  0  0  0
   -9.3725   -6.8694    7.7563 C   0  0  0  0  0  0  0  0  0  0  0  0
   -8.1680   -7.9643    7.2235 Cl  0  0  0  0  0  0  0  0  0  0  0  0
   -9.0666   -5.6131    8.2618 C   0  0  0  0  0  0  0  0  0  0  0  0
   -7.7883   -4.9765    8.5662 C   0  0  0  0  0  0  0  0  0  0  0  0
   -6.6637   -5.5818    9.0507 C   0  0  0  0  0  0  0  0  0  0  0  0
   -5.5107   -4.8591    9.4277 C   0  0  0  0  0  0  0  0  0  0  0  0
   -4.5518   -4.3071    9.7308 N   0  0  0  0  0  0  0  0  0  0  0  0
   -6.5351   -6.9493    9.3816 C   0  0  0  0  0  0  0  0  0  0  0  0
   -6.3617   -8.0193    9.7555 N   0  0  0  0  0  0  0  0  0  0  0  0
    0.4861    9.1296   -7.5500 H   0  0  0  0  0  0  0  0  0  0  0  0
    4.8671    5.0781   -5.7656 H   0  0  0  0  0  0  0  0  0  0  0  0
    5.9939    4.4758   -7.8615 H   0  0  0  0  0  0  0  0  0  0  0  0
    6.0661    2.1284   -8.6033 H   0  0  0  0  0  0  0  0  0  0  0  0
    5.2277   -0.1242   -8.4109 H   0  0  0  0  0  0  0  0  0  0  0  0
    4.0792   -0.5444   -7.1322 H   0  0  0  0  0  0  0  0  0  0  0  0
    5.9571   -0.7091   -5.4977 H   0  0  0  0  0  0  0  0  0  0  0  0
    6.2012   -1.8077   -6.8600 H   0  0  0  0  0  0  0  0  0  0  0  0
    7.1042   -0.2919   -6.7708 H   0  0  0  0  0  0  0  0  0  0  0  0
    3.8008    0.9780   -5.1820 H   0  0  0  0  0  0  0  0  0  0  0  0
   -1.8583   -3.2849    8.5153 H   0  0  0  0  0  0  0  0  0  0  0  0
   -1.8505   -5.5044    9.5428 H   0  0  0  0  0  0  0  0  0  0  0  0
   -0.8952   -7.4320    8.3368 H   0  0  0  0  0  0  0  0  0  0  0  0
    0.6080   -8.1899    6.5400 H   0  0  0  0  0  0  0  0  0  0  0  0
    0.9589   -7.1371    5.1610 H   0  0  0  0  0  0  0  0  0  0  0  0
   -0.5391   -9.0004    4.4855 H   0  0  0  0  0  0  0  0  0  0  0  0
   -1.7199   -8.5086    5.7047 H   0  0  0  0  0  0  0  0  0  0  0  0
   -1.3783   -7.4518    4.3360 H   0  0  0  0  0  0  0  0  0  0  0  0
   -0.0223   -4.9163    5.0099 H   0  0  0  0  0  0  0  0  0  0  0  0
    0.7788    3.5926    1.3560 H   0  0  0  0  0  0  0  0  0  0  0  0
    1.9899    4.3711    0.3552 H   0  0  0  0  0  0  0  0  0  0  0  0
    2.3901    4.8414    2.7733 H   0  0  0  0  0  0  0  0  0  0  0  0
    3.7476    3.9933    2.0295 H   0  0  0  0  0  0  0  0  0  0  0  0
    2.6346    3.1153    3.0733 H   0  0  0  0  0  0  0  0  0  0  0  0
   -0.6962    1.6513    3.8955 H   0  0  0  0  0  0  0  0  0  0  0  0
    0.3739    2.7431    3.0347 H   0  0  0  0  0  0  0  0  0  0  0  0
   -1.7186    2.4012    1.7367 H   0  0  0  0  0  0  0  0  0  0  0  0
   -1.5092    0.6508    1.8105 H   0  0  0  0  0  0  0  0  0  0  0  0
   -0.4001    1.6236    0.8481 H   0  0  0  0  0  0  0  0  0  0  0  0
   -7.7521   -1.5057    8.6217 H   0  0  0  0  0  0  0  0  0  0  0  0
  1  2  2  0  0  0  0
  2  3  1  0  0  0  0
  3  4  2  0  0  0  0
  3  5  1  0  0  0  0
  5  6  2  0  0  0  0
  6  7  1  0  0  0  0
  6  8  1  0  0  0  0
  8  9  1  0  0  0  0
  8 10  2  0  0  0  0
 10 11  1  0  0  0  0
 10 12  1  0  0  0  0
 12 13  1  0  0  0  0
 12 14  2  0  0  0  0
 14 15  1  0  0  0  0
 15 16  2  0  0  0  0
 16 17  1  0  0  0  0
 17 18  3  0  0  0  0
 16 19  1  0  0  0  0
 19 20  3  0  0  0  0
  1 21  1  0  0  0  0
 21 22  2  0  0  0  0
 22 23  1  0  0  0  0
 22 24  1  0  0  0  0
 24 25  1  0  0  0  0
 24 26  2  0  0  0  0
 26 27  1  0  0  0  0
 27 28  1  0  0  0  0
 27 29  2  0  0  0  0
 29 30  1  0  0  0  0
 26 31  1  0  0  0  0
 31 32  2  0  0  0  0
 32 33  1  0  0  0  0
 33 34  2  0  0  0  0
 34 35  1  0  0  0  0
 35 36  2  0  0  0  0
 36 37  1  0  0  0  0
 37 38  1  0  0  0  0
 38 39  1  0  0  0  0
 37 40  2  0  0  0  0
 32 41  1  0  0  0  0
 41 42  1  0  0  0  0
 42 43  1  0  0  0  0
 43 44  1  0  0  0  0
 44 45  1  0  0  0  0
 45 46  1  0  0  0  0
 46 47  2  0  0  0  0
 47 48  1  0  0  0  0
 48 49  1  0  0  0  0
 46 50  1  0  0  0  0
 50 51  1  0  0  0  0
 51 52  1  0  0  0  0
 52 53  1  0  0  0  0
 53 54  1  0  0  0  0
 54 55  1  0  0  0  0
 55 56  2  0  0  0  0
 56 57  1  0  0  0  0
 57 58  2  0  0  0  0
 58 59  1  0  0  0  0
 59 60  1  0  0  0  0
 60 61  1  0  0  0  0
 59 62  2  0  0  0  0
 54 63  2  0  0  0  0
 63 64  1  0  0  0  0
 64 65  1  0  0  0  0
 65 66  1  0  0  0  0
 66 67  1  0  0  0  0
 67 68  1  0  0  0  0
 68 69  1  0  0  0  0
 69 70  1  0  0  0  0
 70 71  1  0  0  0  0
 71 72  1  0  0  0  0
 72 73  1  0  0  0  0
 70 74  1  0  0  0  0
 74 75  1  0  0  0  0
 67 76  1  0  0  0  0
 76 77  1  0  0  0  0
 63 78  1  0  0  0  0
 78 79  2  0  0  0  0
 79 80  1  0  0  0  0
 79 81  1  0  0  0  0
 81 82  1  0  0  0  0
 81 83  2  0  0  0  0
 83 84  1  0  0  0  0
 84 85  1  0  0  0  0
 84 86  2  0  0  0  0
 86 87  1  0  0  0  0
 83 88  1  0  0  0  0
 88 89  2  0  0  0  0
 89 90  1  0  0  0  0
 90 91  2  0  0  0  0
 90 92  1  0  0  0  0
 92 93  2  0  0  0  0
 93 94  1  0  0  0  0
 93 95  1  0  0  0  0
 95 96  1  0  0  0  0
 95 97  2  0  0  0  0
 97 98  1  0  0  0  0
 97 99  1  0  0  0  0
 99100  1  0  0  0  0
 99101  2  0  0  0  0
101102  1  0  0  0  0
102103  2  0  0  0  0
103104  1  0  0  0  0
104105  3  0  0  0  0
103106  1  0  0  0  0
106107  3  0  0  0  0
 15  2  1  0  0  0  0
 29 21  1  0  0  0  0
 73 31  1  0  0  0  0
 86 78  1  0  0  0  0
102 89  1  0  0  0  0
 14  5  1  0  0  0  0
 40 33  1  0  0  0  0
 72 41  2  0  0  0  0
101 92  1  0  0  0  0
 71 43  2  0  0  0  0
 69 44  2  0  0  0  0
 49 45  2  0  0  0  0
 68 50  2  0  0  0  0
 66 51  2  0  0  0  0
 65 53  2  0  0  0  0
 62 55  1  0  0  0  0
  1108  1  0  0  0  0
 34109  1  0  0  0  0
 35110  1  0  0  0  0
 36111  1  0  0  0  0
 38112  1  0  0  0  0
 38113  1  0  0  0  0
 39114  1  0  0  0  0
 39115  1  0  0  0  0
 39116  1  0  0  0  0
 40117  1  0  0  0  0
 56118  1  0  0  0  0
 57119  1  0  0  0  0
 58120  1  0  0  0  0
 60121  1  0  0  0  0
 60122  1  0  0  0  0
 61123  1  0  0  0  0
 61124  1  0  0  0  0
 61125  1  0  0  0  0
 62126  1  0  0  0  0
 74127  1  0  0  0  0
 74128  1  0  0  0  0
 75129  1  0  0  0  0
 75130  1  0  0  0  0
 75131  1  0  0  0  0
 76132  1  0  0  0  0
 76133  1  0  0  0  0
 77134  1  0  0  0  0
 77135  1  0  0  0  0
 77136  1  0  0  0  0
 88137  1  0  0  0  0
M  END
