
  xtb     02112207003D
 energy: -268.268945738724 gnorm: 0.000433168227 xtb: 6.4.1 (unknown)
148163  0     0  0            999 V2000
   -5.9692   -9.0990   -4.4570 C   0  0  0  0  0  0  0  0  0  0  0  0
   -5.1175   -9.9993   -3.8659 C   0  0  0  0  0  0  0  0  0  0  0  0
   -4.0055   -9.6633   -2.9787 C   0  0  0  0  0  0  0  0  0  0  0  0
   -3.7262   -8.5735   -2.5163 O   0  0  0  0  0  0  0  0  0  0  0  0
   -3.2537  -10.9222   -2.7764 C   0  0  0  0  0  0  0  0  0  0  0  0
   -2.0579  -11.1160   -2.1086 C   0  0  0  0  0  0  0  0  0  0  0  0
   -1.3154   -9.8574   -1.2289 Cl  0  0  0  0  0  0  0  0  0  0  0  0
   -1.4568  -12.3809   -2.1803 C   0  0  0  0  0  0  0  0  0  0  0  0
    0.0041  -12.6795   -1.3441 Cl  0  0  0  0  0  0  0  0  0  0  0  0
   -2.0242  -13.3796   -2.9694 C   0  0  0  0  0  0  0  0  0  0  0  0
   -1.2192  -14.8807   -3.1247 Cl  0  0  0  0  0  0  0  0  0  0  0  0
   -3.2348  -13.1729   -3.6523 C   0  0  0  0  0  0  0  0  0  0  0  0
   -3.7678  -14.3836   -4.7437 Cl  0  0  0  0  0  0  0  0  0  0  0  0
   -3.8892  -11.9584   -3.4913 C   0  0  0  0  0  0  0  0  0  0  0  0
   -5.1516  -11.4424   -4.0191 C   0  0  0  0  0  0  0  0  0  0  0  0
   -6.2472  -12.1825   -4.3796 C   0  0  0  0  0  0  0  0  0  0  0  0
   -7.4521  -11.6386   -4.8776 C   0  0  0  0  0  0  0  0  0  0  0  0
   -8.4570  -11.2827   -5.3041 N   0  0  0  0  0  0  0  0  0  0  0  0
   -6.4219  -13.5653   -4.1530 C   0  0  0  0  0  0  0  0  0  0  0  0
   -6.7094  -14.6506   -3.9155 N   0  0  0  0  0  0  0  0  0  0  0  0
   -6.0337   -7.7054   -4.3342 C   0  0  0  0  0  0  0  0  0  0  0  0
   -6.9076   -6.9260   -5.0879 C   0  0  0  0  0  0  0  0  0  0  0  0
   -6.8361   -5.5627   -4.8352 C   0  0  0  0  0  0  0  0  0  0  0  0
   -7.8160   -4.4488   -5.7890 S   0  0  0  0  0  0  0  0  0  0  0  0
   -6.5735   -3.2015   -6.3113 C   0  0  0  0  0  0  0  0  0  0  0  0
   -7.2547   -2.1855   -7.2056 C   0  0  0  0  0  0  0  0  0  0  0  0
   -5.9176   -5.2610   -3.8245 C   0  0  0  0  0  0  0  0  0  0  0  0
   -5.0881   -6.6876   -3.2753 S   0  0  0  0  0  0  0  0  0  0  0  0
   -5.5564   -4.0209   -3.2305 C   0  0  0  0  0  0  0  0  0  0  0  0
   -6.3139   -2.8877   -2.9659 C   0  0  0  0  0  0  0  0  0  0  0  0
   -7.7621   -2.7828   -3.1347 C   0  0  0  0  0  0  0  0  0  0  0  0
   -8.3278   -1.6180   -3.6459 C   0  0  0  0  0  0  0  0  0  0  0  0
   -9.6978   -1.5323   -3.8039 C   0  0  0  0  0  0  0  0  0  0  0  0
  -10.5099   -2.5934   -3.4462 C   0  0  0  0  0  0  0  0  0  0  0  0
   -9.9634   -3.7565   -2.9168 C   0  0  0  0  0  0  0  0  0  0  0  0
  -10.8466   -4.8888   -2.4805 C   0  0  0  0  0  0  0  0  0  0  0  0
  -11.3016   -4.6839   -1.0342 C   0  0  0  0  0  0  0  0  0  0  0  0
   -8.5897   -3.8376   -2.7605 C   0  0  0  0  0  0  0  0  0  0  0  0
   -5.5219   -1.8658   -2.4068 C   0  0  0  0  0  0  0  0  0  0  0  0
   -5.8911   -0.2378   -1.8869 S   0  0  0  0  0  0  0  0  0  0  0  0
   -4.2420   -0.0462   -1.4004 C   0  0  0  0  0  0  0  0  0  0  0  0
   -3.3980    0.9406   -0.8703 C   0  0  0  0  0  0  0  0  0  0  0  0
   -3.6374    2.3020   -0.5837 C   0  0  0  0  0  0  0  0  0  0  0  0
   -2.5384    3.1258   -0.1740 C   0  0  0  0  0  0  0  0  0  0  0  0
   -2.8917    4.3892    0.0042 N   0  0  0  0  0  0  0  0  0  0  0  0
   -4.4733    4.5281   -0.3109 S   0  0  0  0  0  0  0  0  0  0  0  0
   -4.7683    2.9822   -0.6904 N   0  0  0  0  0  0  0  0  0  0  0  0
   -1.2768    2.5262    0.0317 C   0  0  0  0  0  0  0  0  0  0  0  0
   -0.0750    3.0626    0.5177 C   0  0  0  0  0  0  0  0  0  0  0  0
    0.5786    4.5903    1.0042 S   0  0  0  0  0  0  0  0  0  0  0  0
    2.0881    3.7925    1.3761 C   0  0  0  0  0  0  0  0  0  0  0  0
    3.3091    4.2692    1.8811 C   0  0  0  0  0  0  0  0  0  0  0  0
    3.5397    5.6719    2.2420 C   0  0  0  0  0  0  0  0  0  0  0  0
    3.3652    6.6726    1.2935 C   0  0  0  0  0  0  0  0  0  0  0  0
    3.5857    7.9915    1.6429 C   0  0  0  0  0  0  0  0  0  0  0  0
    3.9672    8.3179    2.9316 C   0  0  0  0  0  0  0  0  0  0  0  0
    4.1197    7.3315    3.8976 C   0  0  0  0  0  0  0  0  0  0  0  0
    4.5686    7.6742    5.2885 C   0  0  0  0  0  0  0  0  0  0  0  0
    6.0844    7.5059    5.4062 C   0  0  0  0  0  0  0  0  0  0  0  0
    3.9008    6.0105    3.5413 C   0  0  0  0  0  0  0  0  0  0  0  0
    4.2371    3.2489    2.0117 C   0  0  0  0  0  0  0  0  0  0  0  0
    3.5759    1.6839    1.5366 S   0  0  0  0  0  0  0  0  0  0  0  0
    2.0634    2.4148    1.1373 C   0  0  0  0  0  0  0  0  0  0  0  0
    0.8237    1.9990    0.6387 C   0  0  0  0  0  0  0  0  0  0  0  0
    0.2366    0.8353    0.2202 N   0  0  0  0  0  0  0  0  0  0  0  0
   -1.0594    1.1332   -0.1728 C   0  0  0  0  0  0  0  0  0  0  0  0
   -2.1066    0.3543   -0.7340 C   0  0  0  0  0  0  0  0  0  0  0  0
   -2.1711   -0.9473   -1.2059 N   0  0  0  0  0  0  0  0  0  0  0  0
   -3.4558   -1.1810   -1.6156 C   0  0  0  0  0  0  0  0  0  0  0  0
   -4.1863   -2.2228   -2.2001 C   0  0  0  0  0  0  0  0  0  0  0  0
   -3.8804   -3.8424   -2.7167 S   0  0  0  0  0  0  0  0  0  0  0  0
   -1.1161   -1.8419   -1.6262 C   0  0  0  0  0  0  0  0  0  0  0  0
   -0.2363   -1.2052   -2.6991 C   0  0  0  0  0  0  0  0  0  0  0  0
    0.8323   -0.4304    0.5873 C   0  0  0  0  0  0  0  0  0  0  0  0
    0.0219   -1.1381    1.6702 C   0  0  0  0  0  0  0  0  0  0  0  0
    5.6064    3.3177    2.3718 C   0  0  0  0  0  0  0  0  0  0  0  0
    6.4412    2.2271    2.5709 C   0  0  0  0  0  0  0  0  0  0  0  0
    7.7415    2.5921    2.8742 C   0  0  0  0  0  0  0  0  0  0  0  0
    9.0082    1.4004    3.1993 S   0  0  0  0  0  0  0  0  0  0  0  0
    9.1730    1.5992    5.0150 C   0  0  0  0  0  0  0  0  0  0  0  0
    7.9471    1.0889    5.7434 C   0  0  0  0  0  0  0  0  0  0  0  0
    7.9564    3.9797    2.8716 C   0  0  0  0  0  0  0  0  0  0  0  0
    6.4604    4.8200    2.5310 S   0  0  0  0  0  0  0  0  0  0  0  0
    9.2096    4.5611    3.0947 C   0  0  0  0  0  0  0  0  0  0  0  0
    9.5911    5.8788    3.0685 C   0  0  0  0  0  0  0  0  0  0  0  0
    8.7496    7.0120    2.6674 C   0  0  0  0  0  0  0  0  0  0  0  0
    7.5522    7.0099    2.4391 O   0  0  0  0  0  0  0  0  0  0  0  0
    9.6535    8.1729    2.5704 C   0  0  0  0  0  0  0  0  0  0  0  0
    9.3612    9.4632    2.1811 C   0  0  0  0  0  0  0  0  0  0  0  0
   10.3879   10.4043    2.1436 C   0  0  0  0  0  0  0  0  0  0  0  0
   10.1122   11.8188    1.7435 C   0  0  0  0  0  0  0  0  0  0  0  0
   11.6763   10.0127    2.5015 C   0  0  0  0  0  0  0  0  0  0  0  0
   11.9755    8.7182    2.8998 C   0  0  0  0  0  0  0  0  0  0  0  0
   10.9533    7.7830    2.9370 C   0  0  0  0  0  0  0  0  0  0  0  0
   10.9317    6.3721    3.3126 C   0  0  0  0  0  0  0  0  0  0  0  0
   11.9767    5.6839    3.8739 C   0  0  0  0  0  0  0  0  0  0  0  0
   11.9068    4.3698    4.3791 C   0  0  0  0  0  0  0  0  0  0  0  0
   11.9122    3.3240    4.8553 N   0  0  0  0  0  0  0  0  0  0  0  0
   13.2597    6.2303    4.0835 C   0  0  0  0  0  0  0  0  0  0  0  0
   14.3258    6.6103    4.2768 N   0  0  0  0  0  0  0  0  0  0  0  0
   -6.6989   -9.4973   -5.1515 H   0  0  0  0  0  0  0  0  0  0  0  0
   -7.5723   -7.3438   -5.8230 H   0  0  0  0  0  0  0  0  0  0  0  0
   -5.7836   -3.7361   -6.8390 H   0  0  0  0  0  0  0  0  0  0  0  0
   -6.1668   -2.7261   -5.4211 H   0  0  0  0  0  0  0  0  0  0  0  0
   -8.0568   -1.6892   -6.6638 H   0  0  0  0  0  0  0  0  0  0  0  0
   -7.6786   -2.6712   -8.0812 H   0  0  0  0  0  0  0  0  0  0  0  0
   -6.5346   -1.4383   -7.5323 H   0  0  0  0  0  0  0  0  0  0  0  0
   -7.6934   -0.7950   -3.9396 H   0  0  0  0  0  0  0  0  0  0  0  0
  -10.1338   -0.6328   -4.2132 H   0  0  0  0  0  0  0  0  0  0  0  0
  -11.5795   -2.5214   -3.5800 H   0  0  0  0  0  0  0  0  0  0  0  0
  -11.7221   -4.9438   -3.1300 H   0  0  0  0  0  0  0  0  0  0  0  0
  -10.3036   -5.8326   -2.5594 H   0  0  0  0  0  0  0  0  0  0  0  0
  -10.4415   -4.6360   -0.3699 H   0  0  0  0  0  0  0  0  0  0  0  0
  -11.8578   -3.7539   -0.9402 H   0  0  0  0  0  0  0  0  0  0  0  0
  -11.9403   -5.5047   -0.7169 H   0  0  0  0  0  0  0  0  0  0  0  0
   -8.1517   -4.7318   -2.3397 H   0  0  0  0  0  0  0  0  0  0  0  0
    3.0748    6.4123    0.2865 H   0  0  0  0  0  0  0  0  0  0  0  0
    3.4604    8.7688    0.9036 H   0  0  0  0  0  0  0  0  0  0  0  0
    4.1441    9.3509    3.1945 H   0  0  0  0  0  0  0  0  0  0  0  0
    4.0753    7.0204    6.0110 H   0  0  0  0  0  0  0  0  0  0  0  0
    4.3004    8.7064    5.5222 H   0  0  0  0  0  0  0  0  0  0  0  0
    6.4252    7.7800    6.4023 H   0  0  0  0  0  0  0  0  0  0  0  0
    6.5884    8.1333    4.6753 H   0  0  0  0  0  0  0  0  0  0  0  0
    6.3662    6.4738    5.2100 H   0  0  0  0  0  0  0  0  0  0  0  0
    4.0065    5.2300    4.2823 H   0  0  0  0  0  0  0  0  0  0  0  0
   -0.5300   -2.1752   -0.7694 H   0  0  0  0  0  0  0  0  0  0  0  0
   -1.6061   -2.7263   -2.0409 H   0  0  0  0  0  0  0  0  0  0  0  0
    0.5595   -1.8895   -2.9803 H   0  0  0  0  0  0  0  0  0  0  0  0
   -0.8307   -0.9840   -3.5826 H   0  0  0  0  0  0  0  0  0  0  0  0
    0.2050   -0.2758   -2.3471 H   0  0  0  0  0  0  0  0  0  0  0  0
    1.8282   -0.2020    0.9750 H   0  0  0  0  0  0  0  0  0  0  0  0
    0.9695   -1.0621   -0.2905 H   0  0  0  0  0  0  0  0  0  0  0  0
   -0.9991   -1.3207    1.3437 H   0  0  0  0  0  0  0  0  0  0  0  0
    0.4872   -2.0877    1.9201 H   0  0  0  0  0  0  0  0  0  0  0  0
   -0.0146   -0.5238    2.5669 H   0  0  0  0  0  0  0  0  0  0  0  0
    6.1125    1.2043    2.5108 H   0  0  0  0  0  0  0  0  0  0  0  0
    9.3646    2.6491    5.2294 H   0  0  0  0  0  0  0  0  0  0  0  0
   10.0605    1.0209    5.2651 H   0  0  0  0  0  0  0  0  0  0  0  0
    7.7676    0.0440    5.5009 H   0  0  0  0  0  0  0  0  0  0  0  0
    7.0660    1.6654    5.4653 H   0  0  0  0  0  0  0  0  0  0  0  0
    8.0949    1.1780    6.8177 H   0  0  0  0  0  0  0  0  0  0  0  0
    9.9919    3.8308    3.2725 H   0  0  0  0  0  0  0  0  0  0  0  0
    8.3500    9.7263    1.9082 H   0  0  0  0  0  0  0  0  0  0  0  0
    9.2036   11.8853    1.1507 H   0  0  0  0  0  0  0  0  0  0  0  0
    9.9832   12.4360    2.6333 H   0  0  0  0  0  0  0  0  0  0  0  0
   10.9419   12.2286    1.1720 H   0  0  0  0  0  0  0  0  0  0  0  0
   12.4716   10.7431    2.4660 H   0  0  0  0  0  0  0  0  0  0  0  0
   12.9880    8.4594    3.1631 H   0  0  0  0  0  0  0  0  0  0  0  0
  1  2  2  0  0  0  0
  2  3  1  0  0  0  0
  3  4  2  0  0  0  0
  3  5  1  0  0  0  0
  5  6  2  0  0  0  0
  6  7  1  0  0  0  0
  6  8  1  0  0  0  0
  8  9  1  0  0  0  0
  8 10  2  0  0  0  0
 10 11  1  0  0  0  0
 10 12  1  0  0  0  0
 12 13  1  0  0  0  0
 12 14  2  0  0  0  0
 14 15  1  0  0  0  0
 15 16  2  0  0  0  0
 16 17  1  0  0  0  0
 17 18  3  0  0  0  0
 16 19  1  0  0  0  0
 19 20  3  0  0  0  0
  1 21  1  0  0  0  0
 21 22  2  0  0  0  0
 22 23  1  0  0  0  0
 23 24  1  0  0  0  0
 24 25  1  0  0  0  0
 25 26  1  0  0  0  0
 23 27  2  0  0  0  0
 27 28  1  0  0  0  0
 27 29  1  0  0  0  0
 29 30  2  0  0  0  0
 30 31  1  0  0  0  0
 31 32  2  0  0  0  0
 32 33  1  0  0  0  0
 33 34  2  0  0  0  0
 34 35  1  0  0  0  0
 35 36  1  0  0  0  0
 36 37  1  0  0  0  0
 35 38  2  0  0  0  0
 30 39  1  0  0  0  0
 39 40  1  0  0  0  0
 40 41  1  0  0  0  0
 41 42  1  0  0  0  0
 42 43  1  0  0  0  0
 43 44  1  0  0  0  0
 44 45  2  0  0  0  0
 45 46  1  0  0  0  0
 46 47  1  0  0  0  0
 44 48  1  0  0  0  0
 48 49  1  0  0  0  0
 49 50  1  0  0  0  0
 50 51  1  0  0  0  0
 51 52  1  0  0  0  0
 52 53  1  0  0  0  0
 53 54  2  0  0  0  0
 54 55  1  0  0  0  0
 55 56  2  0  0  0  0
 56 57  1  0  0  0  0
 57 58  1  0  0  0  0
 58 59  1  0  0  0  0
 57 60  2  0  0  0  0
 52 61  2  0  0  0  0
 61 62  1  0  0  0  0
 62 63  1  0  0  0  0
 63 64  1  0  0  0  0
 64 65  1  0  0  0  0
 65 66  1  0  0  0  0
 66 67  1  0  0  0  0
 67 68  1  0  0  0  0
 68 69  1  0  0  0  0
 69 70  1  0  0  0  0
 70 71  1  0  0  0  0
 68 72  1  0  0  0  0
 72 73  1  0  0  0  0
 65 74  1  0  0  0  0
 74 75  1  0  0  0  0
 61 76  1  0  0  0  0
 76 77  2  0  0  0  0
 77 78  1  0  0  0  0
 78 79  1  0  0  0  0
 79 80  1  0  0  0  0
 80 81  1  0  0  0  0
 78 82  2  0  0  0  0
 82 83  1  0  0  0  0
 82 84  1  0  0  0  0
 84 85  2  0  0  0  0
 85 86  1  0  0  0  0
 86 87  2  0  0  0  0
 86 88  1  0  0  0  0
 88 89  2  0  0  0  0
 89 90  1  0  0  0  0
 90 91  1  0  0  0  0
 90 92  2  0  0  0  0
 92 93  1  0  0  0  0
 93 94  2  0  0  0  0
 94 95  1  0  0  0  0
 95 96  2  0  0  0  0
 96 97  1  0  0  0  0
 97 98  3  0  0  0  0
 96 99  1  0  0  0  0
 99100  3  0  0  0  0
 15  2  1  0  0  0  0
 28 21  1  0  0  0  0
 71 29  1  0  0  0  0
 83 76  1  0  0  0  0
 95 85  1  0  0  0  0
 14  5  1  0  0  0  0
 38 31  1  0  0  0  0
 70 39  2  0  0  0  0
 94 88  1  0  0  0  0
 69 41  2  0  0  0  0
 67 42  2  0  0  0  0
 47 43  2  0  0  0  0
 66 48  2  0  0  0  0
 64 49  2  0  0  0  0
 63 51  2  0  0  0  0
 60 53  1  0  0  0  0
  1101  1  0  0  0  0
 22102  1  0  0  0  0
 25103  1  0  0  0  0
 25104  1  0  0  0  0
 26105  1  0  0  0  0
 26106  1  0  0  0  0
 26107  1  0  0  0  0
 32108  1  0  0  0  0
 33109  1  0  0  0  0
 34110  1  0  0  0  0
 36111  1  0  0  0  0
 36112  1  0  0  0  0
 37113  1  0  0  0  0
 37114  1  0  0  0  0
 37115  1  0  0  0  0
 38116  1  0  0  0  0
 54117  1  0  0  0  0
 55118  1  0  0  0  0
 56119  1  0  0  0  0
 58120  1  0  0  0  0
 58121  1  0  0  0  0
 59122  1  0  0  0  0
 59123  1  0  0  0  0
 59124  1  0  0  0  0
 60125  1  0  0  0  0
 72126  1  0  0  0  0
 72127  1  0  0  0  0
 73128  1  0  0  0  0
 73129  1  0  0  0  0
 73130  1  0  0  0  0
 74131  1  0  0  0  0
 74132  1  0  0  0  0
 75133  1  0  0  0  0
 75134  1  0  0  0  0
 75135  1  0  0  0  0
 77136  1  0  0  0  0
 80137  1  0  0  0  0
 80138  1  0  0  0  0
 81139  1  0  0  0  0
 81140  1  0  0  0  0
 81141  1  0  0  0  0
 84142  1  0  0  0  0
 89143  1  0  0  0  0
 91144  1  0  0  0  0
 91145  1  0  0  0  0
 91146  1  0  0  0  0
 92147  1  0  0  0  0
 93148  1  0  0  0  0
M  END
