
  xtb     02112212023D
 energy: -297.491849165502 gnorm: 0.000273892336 xtb: 6.4.1 (unknown)
161178  0     0  0            999 V2000
   12.4598    0.5609    0.0545 C   0  0  0  0  0  0  0  0  0  0  0  0
   13.0177    1.6153    0.7332 C   0  0  0  0  0  0  0  0  0  0  0  0
   12.3786    2.9003    1.0610 C   0  0  0  0  0  0  0  0  0  0  0  0
   11.3515    3.3716    0.6222 O   0  0  0  0  0  0  0  0  0  0  0  0
   13.2184    3.4936    2.1305 C   0  0  0  0  0  0  0  0  0  0  0  0
   12.9811    4.6380    2.8709 C   0  0  0  0  0  0  0  0  0  0  0  0
   11.6687    5.6711    2.5232 Cl  0  0  0  0  0  0  0  0  0  0  0  0
   13.8473    4.9321    3.9337 C   0  0  0  0  0  0  0  0  0  0  0  0
   13.6132    6.3521    4.8572 Cl  0  0  0  0  0  0  0  0  0  0  0  0
   14.8712    4.0470    4.2656 C   0  0  0  0  0  0  0  0  0  0  0  0
   15.8522    4.3756    5.6276 Cl  0  0  0  0  0  0  0  0  0  0  0  0
   15.1025    2.8829    3.5139 C   0  0  0  0  0  0  0  0  0  0  0  0
   16.2655    1.7604    4.0876 Cl  0  0  0  0  0  0  0  0  0  0  0  0
   14.3113    2.6446    2.3979 C   0  0  0  0  0  0  0  0  0  0  0  0
   14.3033    1.5728    1.4058 C   0  0  0  0  0  0  0  0  0  0  0  0
   15.3669    0.8128    0.9956 C   0  0  0  0  0  0  0  0  0  0  0  0
   16.7158    0.9888    1.3721 C   0  0  0  0  0  0  0  0  0  0  0  0
   17.8457    1.1066    1.5345 N   0  0  0  0  0  0  0  0  0  0  0  0
   15.2841   -0.1592   -0.0276 C   0  0  0  0  0  0  0  0  0  0  0  0
   15.2983   -0.9624   -0.8477 N   0  0  0  0  0  0  0  0  0  0  0  0
   11.2735    0.5172   -0.6937 C   0  0  0  0  0  0  0  0  0  0  0  0
   10.5220    1.5076   -1.3038 C   0  0  0  0  0  0  0  0  0  0  0  0
    9.3799    1.0280   -1.9303 C   0  0  0  0  0  0  0  0  0  0  0  0
    8.2373    2.0674   -2.7883 S   0  0  0  0  0  0  0  0  0  0  0  0
    7.4313    2.9310   -1.3818 C   0  0  0  0  0  0  0  0  0  0  0  0
    8.2441    4.0813   -0.8257 C   0  0  0  0  0  0  0  0  0  0  0  0
    9.2310   -0.3599   -1.8593 C   0  0  0  0  0  0  0  0  0  0  0  0
   10.5646   -1.0620   -1.0013 S   0  0  0  0  0  0  0  0  0  0  0  0
    8.1218   -1.1344   -2.2720 C   0  0  0  0  0  0  0  0  0  0  0  0
    8.0234   -2.5218   -2.3426 C   0  0  0  0  0  0  0  0  0  0  0  0
    9.1589   -3.4429   -2.2962 C   0  0  0  0  0  0  0  0  0  0  0  0
    9.1169   -4.5727   -1.4861 C   0  0  0  0  0  0  0  0  0  0  0  0
   10.1925   -5.4413   -1.4651 C   0  0  0  0  0  0  0  0  0  0  0  0
   11.3054   -5.1942   -2.2480 C   0  0  0  0  0  0  0  0  0  0  0  0
   11.3579   -4.0777   -3.0757 C   0  0  0  0  0  0  0  0  0  0  0  0
   12.5458   -3.8370   -3.9608 C   0  0  0  0  0  0  0  0  0  0  0  0
   12.4112   -4.6247   -5.2654 C   0  0  0  0  0  0  0  0  0  0  0  0
   10.2750   -3.2146   -3.0982 C   0  0  0  0  0  0  0  0  0  0  0  0
    6.6941   -2.9313   -2.5194 C   0  0  0  0  0  0  0  0  0  0  0  0
    5.9361   -4.5053   -2.6226 S   0  0  0  0  0  0  0  0  0  0  0  0
    4.3934   -3.7286   -2.7455 C   0  0  0  0  0  0  0  0  0  0  0  0
    3.0300   -4.0644   -2.8153 C   0  0  0  0  0  0  0  0  0  0  0  0
    2.3556   -5.3007   -2.9287 C   0  0  0  0  0  0  0  0  0  0  0  0
    0.9189   -5.3106   -2.9870 C   0  0  0  0  0  0  0  0  0  0  0  0
    0.4292   -6.5315   -3.1326 N   0  0  0  0  0  0  0  0  0  0  0  0
    1.6626   -7.5783   -3.1894 S   0  0  0  0  0  0  0  0  0  0  0  0
    2.8721   -6.5152   -3.0265 N   0  0  0  0  0  0  0  0  0  0  0  0
    0.2155   -4.0992   -2.7980 C   0  0  0  0  0  0  0  0  0  0  0  0
   -1.1416   -3.8344   -2.5499 C   0  0  0  0  0  0  0  0  0  0  0  0
   -2.6417   -4.6905   -2.4185 S   0  0  0  0  0  0  0  0  0  0  0  0
   -3.4046   -3.2224   -1.8551 C   0  0  0  0  0  0  0  0  0  0  0  0
   -4.7171   -2.9295   -1.4324 C   0  0  0  0  0  0  0  0  0  0  0  0
   -5.8189   -3.8945   -1.4639 C   0  0  0  0  0  0  0  0  0  0  0  0
   -7.0370   -3.5580   -2.0495 C   0  0  0  0  0  0  0  0  0  0  0  0
   -8.0644   -4.4809   -2.0794 C   0  0  0  0  0  0  0  0  0  0  0  0
   -7.8881   -5.7393   -1.5295 C   0  0  0  0  0  0  0  0  0  0  0  0
   -6.6746   -6.0967   -0.9560 C   0  0  0  0  0  0  0  0  0  0  0  0
   -6.4938   -7.4462   -0.3240 C   0  0  0  0  0  0  0  0  0  0  0  0
   -6.9521   -7.4151    1.1356 C   0  0  0  0  0  0  0  0  0  0  0  0
   -5.6454   -5.1667   -0.9317 C   0  0  0  0  0  0  0  0  0  0  0  0
   -4.8267   -1.6110   -1.0308 C   0  0  0  0  0  0  0  0  0  0  0  0
   -3.3293   -0.7173   -1.2215 S   0  0  0  0  0  0  0  0  0  0  0  0
   -2.5326   -2.1328   -1.8060 C   0  0  0  0  0  0  0  0  0  0  0  0
   -1.2384   -2.4809   -2.2121 C   0  0  0  0  0  0  0  0  0  0  0  0
   -0.0052   -1.8910   -2.2794 N   0  0  0  0  0  0  0  0  0  0  0  0
    0.9047   -2.8647   -2.6454 C   0  0  0  0  0  0  0  0  0  0  0  0
    2.3117   -2.8372   -2.7961 C   0  0  0  0  0  0  0  0  0  0  0  0
    3.2122   -1.7859   -2.7930 N   0  0  0  0  0  0  0  0  0  0  0  0
    4.4705   -2.3314   -2.7358 C   0  0  0  0  0  0  0  0  0  0  0  0
    5.7826   -1.8732   -2.6089 C   0  0  0  0  0  0  0  0  0  0  0  0
    6.5671   -0.3393   -2.5132 S   0  0  0  0  0  0  0  0  0  0  0  0
    3.0340   -0.4694   -3.3687 C   0  0  0  0  0  0  0  0  0  0  0  0
    3.6162   -0.3958   -4.7801 C   0  0  0  0  0  0  0  0  0  0  0  0
    0.2156   -0.5949   -1.6773 C   0  0  0  0  0  0  0  0  0  0  0  0
   -0.3128    0.5440   -2.5492 C   0  0  0  0  0  0  0  0  0  0  0  0
   -5.9249   -0.9579   -0.3968 C   0  0  0  0  0  0  0  0  0  0  0  0
   -6.9415   -1.5130    0.3225 C   0  0  0  0  0  0  0  0  0  0  0  0
   -7.8239   -0.5659    0.8942 C   0  0  0  0  0  0  0  0  0  0  0  0
   -8.9317   -0.8558    1.7072 C   0  0  0  0  0  0  0  0  0  0  0  0
   -9.2972   -2.1407    2.0166 O   0  0  0  0  0  0  0  0  0  0  0  0
   -9.9254   -2.8761    0.9739 C   0  0  0  0  0  0  0  0  0  0  0  0
  -11.3077   -2.3332    0.6316 C   0  0  0  0  0  0  0  0  0  0  0  0
   -9.6001    0.2235    2.2550 C   0  0  0  0  0  0  0  0  0  0  0  0
   -9.2248    1.5646    1.9875 C   0  0  0  0  0  0  0  0  0  0  0  0
   -8.1433    1.8640    1.1196 C   0  0  0  0  0  0  0  0  0  0  0  0
   -7.9140    3.1812    0.9594 O   0  0  0  0  0  0  0  0  0  0  0  0
   -7.0832    3.6841   -0.0695 C   0  0  0  0  0  0  0  0  0  0  0  0
   -7.7249    3.5547   -1.4460 C   0  0  0  0  0  0  0  0  0  0  0  0
   -7.4512    0.7776    0.6044 C   0  0  0  0  0  0  0  0  0  0  0  0
   -6.0101    0.7885   -0.3995 S   0  0  0  0  0  0  0  0  0  0  0  0
  -10.0279    2.4952    2.6673 C   0  0  0  0  0  0  0  0  0  0  0  0
  -10.9971    1.9149    3.4541 C   0  0  0  0  0  0  0  0  0  0  0  0
  -10.9494    0.1492    3.3377 S   0  0  0  0  0  0  0  0  0  0  0  0
  -11.9858    2.4507    4.3051 C   0  0  0  0  0  0  0  0  0  0  0  0
  -12.2352    3.7298    4.7246 C   0  0  0  0  0  0  0  0  0  0  0  0
  -11.4538    4.9616    4.4607 C   0  0  0  0  0  0  0  0  0  0  0  0
  -10.5569    5.1335    3.6643 O   0  0  0  0  0  0  0  0  0  0  0  0
  -11.9997    5.9811    5.3818 C   0  0  0  0  0  0  0  0  0  0  0  0
  -11.5839    7.2852    5.5981 C   0  0  0  0  0  0  0  0  0  0  0  0
  -10.2617    7.9510    4.7303 Cl  0  0  0  0  0  0  0  0  0  0  0  0
  -12.2572    8.0569    6.5424 C   0  0  0  0  0  0  0  0  0  0  0  0
  -13.3199    7.5204    7.2474 C   0  0  0  0  0  0  0  0  0  0  0  0
  -13.7505    6.2159    7.0362 C   0  0  0  0  0  0  0  0  0  0  0  0
  -13.0874    5.4463    6.0953 C   0  0  0  0  0  0  0  0  0  0  0  0
  -13.3031    4.0706    5.6490 C   0  0  0  0  0  0  0  0  0  0  0  0
  -14.3734    3.2922    6.0035 C   0  0  0  0  0  0  0  0  0  0  0  0
  -14.6686    2.0050    5.5029 C   0  0  0  0  0  0  0  0  0  0  0  0
  -15.0091    0.9710    5.1370 N   0  0  0  0  0  0  0  0  0  0  0  0
  -15.3837    3.6937    6.9037 C   0  0  0  0  0  0  0  0  0  0  0  0
  -16.2374    3.9476    7.6280 N   0  0  0  0  0  0  0  0  0  0  0  0
   12.9523   -0.3992    0.1573 H   0  0  0  0  0  0  0  0  0  0  0  0
   10.8083    2.5411   -1.3141 H   0  0  0  0  0  0  0  0  0  0  0  0
    6.4932    3.2847   -1.8099 H   0  0  0  0  0  0  0  0  0  0  0  0
    7.2168    2.1773   -0.6252 H   0  0  0  0  0  0  0  0  0  0  0  0
    7.6433    4.6279   -0.1010 H   0  0  0  0  0  0  0  0  0  0  0  0
    8.5284    4.7637   -1.6234 H   0  0  0  0  0  0  0  0  0  0  0  0
    9.1426    3.7313   -0.3253 H   0  0  0  0  0  0  0  0  0  0  0  0
    8.2536   -4.7562   -0.8646 H   0  0  0  0  0  0  0  0  0  0  0  0
   10.1617   -6.3147   -0.8309 H   0  0  0  0  0  0  0  0  0  0  0  0
   12.1450   -5.8733   -2.2197 H   0  0  0  0  0  0  0  0  0  0  0  0
   13.4565   -4.1461   -3.4447 H   0  0  0  0  0  0  0  0  0  0  0  0
   12.6287   -2.7727   -4.1877 H   0  0  0  0  0  0  0  0  0  0  0  0
   11.5157   -4.3188   -5.8022 H   0  0  0  0  0  0  0  0  0  0  0  0
   12.3386   -5.6904   -5.0601 H   0  0  0  0  0  0  0  0  0  0  0  0
   13.2746   -4.4517   -5.9032 H   0  0  0  0  0  0  0  0  0  0  0  0
   10.2905   -2.3524   -3.7507 H   0  0  0  0  0  0  0  0  0  0  0  0
   -7.1681   -2.5784   -2.4855 H   0  0  0  0  0  0  0  0  0  0  0  0
   -9.0074   -4.2200   -2.5374 H   0  0  0  0  0  0  0  0  0  0  0  0
   -8.6977   -6.4542   -1.5536 H   0  0  0  0  0  0  0  0  0  0  0  0
   -5.4424   -7.7362   -0.3669 H   0  0  0  0  0  0  0  0  0  0  0  0
   -7.0773   -8.1908   -0.8688 H   0  0  0  0  0  0  0  0  0  0  0  0
   -8.0042   -7.1455    1.1977 H   0  0  0  0  0  0  0  0  0  0  0  0
   -6.3780   -6.6819    1.6978 H   0  0  0  0  0  0  0  0  0  0  0  0
   -6.8161   -8.3901    1.5972 H   0  0  0  0  0  0  0  0  0  0  0  0
   -4.6987   -5.4288   -0.4818 H   0  0  0  0  0  0  0  0  0  0  0  0
    3.5309    0.2642   -2.7254 H   0  0  0  0  0  0  0  0  0  0  0  0
    1.9735   -0.2491   -3.4244 H   0  0  0  0  0  0  0  0  0  0  0  0
    3.4105    0.5823   -5.2061 H   0  0  0  0  0  0  0  0  0  0  0  0
    4.6921   -0.5443   -4.7693 H   0  0  0  0  0  0  0  0  0  0  0  0
    3.1644   -1.1564   -5.4136 H   0  0  0  0  0  0  0  0  0  0  0  0
   -0.3223   -0.5762   -0.7223 H   0  0  0  0  0  0  0  0  0  0  0  0
    1.2776   -0.4798   -1.4606 H   0  0  0  0  0  0  0  0  0  0  0  0
   -0.0449    1.4986   -2.1056 H   0  0  0  0  0  0  0  0  0  0  0  0
   -1.3956    0.4903   -2.6197 H   0  0  0  0  0  0  0  0  0  0  0  0
    0.0899    0.5008   -3.5587 H   0  0  0  0  0  0  0  0  0  0  0  0
   -7.0311   -2.5701    0.4910 H   0  0  0  0  0  0  0  0  0  0  0  0
   -9.2937   -2.8891    0.0759 H   0  0  0  0  0  0  0  0  0  0  0  0
   -9.9988   -3.8920    1.3683 H   0  0  0  0  0  0  0  0  0  0  0  0
  -11.7844   -2.9813   -0.0985 H   0  0  0  0  0  0  0  0  0  0  0  0
  -11.2307   -1.3310    0.2138 H   0  0  0  0  0  0  0  0  0  0  0  0
  -11.9241   -2.2899    1.5260 H   0  0  0  0  0  0  0  0  0  0  0  0
   -6.9629    4.7394    0.1896 H   0  0  0  0  0  0  0  0  0  0  0  0
   -6.0969    3.2081   -0.0519 H   0  0  0  0  0  0  0  0  0  0  0  0
   -7.8545    2.5099   -1.7173 H   0  0  0  0  0  0  0  0  0  0  0  0
   -8.6985    4.0385   -1.4461 H   0  0  0  0  0  0  0  0  0  0  0  0
   -7.0914    4.0310   -2.1882 H   0  0  0  0  0  0  0  0  0  0  0  0
   -9.8869    3.5571    2.5867 H   0  0  0  0  0  0  0  0  0  0  0  0
  -12.6318    1.6863    4.7220 H   0  0  0  0  0  0  0  0  0  0  0  0
  -11.9401    9.0725    6.7179 H   0  0  0  0  0  0  0  0  0  0  0  0
  -13.8277    8.1296    7.9794 H   0  0  0  0  0  0  0  0  0  0  0  0
  -14.5785    5.8261    7.6040 H   0  0  0  0  0  0  0  0  0  0  0  0
  1  2  2  0  0  0  0
  2  3  1  0  0  0  0
  3  4  2  0  0  0  0
  3  5  1  0  0  0  0
  5  6  2  0  0  0  0
  6  7  1  0  0  0  0
  6  8  1  0  0  0  0
  8  9  1  0  0  0  0
  8 10  2  0  0  0  0
 10 11  1  0  0  0  0
 10 12  1  0  0  0  0
 12 13  1  0  0  0  0
 12 14  2  0  0  0  0
 14 15  1  0  0  0  0
 15 16  2  0  0  0  0
 16 17  1  0  0  0  0
 17 18  3  0  0  0  0
 16 19  1  0  0  0  0
 19 20  3  0  0  0  0
  1 21  1  0  0  0  0
 21 22  2  0  0  0  0
 22 23  1  0  0  0  0
 23 24  1  0  0  0  0
 24 25  1  0  0  0  0
 25 26  1  0  0  0  0
 23 27  2  0  0  0  0
 27 28  1  0  0  0  0
 27 29  1  0  0  0  0
 29 30  2  0  0  0  0
 30 31  1  0  0  0  0
 31 32  2  0  0  0  0
 32 33  1  0  0  0  0
 33 34  2  0  0  0  0
 34 35  1  0  0  0  0
 35 36  1  0  0  0  0
 36 37  1  0  0  0  0
 35 38  2  0  0  0  0
 30 39  1  0  0  0  0
 39 40  1  0  0  0  0
 40 41  1  0  0  0  0
 41 42  1  0  0  0  0
 42 43  1  0  0  0  0
 43 44  1  0  0  0  0
 44 45  2  0  0  0  0
 45 46  1  0  0  0  0
 46 47  1  0  0  0  0
 44 48  1  0  0  0  0
 48 49  1  0  0  0  0
 49 50  1  0  0  0  0
 50 51  1  0  0  0  0
 51 52  1  0  0  0  0
 52 53  1  0  0  0  0
 53 54  2  0  0  0  0
 54 55  1  0  0  0  0
 55 56  2  0  0  0  0
 56 57  1  0  0  0  0
 57 58  1  0  0  0  0
 58 59  1  0  0  0  0
 57 60  2  0  0  0  0
 52 61  2  0  0  0  0
 61 62  1  0  0  0  0
 62 63  1  0  0  0  0
 63 64  1  0  0  0  0
 64 65  1  0  0  0  0
 65 66  1  0  0  0  0
 66 67  1  0  0  0  0
 67 68  1  0  0  0  0
 68 69  1  0  0  0  0
 69 70  1  0  0  0  0
 70 71  1  0  0  0  0
 68 72  1  0  0  0  0
 72 73  1  0  0  0  0
 65 74  1  0  0  0  0
 74 75  1  0  0  0  0
 61 76  1  0  0  0  0
 76 77  2  0  0  0  0
 77 78  1  0  0  0  0
 78 79  2  0  0  0  0
 79 80  1  0  0  0  0
 80 81  1  0  0  0  0
 81 82  1  0  0  0  0
 79 83  1  0  0  0  0
 83 84  2  0  0  0  0
 84 85  1  0  0  0  0
 85 86  1  0  0  0  0
 86 87  1  0  0  0  0
 87 88  1  0  0  0  0
 85 89  2  0  0  0  0
 89 90  1  0  0  0  0
 84 91  1  0  0  0  0
 91 92  2  0  0  0  0
 92 93  1  0  0  0  0
 92 94  1  0  0  0  0
 94 95  2  0  0  0  0
 95 96  1  0  0  0  0
 96 97  2  0  0  0  0
 96 98  1  0  0  0  0
 98 99  2  0  0  0  0
 99100  1  0  0  0  0
 99101  1  0  0  0  0
101102  2  0  0  0  0
102103  1  0  0  0  0
103104  2  0  0  0  0
104105  1  0  0  0  0
105106  2  0  0  0  0
106107  1  0  0  0  0
107108  3  0  0  0  0
106109  1  0  0  0  0
109110  3  0  0  0  0
 15  2  1  0  0  0  0
 28 21  1  0  0  0  0
 71 29  1  0  0  0  0
 90 76  1  0  0  0  0
105 95  1  0  0  0  0
 14  5  1  0  0  0  0
 38 31  1  0  0  0  0
 70 39  2  0  0  0  0
 89 78  1  0  0  0  0
104 98  1  0  0  0  0
 69 41  2  0  0  0  0
 93 83  1  0  0  0  0
 67 42  2  0  0  0  0
 47 43  2  0  0  0  0
 66 48  2  0  0  0  0
 64 49  2  0  0  0  0
 63 51  2  0  0  0  0
 60 53  1  0  0  0  0
  1111  1  0  0  0  0
 22112  1  0  0  0  0
 25113  1  0  0  0  0
 25114  1  0  0  0  0
 26115  1  0  0  0  0
 26116  1  0  0  0  0
 26117  1  0  0  0  0
 32118  1  0  0  0  0
 33119  1  0  0  0  0
 34120  1  0  0  0  0
 36121  1  0  0  0  0
 36122  1  0  0  0  0
 37123  1  0  0  0  0
 37124  1  0  0  0  0
 37125  1  0  0  0  0
 38126  1  0  0  0  0
 54127  1  0  0  0  0
 55128  1  0  0  0  0
 56129  1  0  0  0  0
 58130  1  0  0  0  0
 58131  1  0  0  0  0
 59132  1  0  0  0  0
 59133  1  0  0  0  0
 59134  1  0  0  0  0
 60135  1  0  0  0  0
 72136  1  0  0  0  0
 72137  1  0  0  0  0
 73138  1  0  0  0  0
 73139  1  0  0  0  0
 73140  1  0  0  0  0
 74141  1  0  0  0  0
 74142  1  0  0  0  0
 75143  1  0  0  0  0
 75144  1  0  0  0  0
 75145  1  0  0  0  0
 77146  1  0  0  0  0
 81147  1  0  0  0  0
 81148  1  0  0  0  0
 82149  1  0  0  0  0
 82150  1  0  0  0  0
 82151  1  0  0  0  0
 87152  1  0  0  0  0
 87153  1  0  0  0  0
 88154  1  0  0  0  0
 88155  1  0  0  0  0
 88156  1  0  0  0  0
 91157  1  0  0  0  0
 94158  1  0  0  0  0
101159  1  0  0  0  0
102160  1  0  0  0  0
103161  1  0  0  0  0
M  END
