163

C        -12.89240       -0.29260       -6.15390
C        -13.87390       -0.37640       -7.10590
C        -15.23280        0.11150       -6.78360
O        -15.55970        0.77470       -5.82810
C        -16.10770       -0.44270       -7.84940
C        -17.48770       -0.42460       -7.94390
Cl       -18.44350        0.44750       -6.83150
C        -18.09140       -1.15250       -8.98050
Cl       -19.79270       -1.13510       -9.15350
C        -17.31360       -1.92160       -9.84400
Cl       -18.07920       -2.87800      -11.03840
C        -15.91340       -1.93490       -9.74210
Cl       -15.02430       -3.02570      -10.72430
C        -15.31120       -1.13970       -8.77960
C        -13.90510       -0.88930       -8.45440
C        -12.88250       -0.80140       -9.36500
C        -11.58650       -0.35300       -9.03520
N        -10.51400        0.00530       -8.83740
C        -13.01010       -0.94730      -10.76210
N        -13.02290       -0.98090      -11.90930
C        -11.66730       -0.96670       -6.07090
S        -10.52160       -0.43770       -4.83360
C         -9.41170       -1.64910       -5.32060
C         -8.14780       -2.14880       -5.03310
C         -7.92250       -3.22760       -5.92020
N         -9.00490       -3.39050       -6.73930
C         -9.15990       -4.42220       -7.73240
C         -9.56840       -5.75080       -7.09950
C         -9.93010       -2.44420       -6.38190
C        -11.19470       -2.05950       -6.79420
C         -6.68390       -3.84780       -5.74760
C         -5.96460       -3.26410       -4.72480
S         -6.80590       -1.91020       -3.97710
C         -4.67510       -3.62080       -4.24160
C         -3.97440       -4.80620       -4.39320
C         -4.48240       -6.04600       -4.98530
C         -5.72200       -6.56230       -4.61370
C         -6.15940       -7.75580       -5.15410
C         -5.36770       -8.44820       -6.05560
C         -4.12340       -7.95550       -6.42510
C         -3.22250       -8.72950       -7.34250
C         -2.22750       -9.55540       -6.52450
C         -3.69130       -6.75370       -5.88230
C         -2.69290       -4.71570       -3.81600
S         -1.39330       -5.87250       -3.64630
C         -0.49490       -4.69740       -2.74660
C          0.70350       -4.60430       -2.01990
C          1.66170       -5.57690       -1.65570
C          2.65990       -5.24100       -0.67670
N          3.42980       -6.27230       -0.36800
S          2.95150       -7.55100       -1.23740
N          1.73680       -6.84150       -2.03920
C          2.74100       -3.91130       -0.20720
C          3.61950       -3.27430        0.68860
S          4.91980       -3.66660        1.76420
C          5.01640       -1.98370        2.22670
C          5.83650       -1.28980        3.13870
C          6.90070       -1.93700        3.91080
C          6.62430       -3.08000        4.65350
C          7.63320       -3.68980        5.37460
C          8.91510       -3.16910        5.36020
C          9.21230       -2.03970        4.60790
C         10.58720       -1.43750        4.62700
C         10.65300       -0.31260        5.66250
C          8.19820       -1.43700        3.87970
C          5.51760        0.05550        3.18160
S          4.22560        0.47110        2.05410
C          4.09580       -1.17700        1.55720
C          3.29340       -1.91580        0.68220
N          2.24200       -1.68190       -0.16780
C          1.86540       -2.90570       -0.69820
C          0.75670       -3.28460       -1.49330
N         -0.39690       -2.61530       -1.85550
C         -1.15550       -3.47290       -2.60780
C         -2.42000       -3.48750       -3.20890
S         -3.75840       -2.40720       -3.36310
C         -0.98850       -1.42330       -1.28900
C         -1.13440       -0.30380       -2.31970
C          2.11000       -0.37560       -0.77610
C          3.35540       -0.01330       -1.58570
C          5.97410        1.08360        4.05270
S          6.90080        0.71910        5.50260
C          6.87380        2.38900        5.94580
C          7.30380        3.25700        6.94440
C          6.84760        4.55270        6.57700
N          6.15400        4.47840        5.39550
C          5.61080        5.59260        4.66220
C          6.64060        6.18750        3.70400
C          6.17600        3.17150        4.99720
C          5.66970        2.42500        3.93160
C          7.17750        5.54560        7.48550
C          7.88620        5.04010        8.56730
S          8.16070        3.28890        8.42980
C          8.40740        5.64810        9.72030
C          8.29910        6.92630       10.20770
C          7.50080        8.05810        9.68620
O          6.90580        8.15590        8.62860
C          7.55530        9.09690       10.72900
C          6.92670       10.32480       10.75810
C          7.10200       11.15670       11.85880
C          6.42270       12.48830       11.90470
C          7.91360       10.73530       12.92290
C          8.10390       11.61560       14.11710
C          8.54950        9.49730       12.88140
C          8.37620        8.67140       11.78390
C          8.90520        7.35060       11.45940
C          9.85000        6.68390       12.19720
C         10.39000        7.16970       13.40630
N         10.87010        7.49830       14.39660
C         10.45920        5.45540       11.86570
N         11.02680        4.47470       11.67410
H        -13.14460        0.33680       -5.30620
H         -9.91520       -4.09140       -8.44860
H         -8.20890       -4.53790       -8.26030
H        -10.51220       -5.64440       -6.56970
H         -8.80840       -6.08110       -6.39500
H         -9.68300       -6.50870       -7.86920
H        -11.77980       -2.55890       -7.54460
H         -6.31150       -4.66730       -6.33270
H         -6.32930       -6.03080       -3.89600
H         -7.12020       -8.15590       -4.86370
H         -5.71710       -9.38280       -6.47000
H         -2.67260       -8.04200       -7.98850
H         -3.81430       -9.39480       -7.97410
H         -1.55860      -10.10500       -7.18230
H         -2.75600      -10.26610       -5.89310
H         -1.63320       -8.90700       -5.88480
H         -2.72850       -6.35580       -6.16820
H          5.62030       -3.47650        4.67420
H          7.41700       -4.57460        5.95480
H          9.69590       -3.64670        5.93430
H         11.32540       -2.20200        4.87620
H         10.83050       -1.03480        3.64140
H         11.64790        0.12530        5.68740
H         10.41640       -0.69540        6.65250
H          9.93450        0.46750        5.42160
H          8.41800       -0.56930        3.27320
H         -1.98760       -1.68830       -0.92360
H         -0.39610       -1.10870       -0.42940
H         -1.47410        0.60370       -1.82870
H         -1.86700       -0.58050       -3.07260
H         -0.19540       -0.09810       -2.82890
H          1.25490       -0.37320       -1.44190
H          1.95750        0.36070        0.01950
H          3.53610       -0.76380       -2.35250
H          3.20990        0.95050       -2.06600
H          4.23170        0.04850       -0.94660
H          5.29010        6.34880        5.38310
H          4.73610        5.24260        4.10730
H          6.97140        5.43670        2.98990
H          6.20500        7.02080        3.16010
H          7.50500        6.54560        4.25770
H          5.10680        2.81980        3.10480
H          6.92740        6.58680        7.40320
H          8.96510        4.95580       10.34030
H          6.30470       10.62630        9.92830
H          5.85700       12.66310       10.99360
H          7.15280       13.28840       12.02090
H          5.74040       12.54030       12.75290
H          7.14600       11.83440       14.58800
H          8.55130       12.56520       13.82500
H          8.75030       11.13850       14.84840
H          9.16570        9.19750       13.71350
