
  xtb     02112205413D
 energy: -324.508086774524 gnorm: 0.000594028862 xtb: 6.4.1 (unknown)
165183  0     0  0            999 V2000
    4.3552   12.5442   -5.0646 C   0  0  0  0  0  0  0  0  0  0  0  0
    4.6638   13.1055   -6.2823 C   0  0  0  0  0  0  0  0  0  0  0  0
    4.0344   12.7821   -7.5602 C   0  0  0  0  0  0  0  0  0  0  0  0
    3.2115   11.9171   -7.7884 O   0  0  0  0  0  0  0  0  0  0  0  0
    4.5787   13.7555   -8.5367 C   0  0  0  0  0  0  0  0  0  0  0  0
    4.2326   13.9332   -9.8638 C   0  0  0  0  0  0  0  0  0  0  0  0
    3.1584   12.8689  -10.6547 Cl  0  0  0  0  0  0  0  0  0  0  0  0
    4.7836   15.0245  -10.5511 C   0  0  0  0  0  0  0  0  0  0  0  0
    4.4176   15.2640  -12.2039 Cl  0  0  0  0  0  0  0  0  0  0  0  0
    5.5909   15.9383   -9.8773 C   0  0  0  0  0  0  0  0  0  0  0  0
    6.1661   17.3185  -10.7085 Cl  0  0  0  0  0  0  0  0  0  0  0  0
    5.9298   15.7565   -8.5260 C   0  0  0  0  0  0  0  0  0  0  0  0
    6.7702   17.0187   -7.7241 Cl  0  0  0  0  0  0  0  0  0  0  0  0
    5.4813   14.6139   -7.8764 C   0  0  0  0  0  0  0  0  0  0  0  0
    5.6820   14.1087   -6.5184 C   0  0  0  0  0  0  0  0  0  0  0  0
    6.7600   14.3648   -5.7083 C   0  0  0  0  0  0  0  0  0  0  0  0
    7.9497   15.0178   -6.0963 C   0  0  0  0  0  0  0  0  0  0  0  0
    8.9947   15.4283   -6.3352 N   0  0  0  0  0  0  0  0  0  0  0  0
    6.9232   13.8555   -4.4020 C   0  0  0  0  0  0  0  0  0  0  0  0
    7.1314   13.5017   -3.3287 N   0  0  0  0  0  0  0  0  0  0  0  0
    3.4698   11.5186   -4.7265 C   0  0  0  0  0  0  0  0  0  0  0  0
    2.4697   10.5827   -5.8433 S   0  0  0  0  0  0  0  0  0  0  0  0
    1.8949    9.6328   -4.5308 C   0  0  0  0  0  0  0  0  0  0  0  0
    1.0643    8.5514   -4.2506 C   0  0  0  0  0  0  0  0  0  0  0  0
    1.1370    8.3208   -2.8572 C   0  0  0  0  0  0  0  0  0  0  0  0
    1.9605    9.2437   -2.2732 N   0  0  0  0  0  0  0  0  0  0  0  0
    2.3772    9.2646   -0.8948 C   0  0  0  0  0  0  0  0  0  0  0  0
    3.5980    8.3764   -0.6636 C   0  0  0  0  0  0  0  0  0  0  0  0
    2.4506   10.0365   -3.2816 C   0  0  0  0  0  0  0  0  0  0  0  0
    3.3265   11.0937   -3.3972 C   0  0  0  0  0  0  0  0  0  0  0  0
    0.3745    7.2330   -2.4338 C   0  0  0  0  0  0  0  0  0  0  0  0
   -0.2933    6.6368   -3.4866 C   0  0  0  0  0  0  0  0  0  0  0  0
    0.0170    7.4186   -5.0301 S   0  0  0  0  0  0  0  0  0  0  0  0
   -1.0683    5.4477   -3.4009 C   0  0  0  0  0  0  0  0  0  0  0  0
   -1.9312    4.8774   -4.3185 C   0  0  0  0  0  0  0  0  0  0  0  0
   -2.3971    5.5097   -5.5549 C   0  0  0  0  0  0  0  0  0  0  0  0
   -2.9504    6.7871   -5.5308 C   0  0  0  0  0  0  0  0  0  0  0  0
   -3.4177    7.3543   -6.7003 C   0  0  0  0  0  0  0  0  0  0  0  0
   -3.3385    6.6578   -7.8936 C   0  0  0  0  0  0  0  0  0  0  0  0
   -2.8023    5.3770   -7.9320 C   0  0  0  0  0  0  0  0  0  0  0  0
   -2.6763    4.6342   -9.2302 C   0  0  0  0  0  0  0  0  0  0  0  0
   -1.3252    4.9351   -9.8822 C   0  0  0  0  0  0  0  0  0  0  0  0
   -2.3376    4.8108   -6.7545 C   0  0  0  0  0  0  0  0  0  0  0  0
   -2.3605    3.6037   -3.8973 C   0  0  0  0  0  0  0  0  0  0  0  0
   -3.4049    2.4135   -4.6342 S   0  0  0  0  0  0  0  0  0  0  0  0
   -3.1356    1.3740   -3.2765 C   0  0  0  0  0  0  0  0  0  0  0  0
   -3.4212    0.0589   -2.8752 C   0  0  0  0  0  0  0  0  0  0  0  0
   -4.0464   -1.0134   -3.5506 C   0  0  0  0  0  0  0  0  0  0  0  0
   -3.9672   -2.3333   -2.9875 C   0  0  0  0  0  0  0  0  0  0  0  0
   -4.5188   -3.2485   -3.7687 N   0  0  0  0  0  0  0  0  0  0  0  0
   -5.0960   -2.5161   -5.0915 S   0  0  0  0  0  0  0  0  0  0  0  0
   -4.6592   -1.0016   -4.7237 N   0  0  0  0  0  0  0  0  0  0  0  0
   -3.3826   -2.5007   -1.7127 C   0  0  0  0  0  0  0  0  0  0  0  0
   -3.1995   -3.6320   -0.8981 C   0  0  0  0  0  0  0  0  0  0  0  0
   -3.4192   -5.3480   -0.9589 S   0  0  0  0  0  0  0  0  0  0  0  0
   -2.7808   -5.4659    0.6651 C   0  0  0  0  0  0  0  0  0  0  0  0
   -2.5053   -6.5566    1.5069 C   0  0  0  0  0  0  0  0  0  0  0  0
   -2.6946   -7.9480    1.0991 C   0  0  0  0  0  0  0  0  0  0  0  0
   -1.6868   -8.8907    1.2939 C   0  0  0  0  0  0  0  0  0  0  0  0
   -1.8695  -10.1894    0.8630 C   0  0  0  0  0  0  0  0  0  0  0  0
   -3.0453  -10.5570    0.2304 C   0  0  0  0  0  0  0  0  0  0  0  0
   -4.0547   -9.6275    0.0177 C   0  0  0  0  0  0  0  0  0  0  0  0
   -5.3063   -9.9965   -0.7240 C   0  0  0  0  0  0  0  0  0  0  0  0
   -5.1774   -9.6127   -2.1997 C   0  0  0  0  0  0  0  0  0  0  0  0
   -3.8668   -8.3245    0.4539 C   0  0  0  0  0  0  0  0  0  0  0  0
   -1.9466   -6.1400    2.7092 C   0  0  0  0  0  0  0  0  0  0  0  0
   -1.7540   -4.3955    2.7877 S   0  0  0  0  0  0  0  0  0  0  0  0
   -2.4331   -4.2265    1.2115 C   0  0  0  0  0  0  0  0  0  0  0  0
   -2.6652   -3.1815    0.3126 C   0  0  0  0  0  0  0  0  0  0  0  0
   -2.4937   -1.8201    0.2788 N   0  0  0  0  0  0  0  0  0  0  0  0
   -2.8959   -1.3871   -0.9740 C   0  0  0  0  0  0  0  0  0  0  0  0
   -2.7877   -0.1297   -1.6163 C   0  0  0  0  0  0  0  0  0  0  0  0
   -2.1045    1.0268   -1.2870 N   0  0  0  0  0  0  0  0  0  0  0  0
   -2.3095    1.9317   -2.2950 C   0  0  0  0  0  0  0  0  0  0  0  0
   -1.8578    3.2066   -2.6565 C   0  0  0  0  0  0  0  0  0  0  0  0
   -0.8246    4.4206   -1.9893 S   0  0  0  0  0  0  0  0  0  0  0  0
   -1.0332    1.2276   -0.3368 C   0  0  0  0  0  0  0  0  0  0  0  0
   -1.3999    2.2493    0.7396 C   0  0  0  0  0  0  0  0  0  0  0  0
   -2.5102   -1.0818    1.5231 C   0  0  0  0  0  0  0  0  0  0  0  0
   -3.8266   -1.2882    2.2725 C   0  0  0  0  0  0  0  0  0  0  0  0
   -1.6807   -6.9355    3.8572 C   0  0  0  0  0  0  0  0  0  0  0  0
   -0.7507   -6.7297    4.8732 C   0  0  0  0  0  0  0  0  0  0  0  0
    0.3735   -5.8010    5.0167 C   0  0  0  0  0  0  0  0  0  0  0  0
    1.0256   -5.7652    6.0379 O   0  0  0  0  0  0  0  0  0  0  0  0
    0.6336   -5.0702    3.9319 O   0  0  0  0  0  0  0  0  0  0  0  0
    1.7149   -4.1421    4.0223 C   0  0  0  0  0  0  0  0  0  0  0  0
    1.2883   -2.8638    4.7293 C   0  0  0  0  0  0  0  0  0  0  0  0
   -0.8899   -7.6973    5.8845 C   0  0  0  0  0  0  0  0  0  0  0  0
   -1.8890   -8.6339    5.6567 C   0  0  0  0  0  0  0  0  0  0  0  0
   -2.7145   -8.3287    4.1790 S   0  0  0  0  0  0  0  0  0  0  0  0
   -1.9870   -9.6112    6.6569 C   0  0  0  0  0  0  0  0  0  0  0  0
   -2.9934  -10.6766    6.5119 C   0  0  0  0  0  0  0  0  0  0  0  0
   -3.8040  -10.6584    5.6146 O   0  0  0  0  0  0  0  0  0  0  0  0
   -2.9027  -11.6310    7.4356 O   0  0  0  0  0  0  0  0  0  0  0  0
   -3.8603  -12.6911    7.3681 C   0  0  0  0  0  0  0  0  0  0  0  0
   -5.1608  -12.3034    8.0563 C   0  0  0  0  0  0  0  0  0  0  0  0
   -1.0255   -9.4162    7.6491 C   0  0  0  0  0  0  0  0  0  0  0  0
   -0.0388   -7.9867    7.3363 S   0  0  0  0  0  0  0  0  0  0  0  0
   -0.8635  -10.1629    8.8372 C   0  0  0  0  0  0  0  0  0  0  0  0
    0.2260  -10.1996    9.6503 C   0  0  0  0  0  0  0  0  0  0  0  0
    0.1044  -10.6708   11.0524 C   0  0  0  0  0  0  0  0  0  0  0  0
   -0.8178  -11.2799   11.5363 O   0  0  0  0  0  0  0  0  0  0  0  0
    1.3224  -10.1590   11.7296 C   0  0  0  0  0  0  0  0  0  0  0  0
    1.6327  -10.1575   13.0790 C   0  0  0  0  0  0  0  0  0  0  0  0
    0.6335  -10.9374   14.2205 Cl  0  0  0  0  0  0  0  0  0  0  0  0
    2.7931   -9.4868   13.4926 C   0  0  0  0  0  0  0  0  0  0  0  0
    3.2260   -9.4782   15.1464 Cl  0  0  0  0  0  0  0  0  0  0  0  0
    3.5754   -8.7967   12.5668 C   0  0  0  0  0  0  0  0  0  0  0  0
    4.9347   -7.9143   13.1091 Cl  0  0  0  0  0  0  0  0  0  0  0  0
    3.2595   -8.8040   11.1987 C   0  0  0  0  0  0  0  0  0  0  0  0
    4.1677   -7.8206   10.1279 Cl  0  0  0  0  0  0  0  0  0  0  0  0
    2.1584   -9.5361   10.7790 C   0  0  0  0  0  0  0  0  0  0  0  0
    1.6020   -9.7815    9.4505 C   0  0  0  0  0  0  0  0  0  0  0  0
    2.3075   -9.9674    8.2939 C   0  0  0  0  0  0  0  0  0  0  0  0
    3.7118   -9.9164    8.1643 C   0  0  0  0  0  0  0  0  0  0  0  0
    4.8427   -9.9686    7.9790 N   0  0  0  0  0  0  0  0  0  0  0  0
    1.7059  -10.4317    7.1015 C   0  0  0  0  0  0  0  0  0  0  0  0
    1.2750  -10.8406    6.1199 N   0  0  0  0  0  0  0  0  0  0  0  0
    4.8686   12.9586   -4.2053 H   0  0  0  0  0  0  0  0  0  0  0  0
    2.6073   10.2982   -0.6244 H   0  0  0  0  0  0  0  0  0  0  0  0
    1.5401    8.9221   -0.2805 H   0  0  0  0  0  0  0  0  0  0  0  0
    3.8917    8.4111    0.3816 H   0  0  0  0  0  0  0  0  0  0  0  0
    3.3712    7.3468   -0.9304 H   0  0  0  0  0  0  0  0  0  0  0  0
    4.4320    8.7165   -1.2727 H   0  0  0  0  0  0  0  0  0  0  0  0
    3.8707   11.5530   -2.5916 H   0  0  0  0  0  0  0  0  0  0  0  0
    0.2976    6.8772   -1.4220 H   0  0  0  0  0  0  0  0  0  0  0  0
   -3.0242    7.3216   -4.5950 H   0  0  0  0  0  0  0  0  0  0  0  0
   -3.8489    8.3442   -6.6810 H   0  0  0  0  0  0  0  0  0  0  0  0
   -3.7035    7.1096   -8.8046 H   0  0  0  0  0  0  0  0  0  0  0  0
   -3.4783    4.9331   -9.9078 H   0  0  0  0  0  0  0  0  0  0  0  0
   -2.7608    3.5605   -9.0517 H   0  0  0  0  0  0  0  0  0  0  0  0
   -0.5126    4.6332   -9.2252 H   0  0  0  0  0  0  0  0  0  0  0  0
   -1.2275    6.0007  -10.0766 H   0  0  0  0  0  0  0  0  0  0  0  0
   -1.2292    4.3992  -10.8235 H   0  0  0  0  0  0  0  0  0  0  0  0
   -1.9130    3.8173   -6.7697 H   0  0  0  0  0  0  0  0  0  0  0  0
   -0.7618   -8.5972    1.7685 H   0  0  0  0  0  0  0  0  0  0  0  0
   -1.0884  -10.9188    1.0165 H   0  0  0  0  0  0  0  0  0  0  0  0
   -3.1789  -11.5755   -0.1040 H   0  0  0  0  0  0  0  0  0  0  0  0
   -5.4843  -11.0701   -0.6423 H   0  0  0  0  0  0  0  0  0  0  0  0
   -6.1606   -9.4735   -0.2900 H   0  0  0  0  0  0  0  0  0  0  0  0
   -6.0836   -9.8739   -2.7410 H   0  0  0  0  0  0  0  0  0  0  0  0
   -4.3386  -10.1356   -2.6539 H   0  0  0  0  0  0  0  0  0  0  0  0
   -5.0075   -8.5431   -2.2998 H   0  0  0  0  0  0  0  0  0  0  0  0
   -4.6495   -7.5948    0.3056 H   0  0  0  0  0  0  0  0  0  0  0  0
   -0.1653    1.6064   -0.8892 H   0  0  0  0  0  0  0  0  0  0  0  0
   -0.7555    0.2652    0.0938 H   0  0  0  0  0  0  0  0  0  0  0  0
   -0.6102    2.2963    1.4841 H   0  0  0  0  0  0  0  0  0  0  0  0
   -1.5129    3.2341    0.2950 H   0  0  0  0  0  0  0  0  0  0  0  0
   -2.3354    1.9980    1.2346 H   0  0  0  0  0  0  0  0  0  0  0  0
   -1.6746   -1.4291    2.1390 H   0  0  0  0  0  0  0  0  0  0  0  0
   -2.3946   -0.0244    1.3161 H   0  0  0  0  0  0  0  0  0  0  0  0
   -3.8272   -0.6890    3.1790 H   0  0  0  0  0  0  0  0  0  0  0  0
   -3.9588   -2.3305    2.5481 H   0  0  0  0  0  0  0  0  0  0  0  0
   -4.6648   -0.9826    1.6498 H   0  0  0  0  0  0  0  0  0  0  0  0
    2.0018   -3.9467    2.9871 H   0  0  0  0  0  0  0  0  0  0  0  0
    2.5441   -4.6142    4.5588 H   0  0  0  0  0  0  0  0  0  0  0  0
    2.1075   -2.1508    4.7193 H   0  0  0  0  0  0  0  0  0  0  0  0
    0.4259   -2.4288    4.2291 H   0  0  0  0  0  0  0  0  0  0  0  0
    1.0245   -3.0820    5.7610 H   0  0  0  0  0  0  0  0  0  0  0  0
   -3.3814  -13.5328    7.8717 H   0  0  0  0  0  0  0  0  0  0  0  0
   -4.0433  -12.9353    6.3169 H   0  0  0  0  0  0  0  0  0  0  0  0
   -5.6209  -11.4656    7.5376 H   0  0  0  0  0  0  0  0  0  0  0  0
   -5.8458  -13.1459    8.0395 H   0  0  0  0  0  0  0  0  0  0  0  0
   -4.9707  -12.0212    9.0892 H   0  0  0  0  0  0  0  0  0  0  0  0
   -1.7310  -10.7141    9.1822 H   0  0  0  0  0  0  0  0  0  0  0  0
  1  2  2  0  0  0  0
  2  3  1  0  0  0  0
  3  4  2  0  0  0  0
  3  5  1  0  0  0  0
  5  6  2  0  0  0  0
  6  7  1  0  0  0  0
  6  8  1  0  0  0  0
  8  9  1  0  0  0  0
  8 10  2  0  0  0  0
 10 11  1  0  0  0  0
 10 12  1  0  0  0  0
 12 13  1  0  0  0  0
 12 14  2  0  0  0  0
 14 15  1  0  0  0  0
 15 16  2  0  0  0  0
 16 17  1  0  0  0  0
 17 18  3  0  0  0  0
 16 19  1  0  0  0  0
 19 20  3  0  0  0  0
  1 21  1  0  0  0  0
 21 22  1  0  0  0  0
 22 23  1  0  0  0  0
 23 24  1  0  0  0  0
 24 25  2  0  0  0  0
 25 26  1  0  0  0  0
 26 27  1  0  0  0  0
 27 28  1  0  0  0  0
 26 29  1  0  0  0  0
 29 30  1  0  0  0  0
 25 31  1  0  0  0  0
 31 32  2  0  0  0  0
 32 33  1  0  0  0  0
 32 34  1  0  0  0  0
 34 35  2  0  0  0  0
 35 36  1  0  0  0  0
 36 37  2  0  0  0  0
 37 38  1  0  0  0  0
 38 39  2  0  0  0  0
 39 40  1  0  0  0  0
 40 41  1  0  0  0  0
 41 42  1  0  0  0  0
 40 43  2  0  0  0  0
 35 44  1  0  0  0  0
 44 45  1  0  0  0  0
 45 46  1  0  0  0  0
 46 47  1  0  0  0  0
 47 48  1  0  0  0  0
 48 49  1  0  0  0  0
 49 50  2  0  0  0  0
 50 51  1  0  0  0  0
 51 52  1  0  0  0  0
 49 53  1  0  0  0  0
 53 54  1  0  0  0  0
 54 55  1  0  0  0  0
 55 56  1  0  0  0  0
 56 57  1  0  0  0  0
 57 58  1  0  0  0  0
 58 59  2  0  0  0  0
 59 60  1  0  0  0  0
 60 61  2  0  0  0  0
 61 62  1  0  0  0  0
 62 63  1  0  0  0  0
 63 64  1  0  0  0  0
 62 65  2  0  0  0  0
 57 66  2  0  0  0  0
 66 67  1  0  0  0  0
 67 68  1  0  0  0  0
 68 69  1  0  0  0  0
 69 70  1  0  0  0  0
 70 71  1  0  0  0  0
 71 72  1  0  0  0  0
 72 73  1  0  0  0  0
 73 74  1  0  0  0  0
 74 75  1  0  0  0  0
 75 76  1  0  0  0  0
 73 77  1  0  0  0  0
 77 78  1  0  0  0  0
 70 79  1  0  0  0  0
 79 80  1  0  0  0  0
 66 81  1  0  0  0  0
 81 82  2  0  0  0  0
 82 83  1  0  0  0  0
 83 84  2  0  0  0  0
 83 85  1  0  0  0  0
 85 86  1  0  0  0  0
 86 87  1  0  0  0  0
 82 88  1  0  0  0  0
 88 89  2  0  0  0  0
 89 90  1  0  0  0  0
 89 91  1  0  0  0  0
 91 92  1  0  0  0  0
 92 93  2  0  0  0  0
 92 94  1  0  0  0  0
 94 95  1  0  0  0  0
 95 96  1  0  0  0  0
 91 97  2  0  0  0  0
 97 98  1  0  0  0  0
 97 99  1  0  0  0  0
 99100  2  0  0  0  0
100101  1  0  0  0  0
101102  2  0  0  0  0
101103  1  0  0  0  0
103104  2  0  0  0  0
104105  1  0  0  0  0
104106  1  0  0  0  0
106107  1  0  0  0  0
106108  2  0  0  0  0
108109  1  0  0  0  0
108110  1  0  0  0  0
110111  1  0  0  0  0
110112  2  0  0  0  0
112113  1  0  0  0  0
113114  2  0  0  0  0
114115  1  0  0  0  0
115116  3  0  0  0  0
114117  1  0  0  0  0
117118  3  0  0  0  0
 15  2  1  0  0  0  0
 30 21  2  0  0  0  0
 76 34  1  0  0  0  0
 90 81  1  0  0  0  0
113100  1  0  0  0  0
 14  5  1  0  0  0  0
 29 23  2  0  0  0  0
 43 36  1  0  0  0  0
 75 44  2  0  0  0  0
 98 88  1  0  0  0  0
112103  1  0  0  0  0
 33 24  1  0  0  0  0
 74 46  2  0  0  0  0
 72 47  2  0  0  0  0
 52 48  2  0  0  0  0
 71 53  2  0  0  0  0
 69 54  2  0  0  0  0
 68 56  2  0  0  0  0
 65 58  1  0  0  0  0
  1119  1  0  0  0  0
 27120  1  0  0  0  0
 27121  1  0  0  0  0
 28122  1  0  0  0  0
 28123  1  0  0  0  0
 28124  1  0  0  0  0
 30125  1  0  0  0  0
 31126  1  0  0  0  0
 37127  1  0  0  0  0
 38128  1  0  0  0  0
 39129  1  0  0  0  0
 41130  1  0  0  0  0
 41131  1  0  0  0  0
 42132  1  0  0  0  0
 42133  1  0  0  0  0
 42134  1  0  0  0  0
 43135  1  0  0  0  0
 59136  1  0  0  0  0
 60137  1  0  0  0  0
 61138  1  0  0  0  0
 63139  1  0  0  0  0
 63140  1  0  0  0  0
 64141  1  0  0  0  0
 64142  1  0  0  0  0
 64143  1  0  0  0  0
 65144  1  0  0  0  0
 77145  1  0  0  0  0
 77146  1  0  0  0  0
 78147  1  0  0  0  0
 78148  1  0  0  0  0
 78149  1  0  0  0  0
 79150  1  0  0  0  0
 79151  1  0  0  0  0
 80152  1  0  0  0  0
 80153  1  0  0  0  0
 80154  1  0  0  0  0
 86155  1  0  0  0  0
 86156  1  0  0  0  0
 87157  1  0  0  0  0
 87158  1  0  0  0  0
 87159  1  0  0  0  0
 95160  1  0  0  0  0
 95161  1  0  0  0  0
 96162  1  0  0  0  0
 96163  1  0  0  0  0
 96164  1  0  0  0  0
 99165  1  0  0  0  0
M  END
