
  xtb     02192209593D
 energy: -414.474092429088 gnorm: 0.000234793447 xtb: 6.4.1 (unknown)
239265  0     0  0            999 V2000
    4.9657    9.3654   -2.8983 C   0  0  0  0  0  0  0  0  0  0  0  0
    5.4927   10.6012   -2.6537 C   0  0  0  0  0  0  0  0  0  0  0  0
    4.5680   11.7643   -2.5912 C   0  0  0  0  0  0  0  0  0  0  0  0
    3.4143   11.7951   -2.9540 O   0  0  0  0  0  0  0  0  0  0  0  0
    5.3413   12.8412   -1.9385 C   0  0  0  0  0  0  0  0  0  0  0  0
    4.9215   14.0743   -1.5325 C   0  0  0  0  0  0  0  0  0  0  0  0
    5.8380   14.9321   -0.8830 C   0  0  0  0  0  0  0  0  0  0  0  0
    5.4552   16.2135   -0.4418 C   0  0  0  0  0  0  0  0  0  0  0  0
    6.3575   17.0208    0.1925 C   0  0  0  0  0  0  0  0  0  0  0  0
    5.9908   18.2393    0.6139 F   0  0  0  0  0  0  0  0  0  0  0  0
    7.6787   16.5833    0.4121 C   0  0  0  0  0  0  0  0  0  0  0  0
    8.5415   17.3956    1.0379 F   0  0  0  0  0  0  0  0  0  0  0  0
    8.0801   15.3454   -0.0053 C   0  0  0  0  0  0  0  0  0  0  0  0
    7.1746   14.4896   -0.6636 C   0  0  0  0  0  0  0  0  0  0  0  0
    7.5833   13.2099   -1.1055 C   0  0  0  0  0  0  0  0  0  0  0  0
    6.6805   12.4003   -1.7400 C   0  0  0  0  0  0  0  0  0  0  0  0
    6.8185   11.0650   -2.3199 C   0  0  0  0  0  0  0  0  0  0  0  0
    8.0079   10.4918   -2.6946 C   0  0  0  0  0  0  0  0  0  0  0  0
    8.0962    9.3321   -3.4893 C   0  0  0  0  0  0  0  0  0  0  0  0
    8.2095    8.4067   -4.1590 N   0  0  0  0  0  0  0  0  0  0  0  0
    9.2711   11.0401   -2.3969 C   0  0  0  0  0  0  0  0  0  0  0  0
   10.3225   11.4349   -2.1585 N   0  0  0  0  0  0  0  0  0  0  0  0
    5.4927    8.0865   -2.6252 C   0  0  0  0  0  0  0  0  0  0  0  0
    6.5234    7.7159   -1.7912 C   0  0  0  0  0  0  0  0  0  0  0  0
    6.7143    6.3285   -1.6904 C   0  0  0  0  0  0  0  0  0  0  0  0
    7.6443    5.6389   -0.8667 C   0  0  0  0  0  0  0  0  0  0  0  0
    8.4020    6.3247    0.1489 C   0  0  0  0  0  0  0  0  0  0  0  0
    8.0302    7.4005    0.9180 C   0  0  0  0  0  0  0  0  0  0  0  0
    8.9807    7.7625    1.8828 C   0  0  0  0  0  0  0  0  0  0  0  0
   10.0882    6.9610    1.8636 C   0  0  0  0  0  0  0  0  0  0  0  0
   11.4794    7.1058    2.9016 S   0  0  0  0  0  0  0  0  0  0  0  0
   11.8579    5.3359    3.1867 C   0  0  0  0  0  0  0  0  0  0  0  0
   10.7506    4.6492    3.9596 C   0  0  0  0  0  0  0  0  0  0  0  0
    9.9822    5.7582    0.6144 S   0  0  0  0  0  0  0  0  0  0  0  0
    7.7332    4.2671   -1.0668 C   0  0  0  0  0  0  0  0  0  0  0  0
    6.8971    3.5737   -1.9760 C   0  0  0  0  0  0  0  0  0  0  0  0
    5.8452    4.2278   -2.6541 C   0  0  0  0  0  0  0  0  0  0  0  0
    4.8005    3.4739   -3.3144 C   0  0  0  0  0  0  0  0  0  0  0  0
    4.0493    3.7888   -4.4152 C   0  0  0  0  0  0  0  0  0  0  0  0
    3.0799    2.8220   -4.7382 C   0  0  0  0  0  0  0  0  0  0  0  0
    3.0615    1.7752   -3.8632 C   0  0  0  0  0  0  0  0  0  0  0  0
    2.1036    0.3055   -3.8989 S   0  0  0  0  0  0  0  0  0  0  0  0
    0.4083    0.9936   -3.9281 C   0  0  0  0  0  0  0  0  0  0  0  0
    0.0537    1.6417   -2.6056 C   0  0  0  0  0  0  0  0  0  0  0  0
    4.2495    1.9687   -2.6182 S   0  0  0  0  0  0  0  0  0  0  0  0
    5.8189    5.6112   -2.5304 C   0  0  0  0  0  0  0  0  0  0  0  0
    4.7031    6.6815   -3.3196 S   0  0  0  0  0  0  0  0  0  0  0  0
    7.1822    2.1992   -2.0029 C   0  0  0  0  0  0  0  0  0  0  0  0
    8.0940    1.7882   -1.0653 C   0  0  0  0  0  0  0  0  0  0  0  0
    8.7611    3.1506   -0.1900 S   0  0  0  0  0  0  0  0  0  0  0  0
    8.2427    0.4229   -0.6968 C   0  0  0  0  0  0  0  0  0  0  0  0
    8.8363   -0.1700    0.4104 C   0  0  0  0  0  0  0  0  0  0  0  0
    9.8930    0.4479    1.2058 C   0  0  0  0  0  0  0  0  0  0  0  0
   10.9230    1.1437    0.5727 C   0  0  0  0  0  0  0  0  0  0  0  0
   11.9568    1.6740    1.3183 C   0  0  0  0  0  0  0  0  0  0  0  0
   11.9833    1.5083    2.6927 C   0  0  0  0  0  0  0  0  0  0  0  0
   10.9643    0.8215    3.3410 C   0  0  0  0  0  0  0  0  0  0  0  0
   11.0012    0.5904    4.8246 C   0  0  0  0  0  0  0  0  0  0  0  0
   11.4635   -0.8357    5.1297 C   0  0  0  0  0  0  0  0  0  0  0  0
    9.9235    0.2990    2.5881 C   0  0  0  0  0  0  0  0  0  0  0  0
    8.2858   -1.4488    0.6571 C   0  0  0  0  0  0  0  0  0  0  0  0
    8.3785   -2.5808    1.9978 S   0  0  0  0  0  0  0  0  0  0  0  0
    7.0544   -3.4850    1.3246 C   0  0  0  0  0  0  0  0  0  0  0  0
    6.0777   -4.4166    1.7265 C   0  0  0  0  0  0  0  0  0  0  0  0
    5.7971   -5.0195    2.9759 C   0  0  0  0  0  0  0  0  0  0  0  0
    4.4713   -5.5302    3.2266 C   0  0  0  0  0  0  0  0  0  0  0  0
    4.3217   -5.9439    4.4738 N   0  0  0  0  0  0  0  0  0  0  0  0
    5.7190   -5.7306    5.2633 S   0  0  0  0  0  0  0  0  0  0  0  0
    6.5707   -5.0845    4.0463 N   0  0  0  0  0  0  0  0  0  0  0  0
    3.5220   -5.5424    2.1782 C   0  0  0  0  0  0  0  0  0  0  0  0
    2.1390   -5.8086    2.1158 C   0  0  0  0  0  0  0  0  0  0  0  0
    0.7926   -6.0399    3.1861 S   0  0  0  0  0  0  0  0  0  0  0  0
   -0.2972   -5.8537    1.8302 C   0  0  0  0  0  0  0  0  0  0  0  0
   -1.6843   -5.6017    1.7559 C   0  0  0  0  0  0  0  0  0  0  0  0
   -2.5355   -5.5910    2.9483 C   0  0  0  0  0  0  0  0  0  0  0  0
   -2.4430   -6.6425    3.8561 C   0  0  0  0  0  0  0  0  0  0  0  0
   -3.1919   -6.6215    5.0169 C   0  0  0  0  0  0  0  0  0  0  0  0
   -4.0251   -5.5514    5.2916 C   0  0  0  0  0  0  0  0  0  0  0  0
   -4.1284   -4.4915    4.3993 C   0  0  0  0  0  0  0  0  0  0  0  0
   -4.9813   -3.2952    4.7117 C   0  0  0  0  0  0  0  0  0  0  0  0
   -4.1391   -2.1982    5.3659 C   0  0  0  0  0  0  0  0  0  0  0  0
   -3.3820   -4.5256    3.2322 C   0  0  0  0  0  0  0  0  0  0  0  0
   -2.0584   -5.2592    0.4709 C   0  0  0  0  0  0  0  0  0  0  0  0
   -0.7273   -5.3774   -0.6748 S   0  0  0  0  0  0  0  0  0  0  0  0
    0.3675   -5.7066    0.6146 C   0  0  0  0  0  0  0  0  0  0  0  0
    1.7549   -5.6675    0.7791 C   0  0  0  0  0  0  0  0  0  0  0  0
    2.8342   -5.3311    0.0057 N   0  0  0  0  0  0  0  0  0  0  0  0
    3.9097   -5.1769    0.8625 C   0  0  0  0  0  0  0  0  0  0  0  0
    5.1242   -4.4798    0.6725 C   0  0  0  0  0  0  0  0  0  0  0  0
    5.5010   -3.6146   -0.3308 N   0  0  0  0  0  0  0  0  0  0  0  0
    6.6484   -2.9956    0.0792 C   0  0  0  0  0  0  0  0  0  0  0  0
    7.3398   -1.8418   -0.2895 C   0  0  0  0  0  0  0  0  0  0  0  0
    7.1334   -0.6678   -1.5263 S   0  0  0  0  0  0  0  0  0  0  0  0
    4.7229   -3.0520   -1.4122 C   0  0  0  0  0  0  0  0  0  0  0  0
    5.2876   -3.4190   -2.7818 C   0  0  0  0  0  0  0  0  0  0  0  0
    2.8746   -5.6774   -1.3994 C   0  0  0  0  0  0  0  0  0  0  0  0
    2.5492   -7.1552   -1.6121 C   0  0  0  0  0  0  0  0  0  0  0  0
   -3.3248   -4.7807    0.0118 C   0  0  0  0  0  0  0  0  0  0  0  0
   -3.5643   -3.7021   -0.8321 C   0  0  0  0  0  0  0  0  0  0  0  0
   -2.6255   -2.8714   -1.4241 N   0  0  0  0  0  0  0  0  0  0  0  0
   -2.9295   -2.3535   -2.6981 C   0  0  0  0  0  0  0  0  0  0  0  0
   -2.7178   -1.0083   -2.9817 C   0  0  0  0  0  0  0  0  0  0  0  0
   -3.0339   -0.5061   -4.2289 C   0  0  0  0  0  0  0  0  0  0  0  0
   -3.5708   -1.3220   -5.2171 C   0  0  0  0  0  0  0  0  0  0  0  0
   -3.9439   -0.7729   -6.5589 C   0  0  0  0  0  0  0  0  0  0  0  0
   -3.7758   -2.6657   -4.9249 C   0  0  0  0  0  0  0  0  0  0  0  0
   -3.4577   -3.1816   -3.6851 C   0  0  0  0  0  0  0  0  0  0  0  0
   -1.4310   -2.4996   -0.7996 C   0  0  0  0  0  0  0  0  0  0  0  0
   -0.2869   -2.2691   -1.5633 C   0  0  0  0  0  0  0  0  0  0  0  0
    0.9108   -1.9555   -0.9527 C   0  0  0  0  0  0  0  0  0  0  0  0
    1.0146   -1.8838    0.4315 C   0  0  0  0  0  0  0  0  0  0  0  0
    2.3275   -1.6033    1.0971 C   0  0  0  0  0  0  0  0  0  0  0  0
   -0.1344   -2.0896    1.1861 C   0  0  0  0  0  0  0  0  0  0  0  0
   -1.3442   -2.3728    0.5850 C   0  0  0  0  0  0  0  0  0  0  0  0
   -4.9563   -3.5042   -0.9985 C   0  0  0  0  0  0  0  0  0  0  0  0
   -5.8826   -2.3590   -1.8940 S   0  0  0  0  0  0  0  0  0  0  0  0
   -7.3852   -3.0276   -1.2354 C   0  0  0  0  0  0  0  0  0  0  0  0
   -7.1496   -4.1816   -0.4495 C   0  0  0  0  0  0  0  0  0  0  0  0
   -8.0845   -5.0557    0.0071 N   0  0  0  0  0  0  0  0  0  0  0  0
   -7.7579   -5.9133    1.0851 C   0  0  0  0  0  0  0  0  0  0  0  0
   -7.2642   -5.3880    2.2746 C   0  0  0  0  0  0  0  0  0  0  0  0
   -6.9334   -6.2364    3.3104 C   0  0  0  0  0  0  0  0  0  0  0  0
   -7.0760   -7.6142    3.1837 C   0  0  0  0  0  0  0  0  0  0  0  0
   -6.6762   -8.5120    4.3127 C   0  0  0  0  0  0  0  0  0  0  0  0
   -7.5961   -8.1230    2.0007 C   0  0  0  0  0  0  0  0  0  0  0  0
   -7.9411   -7.2844    0.9574 C   0  0  0  0  0  0  0  0  0  0  0  0
   -9.3650   -5.1834   -0.5504 C   0  0  0  0  0  0  0  0  0  0  0  0
   -9.5659   -5.1425   -1.9296 C   0  0  0  0  0  0  0  0  0  0  0  0
  -10.8410   -5.2303   -2.4457 C   0  0  0  0  0  0  0  0  0  0  0  0
  -11.9507   -5.3587   -1.6122 C   0  0  0  0  0  0  0  0  0  0  0  0
  -13.3292   -5.4025   -2.1915 C   0  0  0  0  0  0  0  0  0  0  0  0
  -11.7372   -5.4452   -0.2435 C   0  0  0  0  0  0  0  0  0  0  0  0
  -10.4628   -5.3651    0.2872 C   0  0  0  0  0  0  0  0  0  0  0  0
   -5.7587   -4.3928   -0.2962 C   0  0  0  0  0  0  0  0  0  0  0  0
   -4.8028   -5.5358    0.5882 S   0  0  0  0  0  0  0  0  0  0  0  0
   -8.5605   -2.3593   -1.5609 C   0  0  0  0  0  0  0  0  0  0  0  0
   -9.7397   -2.3975   -0.8361 C   0  0  0  0  0  0  0  0  0  0  0  0
   -9.7889   -2.6365    0.6102 C   0  0  0  0  0  0  0  0  0  0  0  0
   -8.8571   -2.8777    1.3576 O   0  0  0  0  0  0  0  0  0  0  0  0
  -11.1935   -2.3911    1.0050 C   0  0  0  0  0  0  0  0  0  0  0  0
  -11.7590   -2.4590    2.2427 C   0  0  0  0  0  0  0  0  0  0  0  0
  -13.1389   -2.1818    2.3832 C   0  0  0  0  0  0  0  0  0  0  0  0
  -13.7740   -2.2382    3.6380 C   0  0  0  0  0  0  0  0  0  0  0  0
  -15.1075   -1.9578    3.7486 C   0  0  0  0  0  0  0  0  0  0  0  0
  -15.7086   -2.0097    4.9477 F   0  0  0  0  0  0  0  0  0  0  0  0
  -15.8620   -1.6130    2.6115 C   0  0  0  0  0  0  0  0  0  0  0  0
  -17.1693   -1.3437    2.7480 F   0  0  0  0  0  0  0  0  0  0  0  0
  -15.2732   -1.5521    1.3791 C   0  0  0  0  0  0  0  0  0  0  0  0
  -13.9010   -1.8334    1.2320 C   0  0  0  0  0  0  0  0  0  0  0  0
  -13.2822   -1.7681   -0.0394 C   0  0  0  0  0  0  0  0  0  0  0  0
  -11.9480   -2.0451   -0.1499 C   0  0  0  0  0  0  0  0  0  0  0  0
  -11.0517   -2.0670   -1.3035 C   0  0  0  0  0  0  0  0  0  0  0  0
  -11.4318   -1.9491   -2.6206 C   0  0  0  0  0  0  0  0  0  0  0  0
  -12.7568   -1.7403   -3.0400 C   0  0  0  0  0  0  0  0  0  0  0  0
  -13.8251   -1.5890   -3.4365 N   0  0  0  0  0  0  0  0  0  0  0  0
  -10.5505   -2.1054   -3.7070 C   0  0  0  0  0  0  0  0  0  0  0  0
   -9.8907   -2.2513   -4.6365 N   0  0  0  0  0  0  0  0  0  0  0  0
    3.9492    9.3804   -3.2808 H   0  0  0  0  0  0  0  0  0  0  0  0
    3.9037   14.3912   -1.7018 H   0  0  0  0  0  0  0  0  0  0  0  0
    4.4472   16.5627   -0.6020 H   0  0  0  0  0  0  0  0  0  0  0  0
    9.0964   15.0273    0.1676 H   0  0  0  0  0  0  0  0  0  0  0  0
    8.5990   12.8979   -0.9209 H   0  0  0  0  0  0  0  0  0  0  0  0
    7.1158    8.4302   -1.2507 H   0  0  0  0  0  0  0  0  0  0  0  0
    7.0647    7.8688    0.8497 H   0  0  0  0  0  0  0  0  0  0  0  0
    8.8537    8.5639    2.5872 H   0  0  0  0  0  0  0  0  0  0  0  0
   12.7912    5.3455    3.7479 H   0  0  0  0  0  0  0  0  0  0  0  0
   12.0222    4.8695    2.2157 H   0  0  0  0  0  0  0  0  0  0  0  0
   11.0123    3.6086    4.1333 H   0  0  0  0  0  0  0  0  0  0  0  0
    9.8190    4.6723    3.3978 H   0  0  0  0  0  0  0  0  0  0  0  0
   10.5929    5.1409    4.9168 H   0  0  0  0  0  0  0  0  0  0  0  0
    4.2194    4.6658   -5.0128 H   0  0  0  0  0  0  0  0  0  0  0  0
    2.4310    2.8936   -5.5925 H   0  0  0  0  0  0  0  0  0  0  0  0
    0.3499    1.6977   -4.7569 H   0  0  0  0  0  0  0  0  0  0  0  0
   -0.2310    0.1361   -4.1349 H   0  0  0  0  0  0  0  0  0  0  0  0
   -0.9680    2.0149   -2.6379 H   0  0  0  0  0  0  0  0  0  0  0  0
    0.7194    2.4776   -2.3978 H   0  0  0  0  0  0  0  0  0  0  0  0
    0.1396    0.9190   -1.7963 H   0  0  0  0  0  0  0  0  0  0  0  0
    6.7122    1.5099   -2.6793 H   0  0  0  0  0  0  0  0  0  0  0  0
   10.9244    1.2386   -0.5028 H   0  0  0  0  0  0  0  0  0  0  0  0
   12.7555    2.2068    0.8237 H   0  0  0  0  0  0  0  0  0  0  0  0
   12.8079    1.9091    3.2654 H   0  0  0  0  0  0  0  0  0  0  0  0
   10.0048    0.7418    5.2459 H   0  0  0  0  0  0  0  0  0  0  0  0
   11.6841    1.2994    5.2977 H   0  0  0  0  0  0  0  0  0  0  0  0
   11.4893   -1.0043    6.2036 H   0  0  0  0  0  0  0  0  0  0  0  0
   12.4603   -1.0030    4.7277 H   0  0  0  0  0  0  0  0  0  0  0  0
   10.7871   -1.5585    4.6799 H   0  0  0  0  0  0  0  0  0  0  0  0
    9.1212   -0.2257    3.0852 H   0  0  0  0  0  0  0  0  0  0  0  0
   -1.7888   -7.4750    3.6451 H   0  0  0  0  0  0  0  0  0  0  0  0
   -3.1157   -7.4400    5.7180 H   0  0  0  0  0  0  0  0  0  0  0  0
   -4.5964   -5.5355    6.2094 H   0  0  0  0  0  0  0  0  0  0  0  0
   -5.7893   -3.5773    5.3896 H   0  0  0  0  0  0  0  0  0  0  0  0
   -5.4269   -2.9070    3.7934 H   0  0  0  0  0  0  0  0  0  0  0  0
   -3.6957   -2.5621    6.2903 H   0  0  0  0  0  0  0  0  0  0  0  0
   -4.7546   -1.3309    5.5930 H   0  0  0  0  0  0  0  0  0  0  0  0
   -3.3353   -1.8891    4.7013 H   0  0  0  0  0  0  0  0  0  0  0  0
   -3.4481   -3.6962    2.5436 H   0  0  0  0  0  0  0  0  0  0  0  0
    3.6862   -3.3637   -1.3063 H   0  0  0  0  0  0  0  0  0  0  0  0
    4.7549   -1.9613   -1.3108 H   0  0  0  0  0  0  0  0  0  0  0  0
    4.6580   -2.9931   -3.5577 H   0  0  0  0  0  0  0  0  0  0  0  0
    5.3389   -4.4963   -2.9222 H   0  0  0  0  0  0  0  0  0  0  0  0
    6.2904   -3.0149   -2.8922 H   0  0  0  0  0  0  0  0  0  0  0  0
    2.1496   -5.0606   -1.9416 H   0  0  0  0  0  0  0  0  0  0  0  0
    3.8775   -5.4852   -1.7738 H   0  0  0  0  0  0  0  0  0  0  0  0
    3.2351   -7.7793   -1.0429 H   0  0  0  0  0  0  0  0  0  0  0  0
    1.5328   -7.3774   -1.2988 H   0  0  0  0  0  0  0  0  0  0  0  0
    2.6462   -7.3999   -2.6662 H   0  0  0  0  0  0  0  0  0  0  0  0
   -2.3129   -0.3626   -2.2167 H   0  0  0  0  0  0  0  0  0  0  0  0
   -2.8745    0.5431   -4.4335 H   0  0  0  0  0  0  0  0  0  0  0  0
   -5.0268   -0.6712   -6.6295 H   0  0  0  0  0  0  0  0  0  0  0  0
   -3.6210   -1.4430   -7.3533 H   0  0  0  0  0  0  0  0  0  0  0  0
   -3.4980    0.2055   -6.7193 H   0  0  0  0  0  0  0  0  0  0  0  0
   -4.1891   -3.3164   -5.6815 H   0  0  0  0  0  0  0  0  0  0  0  0
   -3.6141   -4.2294   -3.4726 H   0  0  0  0  0  0  0  0  0  0  0  0
   -0.3381   -2.3534   -2.6385 H   0  0  0  0  0  0  0  0  0  0  0  0
    1.7789   -1.7671   -1.5685 H   0  0  0  0  0  0  0  0  0  0  0  0
    2.1833   -1.0186    2.0030 H   0  0  0  0  0  0  0  0  0  0  0  0
    2.8141   -2.5380    1.3811 H   0  0  0  0  0  0  0  0  0  0  0  0
    2.9930   -1.0600    0.4302 H   0  0  0  0  0  0  0  0  0  0  0  0
   -0.0840   -2.0203    2.2633 H   0  0  0  0  0  0  0  0  0  0  0  0
   -2.2291   -2.5006    1.1886 H   0  0  0  0  0  0  0  0  0  0  0  0
   -7.1725   -4.3182    2.3751 H   0  0  0  0  0  0  0  0  0  0  0  0
   -6.5522   -5.8281    4.2328 H   0  0  0  0  0  0  0  0  0  0  0  0
   -5.6429   -8.3154    4.5948 H   0  0  0  0  0  0  0  0  0  0  0  0
   -7.3011   -8.3249    5.1854 H   0  0  0  0  0  0  0  0  0  0  0  0
   -6.7732   -9.5581    4.0352 H   0  0  0  0  0  0  0  0  0  0  0  0
   -7.7270   -9.1893    1.8878 H   0  0  0  0  0  0  0  0  0  0  0  0
   -8.3411   -7.6867    0.0380 H   0  0  0  0  0  0  0  0  0  0  0  0
   -8.7219   -5.0363   -2.5945 H   0  0  0  0  0  0  0  0  0  0  0  0
  -10.9824   -5.1892   -3.5158 H   0  0  0  0  0  0  0  0  0  0  0  0
  -14.0779   -5.4920   -1.4087 H   0  0  0  0  0  0  0  0  0  0  0  0
  -13.4293   -6.2484   -2.8702 H   0  0  0  0  0  0  0  0  0  0  0  0
  -13.5316   -4.4971   -2.7630 H   0  0  0  0  0  0  0  0  0  0  0  0
  -12.5796   -5.5621    0.4229 H   0  0  0  0  0  0  0  0  0  0  0  0
  -10.3107   -5.4254    1.3544 H   0  0  0  0  0  0  0  0  0  0  0  0
   -8.5100   -1.7123   -2.4286 H   0  0  0  0  0  0  0  0  0  0  0  0
  -11.1665   -2.7222    3.1058 H   0  0  0  0  0  0  0  0  0  0  0  0
  -13.2096   -2.4991    4.5196 H   0  0  0  0  0  0  0  0  0  0  0  0
  -15.8657   -1.2862    0.5177 H   0  0  0  0  0  0  0  0  0  0  0  0
  -13.8815   -1.4912   -0.8919 H   0  0  0  0  0  0  0  0  0  0  0  0
  1  2  2  0  0  0  0
  2  3  1  0  0  0  0
  3  4  2  0  0  0  0
  3  5  1  0  0  0  0
  5  6  2  0  0  0  0
  6  7  1  0  0  0  0
  7  8  2  0  0  0  0
  8  9  1  0  0  0  0
  9 10  1  0  0  0  0
  9 11  2  0  0  0  0
 11 12  1  0  0  0  0
 11 13  1  0  0  0  0
 13 14  2  0  0  0  0
 14 15  1  0  0  0  0
 15 16  2  0  0  0  0
 16 17  1  0  0  0  0
 17 18  2  0  0  0  0
 18 19  1  0  0  0  0
 19 20  3  0  0  0  0
 18 21  1  0  0  0  0
 21 22  3  0  0  0  0
  1 23  1  0  0  0  0
 23 24  2  0  0  0  0
 24 25  1  0  0  0  0
 25 26  2  0  0  0  0
 26 27  1  0  0  0  0
 27 28  2  0  0  0  0
 28 29  1  0  0  0  0
 29 30  2  0  0  0  0
 30 31  1  0  0  0  0
 31 32  1  0  0  0  0
 32 33  1  0  0  0  0
 30 34  1  0  0  0  0
 26 35  1  0  0  0  0
 35 36  2  0  0  0  0
 36 37  1  0  0  0  0
 37 38  1  0  0  0  0
 38 39  2  0  0  0  0
 39 40  1  0  0  0  0
 40 41  2  0  0  0  0
 41 42  1  0  0  0  0
 42 43  1  0  0  0  0
 43 44  1  0  0  0  0
 41 45  1  0  0  0  0
 37 46  2  0  0  0  0
 46 47  1  0  0  0  0
 36 48  1  0  0  0  0
 48 49  2  0  0  0  0
 49 50  1  0  0  0  0
 49 51  1  0  0  0  0
 51 52  2  0  0  0  0
 52 53  1  0  0  0  0
 53 54  2  0  0  0  0
 54 55  1  0  0  0  0
 55 56  2  0  0  0  0
 56 57  1  0  0  0  0
 57 58  1  0  0  0  0
 58 59  1  0  0  0  0
 57 60  2  0  0  0  0
 52 61  1  0  0  0  0
 61 62  1  0  0  0  0
 62 63  1  0  0  0  0
 63 64  1  0  0  0  0
 64 65  1  0  0  0  0
 65 66  1  0  0  0  0
 66 67  2  0  0  0  0
 67 68  1  0  0  0  0
 68 69  1  0  0  0  0
 66 70  1  0  0  0  0
 70 71  1  0  0  0  0
 71 72  1  0  0  0  0
 72 73  1  0  0  0  0
 73 74  1  0  0  0  0
 74 75  1  0  0  0  0
 75 76  2  0  0  0  0
 76 77  1  0  0  0  0
 77 78  2  0  0  0  0
 78 79  1  0  0  0  0
 79 80  1  0  0  0  0
 80 81  1  0  0  0  0
 79 82  2  0  0  0  0
 74 83  2  0  0  0  0
 83 84  1  0  0  0  0
 84 85  1  0  0  0  0
 85 86  1  0  0  0  0
 86 87  1  0  0  0  0
 87 88  1  0  0  0  0
 88 89  1  0  0  0  0
 89 90  1  0  0  0  0
 90 91  1  0  0  0  0
 91 92  1  0  0  0  0
 92 93  1  0  0  0  0
 90 94  1  0  0  0  0
 94 95  1  0  0  0  0
 87 96  1  0  0  0  0
 96 97  1  0  0  0  0
 83 98  1  0  0  0  0
 98 99  2  0  0  0  0
 99100  1  0  0  0  0
100101  1  0  0  0  0
101102  2  0  0  0  0
102103  1  0  0  0  0
103104  2  0  0  0  0
104105  1  0  0  0  0
104106  1  0  0  0  0
106107  2  0  0  0  0
100108  1  0  0  0  0
108109  2  0  0  0  0
109110  1  0  0  0  0
110111  2  0  0  0  0
111112  1  0  0  0  0
111113  1  0  0  0  0
113114  2  0  0  0  0
 99115  1  0  0  0  0
115116  1  0  0  0  0
116117  1  0  0  0  0
117118  2  0  0  0  0
118119  1  0  0  0  0
119120  1  0  0  0  0
120121  2  0  0  0  0
121122  1  0  0  0  0
122123  2  0  0  0  0
123124  1  0  0  0  0
123125  1  0  0  0  0
125126  2  0  0  0  0
119127  1  0  0  0  0
127128  2  0  0  0  0
128129  1  0  0  0  0
129130  2  0  0  0  0
130131  1  0  0  0  0
130132  1  0  0  0  0
132133  2  0  0  0  0
118134  1  0  0  0  0
134135  1  0  0  0  0
117136  1  0  0  0  0
136137  2  0  0  0  0
137138  1  0  0  0  0
138139  2  0  0  0  0
138140  1  0  0  0  0
140141  2  0  0  0  0
141142  1  0  0  0  0
142143  2  0  0  0  0
143144  1  0  0  0  0
144145  1  0  0  0  0
144146  2  0  0  0  0
146147  1  0  0  0  0
146148  1  0  0  0  0
148149  2  0  0  0  0
149150  1  0  0  0  0
150151  2  0  0  0  0
151152  1  0  0  0  0
152153  2  0  0  0  0
153154  1  0  0  0  0
154155  3  0  0  0  0
153156  1  0  0  0  0
156157  3  0  0  0  0
 17  2  1  0  0  0  0
 47 23  1  0  0  0  0
 93 51  1  0  0  0  0
135 98  1  0  0  0  0
152137  1  0  0  0  0
 16  5  1  0  0  0  0
 46 25  1  0  0  0  0
 60 53  1  0  0  0  0
 92 61  2  0  0  0  0
107101  1  0  0  0  0
114108  1  0  0  0  0
134115  2  0  0  0  0
151140  1  0  0  0  0
 14  7  1  0  0  0  0
 34 27  1  0  0  0  0
 50 35  1  0  0  0  0
 91 63  2  0  0  0  0
126120  1  0  0  0  0
133127  1  0  0  0  0
149142  1  0  0  0  0
 45 38  1  0  0  0  0
 89 64  2  0  0  0  0
 69 65  2  0  0  0  0
 88 70  2  0  0  0  0
 86 71  2  0  0  0  0
 85 73  2  0  0  0  0
 82 75  1  0  0  0  0
  1158  1  0  0  0  0
  6159  1  0  0  0  0
  8160  1  0  0  0  0
 13161  1  0  0  0  0
 15162  1  0  0  0  0
 24163  1  0  0  0  0
 28164  1  0  0  0  0
 29165  1  0  0  0  0
 32166  1  0  0  0  0
 32167  1  0  0  0  0
 33168  1  0  0  0  0
 33169  1  0  0  0  0
 33170  1  0  0  0  0
 39171  1  0  0  0  0
 40172  1  0  0  0  0
 43173  1  0  0  0  0
 43174  1  0  0  0  0
 44175  1  0  0  0  0
 44176  1  0  0  0  0
 44177  1  0  0  0  0
 48178  1  0  0  0  0
 54179  1  0  0  0  0
 55180  1  0  0  0  0
 56181  1  0  0  0  0
 58182  1  0  0  0  0
 58183  1  0  0  0  0
 59184  1  0  0  0  0
 59185  1  0  0  0  0
 59186  1  0  0  0  0
 60187  1  0  0  0  0
 76188  1  0  0  0  0
 77189  1  0  0  0  0
 78190  1  0  0  0  0
 80191  1  0  0  0  0
 80192  1  0  0  0  0
 81193  1  0  0  0  0
 81194  1  0  0  0  0
 81195  1  0  0  0  0
 82196  1  0  0  0  0
 94197  1  0  0  0  0
 94198  1  0  0  0  0
 95199  1  0  0  0  0
 95200  1  0  0  0  0
 95201  1  0  0  0  0
 96202  1  0  0  0  0
 96203  1  0  0  0  0
 97204  1  0  0  0  0
 97205  1  0  0  0  0
 97206  1  0  0  0  0
102207  1  0  0  0  0
103208  1  0  0  0  0
105209  1  0  0  0  0
105210  1  0  0  0  0
105211  1  0  0  0  0
106212  1  0  0  0  0
107213  1  0  0  0  0
109214  1  0  0  0  0
110215  1  0  0  0  0
112216  1  0  0  0  0
112217  1  0  0  0  0
112218  1  0  0  0  0
113219  1  0  0  0  0
114220  1  0  0  0  0
121221  1  0  0  0  0
122222  1  0  0  0  0
124223  1  0  0  0  0
124224  1  0  0  0  0
124225  1  0  0  0  0
125226  1  0  0  0  0
126227  1  0  0  0  0
128228  1  0  0  0  0
129229  1  0  0  0  0
131230  1  0  0  0  0
131231  1  0  0  0  0
131232  1  0  0  0  0
132233  1  0  0  0  0
133234  1  0  0  0  0
136235  1  0  0  0  0
141236  1  0  0  0  0
143237  1  0  0  0  0
148238  1  0  0  0  0
150239  1  0  0  0  0
M  END
