163

C         -9.93420        4.90130        0.37060
C        -10.41020        4.14400        1.41560
C         -9.97870        2.78340        1.73650
O         -9.10290        2.13200        1.19140
C        -10.81710        2.34090        2.86540
C        -10.81890        1.13840        3.50950
C        -11.72960        0.93070        4.57000
C        -11.77780       -0.29130        5.26740
C        -12.67210       -0.46710        6.28620
F        -12.71710       -1.63220        6.94850
C        -13.55410        0.56890        6.65090
F        -14.42100        0.36820        7.65310
C        -13.53000        1.76680        5.99280
C        -12.62020        1.97980        4.93820
C        -12.59010        3.21670        4.25220
C        -11.69880        3.39710        3.22850
C        -11.44160        4.53840        2.35070
C        -12.06950        5.75630        2.43870
C        -13.06590        6.06330        3.38780
N        -13.88160        6.37810        4.13240
C        -11.81370        6.87540        1.62100
N        -11.66030        7.83250        1.00360
C         -8.96900        4.59740       -0.59520
C         -8.63870        5.48980       -1.61610
C         -7.66920        5.02630       -2.49200
S         -6.95110        5.94830       -3.80350
C         -7.13370        7.67140       -3.20830
C         -6.35490        7.93450       -1.93500
C         -7.24460        3.73330       -2.16350
S         -8.03560        3.12850       -0.74460
C         -6.26330        2.93400       -2.80860
C         -5.98070        2.79180       -4.15850
C         -6.77960        3.33800       -5.25210
C         -8.17190        3.31250       -5.19960
C         -8.90830        3.80220       -6.25990
C         -8.27100        4.31640       -7.37610
C         -6.88440        4.34440       -7.44750
C         -6.17750        4.85550       -8.66930
C         -5.74160        3.68940       -9.55850
C         -6.14990        3.84650       -6.38290
C         -4.87740        1.93920       -4.35650
S         -4.06730        1.36130       -5.79380
C         -2.99040        0.44330       -4.79660
C         -1.85400       -0.37690       -4.92340
C         -1.03460       -0.72960       -6.02020
C          0.20780       -1.41890       -5.77820
N          0.90440       -1.60310       -6.88840
S          0.07390       -0.97890       -8.12960
N         -1.20760       -0.44110       -7.30010
C          0.51680       -1.84710       -4.46720
C          1.59760       -2.55390       -3.90600
S          3.16680       -3.13210       -4.35910
C          3.43390       -3.63720       -2.70680
C          4.57800       -4.11490       -2.03200
C          5.84930       -4.28580       -2.74400
C          7.01240       -3.65970       -2.30340
C          8.17690       -3.78360       -3.03600
C          8.19140       -4.51770       -4.21030
C          7.03740       -5.13860       -4.66930
C          7.02040       -5.87870       -5.97500
C          6.52400       -4.95960       -7.09320
C          5.87140       -5.01300       -3.92800
C          4.34090       -4.26080       -0.67940
S          2.69380       -3.81850       -0.24220
C          2.33910       -3.40190       -1.87670
C          1.28910       -2.77880       -2.56060
N          0.06420       -2.23830       -2.25720
C         -0.39510       -1.61870       -3.40500
C         -1.49060       -0.75330       -3.60440
N         -2.34310       -0.15000       -2.69790
C         -3.25400        0.57270       -3.42860
C         -4.33630        1.42170       -3.17670
S         -5.20010        1.97290       -1.78800
C         -2.02040        0.26430       -1.34690
C         -1.48340        1.69520       -1.32120
C         -0.75490       -2.79710       -1.19950
C         -0.89840       -4.31120       -1.35000
C          5.24540       -4.62920        0.38420
C          4.98830       -4.16530        1.68600
C          5.91710       -4.38820        2.67050
C          5.89600       -3.94180        4.08780
O          5.01220       -3.36110        4.67110
C          7.22380       -4.35250        4.61640
C          7.94730       -5.02110        3.60530
C          7.12220       -5.07010        2.40660
C          7.33900       -5.60550        1.14960
C          6.39630       -5.39260        0.15530
C          9.23940       -5.44820        3.85210
C          9.81920       -5.15030        5.07600
C          9.11510       -4.46640        6.07170
C          7.77460       -4.10690        5.84900
C          9.72080       -4.07990        7.32410
C         10.93650       -3.49780        7.46830
C         11.73930       -2.91880        6.35400
O         11.65010       -3.13810        5.16790
C         12.64540       -1.94670        7.00030
C         13.49810       -1.06130        6.40580
C         14.25870       -0.19080        7.21720
C         15.14300        0.75000        6.65410
C         15.85780        1.59050        7.46050
F         16.69480        2.48790        6.92360
C         15.72260        1.52540        8.86220
F         16.43500        2.36260        9.62670
C         14.87470        0.62170        9.43820
C         14.12150       -0.25830        8.63460
C         13.23620       -1.19050        9.22140
C         12.50700       -2.02440        8.41420
C         11.51610       -3.04610        8.72560
C         11.23150       -3.54720        9.96520
C         11.84340       -3.09690       11.15440
N         12.30890       -2.75960       12.14740
C         10.32790       -4.60650       10.20220
N          9.62300       -5.47570       10.45560
H        -10.37220        5.88330        0.23990
H        -10.13730        0.35570        3.21310
H        -11.10920       -1.09450        4.99990
H        -14.21210        2.54990        6.28510
H        -13.27860        3.98840        4.55570
H         -9.11350        6.45180       -1.68860
H         -8.19440        7.89080       -3.09720
H         -6.74100        8.26200       -4.03560
H         -6.45050        8.98160       -1.65530
H         -5.30180        7.70710       -2.08340
H         -6.72820        7.32330       -1.11590
H         -8.66880        2.89510       -4.33610
H         -9.98750        3.78050       -6.21760
H         -8.85630        4.69960       -8.19960
H         -5.29660        5.42770       -8.37090
H         -6.83920        5.51520       -9.23350
H         -6.60770        3.11450       -9.87860
H         -5.07390        3.02620       -9.01340
H         -5.22350        4.05740      -10.44090
H         -5.07110        3.87840       -6.41990
H          6.99560       -3.07390       -1.39620
H          9.07840       -3.29720       -2.69350
H          9.10620       -4.60470       -4.77860
H          6.35870       -6.74440       -5.90190
H          8.02420       -6.23390       -6.21580
H          6.50010       -5.49240       -8.04080
H          5.52270       -4.59830       -6.87030
H          7.18180       -4.09930       -7.19450
H          4.96710       -5.49470       -4.27150
H         -1.25910       -0.39390       -0.93660
H         -2.92880        0.19610       -0.74060
H         -1.21370        1.96320       -0.30350
H         -0.59930        1.77470       -1.95040
H         -2.23010        2.39930       -1.67740
H         -1.74770       -2.35170       -1.25400
H         -0.29710       -2.56600       -0.23160
H         -1.57140       -4.68840       -0.58500
H         -1.30830       -4.55470       -2.32790
H          0.06130       -4.80790       -1.23920
H          4.09030       -3.60700        1.90670
H          8.23090       -6.17320        0.93210
H          6.56040       -5.81250       -0.82460
H          9.80270       -5.98030        3.10110
H         10.82780       -5.47430        5.27700
H          7.20730       -3.59160        6.60990
H          9.08750       -4.17770        8.19870
H         13.58460       -1.02160        5.33060
H         15.25680        0.81280        5.58320
H         14.78390        0.58470       10.51250
H         13.14540       -1.21330       10.29560
