320

C         -7.94580        2.36650       -9.56300
C         -9.20370        2.84120       -9.38230
C         -9.58290        4.13630      -10.02450
O         -9.01830        4.68560      -10.93990
C        -10.74800        4.61250       -9.25520
C        -11.36660        5.83800       -9.31410
C        -12.44340        6.07050       -8.45270
C        -13.23270        7.24470       -8.29830
C        -14.19150        7.10800       -7.35700
S        -14.20380        5.55270       -6.60220
C        -12.86370        5.04120       -7.57660
C        -12.24440        3.79890       -7.52140
C        -11.16800        3.59250       -8.36300
C        -10.29750        2.43680       -8.52400
C        -10.56790        1.16340       -8.09170
C         -9.77230        0.05050       -8.42490
N         -9.14730       -0.87860       -8.67840
C        -11.64830        0.83990       -7.25070
N        -12.49110        0.55030       -6.52590
C         -7.19420        1.45830       -8.75140
C         -7.42520        1.28340       -7.35790
N         -8.37620        1.98630       -6.73560
C         -8.61890        1.80930       -5.45470
C         -9.70390        2.63430       -4.90540
C        -10.67660        2.14600       -4.04000
C        -11.73140        2.92720       -3.58340
C        -11.87420        4.26350       -3.97450
O        -12.83410        5.13590       -3.66350
C        -13.85800        4.84320       -2.71610
C        -13.35460        4.93390       -1.28190
C        -10.88260        4.75000       -4.84820
C         -9.84240        3.96670       -5.30680
F         -8.94830        4.51630       -6.13080
F        -10.97790        6.02470       -5.25550
F        -12.60820        2.34000       -2.74710
F        -10.63720        0.86920       -3.63730
C         -7.85840        0.87210       -4.71240
C         -7.97430        0.57200       -3.27530
C         -7.93560        1.55240       -2.28630
F         -7.92510        2.84890       -2.63630
C         -7.86960        1.22180       -0.94560
F         -7.80200        2.19650       -0.02620
C         -7.84800       -0.11300       -0.49910
O         -7.73010       -0.28550        0.81950
C         -7.72330       -1.58470        1.41090
C         -7.39800       -1.39480        2.88200
C         -7.93930       -1.09090       -1.49590
F         -7.96640       -2.40240       -1.18450
C         -7.98860       -0.75190       -2.84250
F         -8.07690       -1.73970       -3.73100
N         -6.88280        0.22780       -5.31110
C         -6.61410        0.40050       -6.59860
C         -5.48250       -0.28430       -7.14900
C         -5.27620       -0.06410       -8.51150
C         -6.09550        0.77230       -9.26830
F         -5.80440        0.90880      -10.56830
F         -4.24790       -0.65090       -9.14760
C         -4.65290       -1.06290       -6.29550
S         -5.05860       -1.16290       -4.59130
C         -3.64690       -2.07840       -4.31380
C         -3.02450       -2.64390       -3.17110
C         -1.84110       -3.28480       -3.60290
C         -1.64940       -3.09220       -5.10350
C         -2.89140       -2.30400       -5.45880
C         -3.46740       -1.74070       -6.58740
C         -1.64190       -4.37630       -5.90770
C         -2.12080       -5.56820       -5.38460
C         -2.14360       -6.71310       -6.16070
C         -1.69740       -6.69530       -7.47470
C         -1.76640       -7.92800       -8.32890
C         -3.10270       -7.98700       -9.07170
C         -1.23320       -5.49460       -7.99790
C         -1.20700       -4.34890       -7.22740
C         -0.36470       -2.30120       -5.28990
C         -0.37450       -0.91690       -5.39500
C          0.80660       -0.21540       -5.54930
C          2.03160       -0.87000       -5.58370
C          3.30440       -0.09500       -5.77690
C          3.65700        0.74700       -4.55060
C          2.03840       -2.25150       -5.44390
C          0.85880       -2.95920       -5.30320
C         -1.01520       -3.90020       -2.69000
C         -1.38910       -3.83980       -1.34760
C         -0.70500       -4.25550       -0.16460
C         -1.38270       -3.83320        0.96680
C         -2.66870       -3.14920        0.59150
C         -2.56560       -3.17510       -0.92310
C         -3.40160       -2.58170       -1.83290
C         -2.72370       -1.69690        1.03940
C         -3.94620       -1.03720        1.06480
C         -4.02940        0.28860        1.44310
C         -2.89000        0.99510        1.80740
C         -2.98590        2.41340        2.28940
C         -3.18400        2.44200        3.80640
C         -1.66760        0.33940        1.76370
C         -1.58150       -0.98530        1.37560
C         -3.85210       -3.92560        1.14010
C         -4.15150       -3.83760        2.49420
C         -5.22030       -4.53640        3.02360
C         -6.01380       -5.34360        2.21860
C         -7.19500       -6.08730        2.77340
C         -8.50410       -5.36750        2.44340
C         -5.70370       -5.43390        0.86800
C         -4.63480       -4.73920        0.33310
C         -0.61650       -3.99680        2.11860
S         -0.76060       -3.43440        3.75730
C          0.91500       -3.80100        4.00930
C          1.89670       -3.32590        4.93470
C          1.76030       -2.50280        6.05100
C          2.89240       -1.85890        6.49450
C          3.01590       -0.75120        7.53530
C          2.91080       -1.39430        8.90580
C          4.03460       -1.64460        9.67920
C          3.91290       -2.25060       10.91670
C          2.67100       -2.62470       11.41030
C          2.54690       -3.31830       12.73620
C          2.65960       -4.83380       12.55870
C          1.54970       -2.38110       10.62710
C          1.66560       -1.77500        9.39160
C          2.01550        0.37590        7.35860
C          1.69880        1.19530        8.43550
C          0.82110        2.25050        8.28040
C          0.24180        2.52300        7.04720
C         -0.75260        3.63940        6.90420
C         -2.12370        3.21130        7.43110
C          0.58270        1.71840        5.96940
C          1.46550        0.66390        6.11730
C          4.38930       -0.21360        7.21150
C          4.99800       -1.01650        6.25970
C          4.13210       -2.07480        5.85180
C          4.30020       -3.03340        4.85560
C          3.16200       -3.63380        4.37790
C          3.00610       -4.53810        3.16460
C          3.78100       -4.14330        1.92540
C          3.92050       -5.08100        0.90670
C          4.61520       -4.77400       -0.24580
C          5.21190       -3.52930       -0.40790
C          5.96120       -3.19850       -1.66600
C          4.99810       -2.75720       -2.76990
C          5.06030       -2.59440        0.60550
C          4.33470       -2.88410        1.74870
C          3.41540       -5.93340        3.61870
C          2.48320       -6.89270        3.98270
C          2.89550       -8.13730        4.42480
C          4.24320       -8.45310        4.51590
C          4.69200       -9.78480        5.04390
C          4.95450       -9.69890        6.54890
C          5.17280       -7.48630        4.15240
C          4.76700       -6.24290        3.71110
C          1.52560       -4.41010        2.92520
C          0.65840       -4.52930        1.84140
S          0.86140       -4.92680        0.16190
S          6.41100       -0.31340        5.60170
C          6.19410        1.07860        6.63280
C          5.09600        0.96220        7.46020
C          7.00370        2.24440        6.38770
C          7.15180        2.69930        5.04340
N          6.53240        2.04520        4.05540
C          6.56600        2.50740        2.82970
C          5.77600        1.77870        1.82470
C          6.23780        1.49100        0.53930
C          5.42310        0.90750       -0.41100
C          4.08370        0.55420       -0.14950
O          3.41880        0.04220       -1.18680
C          2.03090       -0.28530       -1.13920
C          1.77350       -1.67230       -0.57050
C          3.64510        0.79260        1.15730
C          4.47150        1.37980        2.11050
F          3.95580        1.59490        3.32080
F          2.39700        0.46620        1.54790
F          5.91230        0.66460       -1.63550
F          7.50950        1.76920        0.20490
C          7.31280        3.68620        2.53530
C          7.42760        4.30770        1.20560
C          6.34090        4.54510        0.36460
F          5.09940        4.21600        0.75720
C          6.49640        5.15200       -0.86700
F          5.41900        5.36170       -1.63690
C          7.74860        5.57930       -1.34420
O          7.75590        6.14520       -2.55050
C          8.98070        6.48190       -3.20500
C          8.61490        6.98720       -4.58890
C          8.82870        5.37770       -0.47790
F         10.06920        5.79020       -0.80370
C          8.66450        4.76560        0.75780
F          9.74960        4.60670        1.51820
N          7.95140        4.31230        3.49210
C          7.86470        3.89100        4.75810
C          8.47370        4.64780        5.80100
C          8.32090        4.17240        7.09100
C          7.57450        3.02110        7.38020
F          7.43650        2.65800        8.66440
F          8.86930        4.84640        8.10860
C          9.27940        5.79380        5.44630
C          8.90240        6.62440        4.44890
C          7.50730        6.67160        3.91100
O          6.48910        6.34880        4.48210
C          7.61840        7.36690        2.61640
C          6.64350        7.54600        1.66550
C          6.99140        8.22050        0.49190
C          6.18880        8.51360       -0.64690
C          6.86970        9.17810       -1.60490
S          8.51920        9.49630       -1.18940
C          8.31490        8.70150        0.34110
C          9.29530        8.54270        1.31250
C          8.93610        7.86790        2.46570
C          9.71700        7.52600        3.64890
C         10.98500        7.95170        3.92990
C         11.72960        8.81900        3.10240
N         12.37360        9.53050        2.47300
C         11.69700        7.61060        5.10030
N         12.32550        7.37130        6.02980
H         -7.40420        2.80630      -10.39570
H        -11.02530        6.59820       -9.99930
H        -13.07320        8.14140       -8.86890
H        -14.91390        7.83560       -7.04210
H        -12.59260        3.04610       -6.83340
H        -14.60090        5.62200       -2.90400
H        -14.31190        3.87010       -2.91850
H        -14.19370        4.83120       -0.60060
H        -12.87980        5.89790       -1.11600
H        -12.63650        4.14790       -1.06470
H         -6.96790       -2.22300        0.94170
H         -8.70620       -2.05190        1.28210
H         -6.42580       -0.92170        2.98860
H         -8.14810       -0.76790        3.35560
H         -7.37030       -2.36170        3.37460
H         -3.05300       -1.80010       -7.57630
H         -2.47740       -5.60570       -4.36550
H         -2.51480       -7.63530       -5.73620
H         -1.66120       -8.81820       -7.70530
H         -0.95130       -7.92110       -9.05560
H         -3.22110       -7.11230       -9.70710
H         -3.92810       -8.00800       -8.36370
H         -3.15430       -8.87800       -9.69310
H         -0.88750       -5.45740       -9.02100
H         -0.83820       -3.42480       -7.64870
H         -1.31140       -0.38000       -5.37290
H          0.77320        0.85940       -5.65780
H          3.19030        0.56620       -6.64000
H          4.12390       -0.78460       -5.98650
H          2.85740        1.44810       -4.32200
H          3.81830        0.11270       -3.68400
H          4.56780        1.31240       -4.73160
H          2.97870       -2.78370       -5.46040
H          0.88760       -4.03650       -5.22640
H         -0.10040       -4.39290       -2.98070
H         -4.30050       -2.06070       -1.54320
H         -4.84220       -1.57520        0.79470
H         -4.99120        0.78230        1.45580
H         -3.82620        2.91520        1.80620
H         -2.07120        2.95330        2.03600
H         -2.36130        1.93220        4.30300
H         -4.11020        1.93940        4.07650
H         -3.22880        3.46710        4.16630
H         -0.76460        0.86740        2.03460
H         -0.61200       -1.45800        1.34380
H         -3.54540       -3.21360        3.13520
H         -5.43510       -4.45740        4.08000
H         -7.09800       -6.18460        3.85640
H         -7.22500       -7.09080        2.34320
H         -8.53200       -4.38970        2.91920
H         -9.35360       -5.94690        2.79680
H         -8.60080       -5.22800        1.36930
H         -6.30400       -6.05990        0.22390
H         -4.41360       -4.83250       -0.71960
H          0.78570       -2.30510        6.46950
H          5.01190       -1.35740        9.31990
H          4.79840       -2.42950       11.50980
H          3.33570       -2.97560       13.40880
H          1.58290       -3.08010       13.19030
H          2.56920       -5.33770       13.51820
H          3.62030       -5.09240       12.11890
H          1.87420       -5.19670       11.89930
H          0.57270       -2.66440       10.99260
H          0.78000       -1.57900        8.80540
H          2.13970        1.00270        9.40300
H          0.58560        2.87600        9.12980
H         -0.41010        4.51110        7.46620
H         -0.84090        3.92400        5.85420
H         -2.48780        2.34600        6.88190
H         -2.05940        2.94590        8.48380
H         -2.84340        4.01920        7.32080
H          0.16150        1.92180        4.99520
H          1.72620        0.06540        5.25720
H          5.27260       -3.20750        4.42200
H          3.49020       -6.06460        1.02710
H          4.71070       -5.51730       -1.02400
H          6.51590       -4.07700       -2.00290
H          6.67530       -2.39560       -1.47460
H          5.54570       -2.55030       -3.68610
H          4.26320       -3.53480       -2.96910
H          4.47400       -1.85290       -2.47220
H          5.52770       -1.62470        0.50920
H          4.21730       -2.12530        2.50890
H          1.42700       -6.67530        3.91840
H          2.15450       -8.87440        4.69990
H          5.60800      -10.09470        4.53670
H          3.92460      -10.53790        4.85450
H          5.28320      -10.66110        6.93410
H          4.04870       -9.40430        7.07420
H          5.72440       -8.95920        6.75660
H          6.22790       -7.71190        4.21380
H          5.50500       -5.50860        3.42360
H          4.79580        1.73370        8.14570
H          1.72710       -0.25930       -2.18970
H          1.47050        0.47730       -0.59320
H          2.00960       -1.72090        0.48960
H          2.37760       -2.41120       -1.09040
H          0.72400       -1.91310       -0.71370
H          9.50830        7.25920       -2.64260
H          9.61920        5.59470       -3.27340
H          7.98010        7.86490       -4.50940
H          9.51840        7.24940       -5.13030
H          8.07790        6.21930       -5.13840
H         10.23820        5.88950        5.93770
H          5.64300        7.17320        1.82210
H          5.15580        8.22910       -0.73130
H          6.50440        9.51640       -2.55470
H         10.28750        8.93030        1.15170
