
  xtb     02032216103D
 energy: -312.539573862397 gnorm: 0.001394910256 xtb: 6.4.1 (unknown)
197217  0     0  0            999 V2000
    7.0774   -6.1517    6.0526 C   0  0  0  0  0  0  0  0  0  0  0  0
    7.8552   -5.5276    6.9740 C   0  0  0  0  0  0  0  0  0  0  0  0
    9.0310   -6.2443    7.5406 C   0  0  0  0  0  0  0  0  0  0  0  0
    9.2826   -7.4233    7.4272 O   0  0  0  0  0  0  0  0  0  0  0  0
    9.8295   -5.2070    8.2193 C   0  0  0  0  0  0  0  0  0  0  0  0
   11.0643   -5.3294    8.8087 C   0  0  0  0  0  0  0  0  0  0  0  0
   11.6366   -4.1844    9.3721 C   0  0  0  0  0  0  0  0  0  0  0  0
   12.8895   -4.0401   10.0328 C   0  0  0  0  0  0  0  0  0  0  0  0
   13.1173   -2.7746   10.4460 C   0  0  0  0  0  0  0  0  0  0  0  0
   11.8346   -1.6790   10.0627 S   0  0  0  0  0  0  0  0  0  0  0  0
   10.9324   -2.9584    9.3129 C   0  0  0  0  0  0  0  0  0  0  0  0
    9.6789   -2.8342    8.7255 C   0  0  0  0  0  0  0  0  0  0  0  0
    9.1264   -3.9753    8.1776 C   0  0  0  0  0  0  0  0  0  0  0  0
    7.8406   -4.1909    7.5272 C   0  0  0  0  0  0  0  0  0  0  0  0
    6.7609   -3.3481    7.5931 C   0  0  0  0  0  0  0  0  0  0  0  0
    5.4571   -3.6998    7.1901 C   0  0  0  0  0  0  0  0  0  0  0  0
    4.3632   -3.9426    6.9390 N   0  0  0  0  0  0  0  0  0  0  0  0
    6.8020   -2.0536    8.1477 C   0  0  0  0  0  0  0  0  0  0  0  0
    6.7820   -0.9810    8.5574 N   0  0  0  0  0  0  0  0  0  0  0  0
    6.1124   -5.6087    5.1431 C   0  0  0  0  0  0  0  0  0  0  0  0
    4.9543   -6.3532    4.8303 C   0  0  0  0  0  0  0  0  0  0  0  0
    4.5659   -7.6231    5.3397 C   0  0  0  0  0  0  0  0  0  0  0  0
    3.3747   -8.0593    4.8657 C   0  0  0  0  0  0  0  0  0  0  0  0
    2.6682   -9.3319    5.1804 C   0  0  0  0  0  0  0  0  0  0  0  0
    1.2909   -9.0737    5.7917 C   0  0  0  0  0  0  0  0  0  0  0  0
    2.6395   -6.9137    3.7772 S   0  0  0  0  0  0  0  0  0  0  0  0
    3.9805   -5.8187    3.9647 C   0  0  0  0  0  0  0  0  0  0  0  0
    4.1138   -4.5868    3.3252 C   0  0  0  0  0  0  0  0  0  0  0  0
    5.3002   -3.8748    3.5748 C   0  0  0  0  0  0  0  0  0  0  0  0
    6.2529   -4.3816    4.4856 C   0  0  0  0  0  0  0  0  0  0  0  0
    7.6209   -3.3133    4.6046 S   0  0  0  0  0  0  0  0  0  0  0  0
    6.8988   -2.1839    3.4830 C   0  0  0  0  0  0  0  0  0  0  0  0
    7.6315   -0.9388    3.1259 C   0  0  0  0  0  0  0  0  0  0  0  0
    8.8512   -1.2452    2.2550 C   0  0  0  0  0  0  0  0  0  0  0  0
    5.6970   -2.6118    3.0437 C   0  0  0  0  0  0  0  0  0  0  0  0
    3.0490   -4.0838    2.4883 C   0  0  0  0  0  0  0  0  0  0  0  0
    3.3501   -3.3167    0.9428 S   0  0  0  0  0  0  0  0  0  0  0  0
    1.6639   -3.0776    0.7196 C   0  0  0  0  0  0  0  0  0  0  0  0
    0.8209   -2.4278   -0.2383 C   0  0  0  0  0  0  0  0  0  0  0  0
   -0.5016   -2.5232    0.2537 C   0  0  0  0  0  0  0  0  0  0  0  0
   -0.5457   -3.3318    1.5406 C   0  0  0  0  0  0  0  0  0  0  0  0
   -1.2393   -2.5272    2.6190 C   0  0  0  0  0  0  0  0  0  0  0  0
   -0.5259   -1.6620    3.4365 C   0  0  0  0  0  0  0  0  0  0  0  0
   -1.1762   -0.9040    4.3928 C   0  0  0  0  0  0  0  0  0  0  0  0
   -2.5527   -0.9846    4.5527 C   0  0  0  0  0  0  0  0  0  0  0  0
   -3.2618   -0.1313    5.5648 C   0  0  0  0  0  0  0  0  0  0  0  0
   -3.6938    1.1957    4.9378 C   0  0  0  0  0  0  0  0  0  0  0  0
   -3.2642   -1.8406    3.7219 C   0  0  0  0  0  0  0  0  0  0  0  0
   -2.6187   -2.6022    2.7666 C   0  0  0  0  0  0  0  0  0  0  0  0
   -1.1674   -4.7081    1.3736 C   0  0  0  0  0  0  0  0  0  0  0  0
   -1.3777   -5.4897    2.5041 C   0  0  0  0  0  0  0  0  0  0  0  0
   -1.8752   -6.7723    2.3886 C   0  0  0  0  0  0  0  0  0  0  0  0
   -2.1719   -7.3121    1.1432 C   0  0  0  0  0  0  0  0  0  0  0  0
   -2.7522   -8.6920    1.0221 C   0  0  0  0  0  0  0  0  0  0  0  0
   -4.2789   -8.6414    1.1114 C   0  0  0  0  0  0  0  0  0  0  0  0
   -1.9599   -6.5278    0.0185 C   0  0  0  0  0  0  0  0  0  0  0  0
   -1.4576   -5.2430    0.1276 C   0  0  0  0  0  0  0  0  0  0  0  0
    0.9240   -3.5604    1.7807 C   0  0  0  0  0  0  0  0  0  0  0  0
    1.7049   -4.1489    2.7756 C   0  0  0  0  0  0  0  0  0  0  0  0
   -1.5374   -1.8750   -0.3779 C   0  0  0  0  0  0  0  0  0  0  0  0
   -1.2272   -1.1427   -1.5193 C   0  0  0  0  0  0  0  0  0  0  0  0
   -2.0318   -0.2860   -2.3371 C   0  0  0  0  0  0  0  0  0  0  0  0
   -1.2873    0.2560   -3.3659 C   0  0  0  0  0  0  0  0  0  0  0  0
    0.1299   -0.2567   -3.3131 C   0  0  0  0  0  0  0  0  0  0  0  0
    0.0837   -1.0977   -2.0453 C   0  0  0  0  0  0  0  0  0  0  0  0
    1.1208   -1.7433   -1.4119 C   0  0  0  0  0  0  0  0  0  0  0  0
    0.4782   -1.1890   -4.4594 C   0  0  0  0  0  0  0  0  0  0  0  0
    1.8079   -1.4694   -4.7499 C   0  0  0  0  0  0  0  0  0  0  0  0
    2.1342   -2.3523   -5.7613 C   0  0  0  0  0  0  0  0  0  0  0  0
    1.1453   -2.9855   -6.5037 C   0  0  0  0  0  0  0  0  0  0  0  0
    1.5043   -3.9062   -7.6345 C   0  0  0  0  0  0  0  0  0  0  0  0
    1.6976   -3.1138   -8.9289 C   0  0  0  0  0  0  0  0  0  0  0  0
   -0.1811   -2.7090   -6.2038 C   0  0  0  0  0  0  0  0  0  0  0  0
   -0.5130   -1.8264   -5.1922 C   0  0  0  0  0  0  0  0  0  0  0  0
    1.0550    0.9410   -3.2462 C   0  0  0  0  0  0  0  0  0  0  0  0
    1.4934    1.4561   -2.0350 C   0  0  0  0  0  0  0  0  0  0  0  0
    2.2918    2.5870   -2.0129 C   0  0  0  0  0  0  0  0  0  0  0  0
    2.6505    3.2142   -3.1913 C   0  0  0  0  0  0  0  0  0  0  0  0
    2.2079    2.7198   -4.4124 C   0  0  0  0  0  0  0  0  0  0  0  0
    2.5521    3.4256   -5.6933 C   0  0  0  0  0  0  0  0  0  0  0  0
    1.5908    4.5895   -5.9369 C   0  0  0  0  0  0  0  0  0  0  0  0
    1.4052    1.5898   -4.4241 C   0  0  0  0  0  0  0  0  0  0  0  0
   -1.9957    1.1925   -4.1230 C   0  0  0  0  0  0  0  0  0  0  0  0
   -3.2842    1.3556   -3.6701 C   0  0  0  0  0  0  0  0  0  0  0  0
   -3.6368    0.3188   -2.3015 S   0  0  0  0  0  0  0  0  0  0  0  0
   -4.2843    2.2957   -4.1260 C   0  0  0  0  0  0  0  0  0  0  0  0
   -3.9581    3.6408   -4.3830 C   0  0  0  0  0  0  0  0  0  0  0  0
   -2.6810    4.2711   -4.2979 C   0  0  0  0  0  0  0  0  0  0  0  0
   -2.6975    5.5805   -4.6306 C   0  0  0  0  0  0  0  0  0  0  0  0
   -1.5602    6.5410   -4.6670 C   0  0  0  0  0  0  0  0  0  0  0  0
   -1.2988    7.0495   -6.0853 C   0  0  0  0  0  0  0  0  0  0  0  0
   -4.2993    6.1297   -5.0533 S   0  0  0  0  0  0  0  0  0  0  0  0
   -4.9678    4.5597   -4.7471 C   0  0  0  0  0  0  0  0  0  0  0  0
   -6.3099    4.2017   -4.8993 C   0  0  0  0  0  0  0  0  0  0  0  0
   -6.6195    2.8381   -4.7050 C   0  0  0  0  0  0  0  0  0  0  0  0
   -5.6193    1.9342   -4.2944 C   0  0  0  0  0  0  0  0  0  0  0  0
   -6.2729    0.3330   -4.0796 S   0  0  0  0  0  0  0  0  0  0  0  0
   -7.8669    0.8839   -4.5192 C   0  0  0  0  0  0  0  0  0  0  0  0
   -8.9956   -0.0855   -4.5614 C   0  0  0  0  0  0  0  0  0  0  0  0
   -8.8574   -1.0435   -5.7464 C   0  0  0  0  0  0  0  0  0  0  0  0
   -7.8894    2.2062   -4.8097 C   0  0  0  0  0  0  0  0  0  0  0  0
   -7.3500    5.1142   -5.2833 C   0  0  0  0  0  0  0  0  0  0  0  0
   -7.5473    6.3712   -4.8056 C   0  0  0  0  0  0  0  0  0  0  0  0
   -6.9245    6.9201   -3.5739 C   0  0  0  0  0  0  0  0  0  0  0  0
   -6.1061    6.3708   -2.8648 O   0  0  0  0  0  0  0  0  0  0  0  0
   -7.5682    8.2272   -3.3512 C   0  0  0  0  0  0  0  0  0  0  0  0
   -8.5027    8.4667   -4.3572 C   0  0  0  0  0  0  0  0  0  0  0  0
   -9.2380    9.6606   -4.3718 C   0  0  0  0  0  0  0  0  0  0  0  0
   -9.0231   10.5816   -3.3803 C   0  0  0  0  0  0  0  0  0  0  0  0
   -8.0914   10.3632   -2.3423 C   0  0  0  0  0  0  0  0  0  0  0  0
   -7.8824   11.3134   -1.3221 C   0  0  0  0  0  0  0  0  0  0  0  0
   -6.9785   11.0763   -0.3234 C   0  0  0  0  0  0  0  0  0  0  0  0
   -6.2402    9.8820   -0.3001 C   0  0  0  0  0  0  0  0  0  0  0  0
   -6.4120    8.9378   -1.2742 C   0  0  0  0  0  0  0  0  0  0  0  0
   -7.3389    9.1532   -2.3149 C   0  0  0  0  0  0  0  0  0  0  0  0
   -8.5295    7.3320   -5.2742 C   0  0  0  0  0  0  0  0  0  0  0  0
   -9.3159    7.2224   -6.3905 C   0  0  0  0  0  0  0  0  0  0  0  0
   -9.3158    6.1310   -7.2851 C   0  0  0  0  0  0  0  0  0  0  0  0
   -9.3774    5.2859   -8.0608 N   0  0  0  0  0  0  0  0  0  0  0  0
  -10.2536    8.1896   -6.8103 C   0  0  0  0  0  0  0  0  0  0  0  0
  -11.0401    8.9236   -7.2120 N   0  0  0  0  0  0  0  0  0  0  0  0
    7.2495   -7.2211    5.9718 H   0  0  0  0  0  0  0  0  0  0  0  0
   11.5742   -6.2801    8.8341 H   0  0  0  0  0  0  0  0  0  0  0  0
   13.5744   -4.8550   10.1826 H   0  0  0  0  0  0  0  0  0  0  0  0
   13.9763   -2.3959   10.9650 H   0  0  0  0  0  0  0  0  0  0  0  0
    9.1806   -1.8793    8.6992 H   0  0  0  0  0  0  0  0  0  0  0  0
    5.1570   -8.1882    6.0376 H   0  0  0  0  0  0  0  0  0  0  0  0
    2.5465   -9.9132    4.2619 H   0  0  0  0  0  0  0  0  0  0  0  0
    3.2815   -9.9125    5.8723 H   0  0  0  0  0  0  0  0  0  0  0  0
    1.3864   -8.4972    6.7089 H   0  0  0  0  0  0  0  0  0  0  0  0
    0.7989  -10.0154    6.0215 H   0  0  0  0  0  0  0  0  0  0  0  0
    0.6698   -8.5154    5.0948 H   0  0  0  0  0  0  0  0  0  0  0  0
    7.9590   -0.4346    4.0388 H   0  0  0  0  0  0  0  0  0  0  0  0
    6.9515   -0.2734    2.5905 H   0  0  0  0  0  0  0  0  0  0  0  0
    9.3739   -0.3263    2.0027 H   0  0  0  0  0  0  0  0  0  0  0  0
    8.5436   -1.7360    1.3344 H   0  0  0  0  0  0  0  0  0  0  0  0
    9.5377   -1.9018    2.7852 H   0  0  0  0  0  0  0  0  0  0  0  0
    5.0953   -2.0434    2.3590 H   0  0  0  0  0  0  0  0  0  0  0  0
    0.5464   -1.5829    3.3313 H   0  0  0  0  0  0  0  0  0  0  0  0
   -0.6030   -0.2428    5.0271 H   0  0  0  0  0  0  0  0  0  0  0  0
   -4.1435   -0.6559    5.9389 H   0  0  0  0  0  0  0  0  0  0  0  0
   -2.5991    0.0685    6.4093 H   0  0  0  0  0  0  0  0  0  0  0  0
   -2.8272    1.7373    4.5651 H   0  0  0  0  0  0  0  0  0  0  0  0
   -4.3694    1.0185    4.1039 H   0  0  0  0  0  0  0  0  0  0  0  0
   -4.2025    1.8162    5.6719 H   0  0  0  0  0  0  0  0  0  0  0  0
   -4.3374   -1.9157    3.8274 H   0  0  0  0  0  0  0  0  0  0  0  0
   -3.1889   -3.2714    2.1379 H   0  0  0  0  0  0  0  0  0  0  0  0
   -1.1554   -5.0855    3.4808 H   0  0  0  0  0  0  0  0  0  0  0  0
   -2.0313   -7.3663    3.2782 H   0  0  0  0  0  0  0  0  0  0  0  0
   -2.3664   -9.3273    1.8221 H   0  0  0  0  0  0  0  0  0  0  0  0
   -2.4624   -9.1325    0.0659 H   0  0  0  0  0  0  0  0  0  0  0  0
   -4.7000   -9.6394    1.0138 H   0  0  0  0  0  0  0  0  0  0  0  0
   -4.6827   -8.0147    0.3196 H   0  0  0  0  0  0  0  0  0  0  0  0
   -4.5881   -8.2255    2.0677 H   0  0  0  0  0  0  0  0  0  0  0  0
   -2.1833   -6.9279   -0.9606 H   0  0  0  0  0  0  0  0  0  0  0  0
   -1.2917   -4.6574   -0.7649 H   0  0  0  0  0  0  0  0  0  0  0  0
    1.3261   -4.5502    3.6970 H   0  0  0  0  0  0  0  0  0  0  0  0
   -2.5469   -1.9062    0.0023 H   0  0  0  0  0  0  0  0  0  0  0  0
    2.1338   -1.6992   -1.7819 H   0  0  0  0  0  0  0  0  0  0  0  0
    2.5934   -0.9841   -4.1886 H   0  0  0  0  0  0  0  0  0  0  0  0
    3.1738   -2.5560   -5.9759 H   0  0  0  0  0  0  0  0  0  0  0  0
    0.7109   -4.6421   -7.7785 H   0  0  0  0  0  0  0  0  0  0  0  0
    2.4271   -4.4403   -7.3988 H   0  0  0  0  0  0  0  0  0  0  0  0
    2.4964   -2.3850   -8.8107 H   0  0  0  0  0  0  0  0  0  0  0  0
    0.7844   -2.5814   -9.1854 H   0  0  0  0  0  0  0  0  0  0  0  0
    1.9537   -3.7799   -9.7496 H   0  0  0  0  0  0  0  0  0  0  0  0
   -0.9674   -3.1922   -6.7664 H   0  0  0  0  0  0  0  0  0  0  0  0
   -1.5531   -1.6321   -4.9750 H   0  0  0  0  0  0  0  0  0  0  0  0
    1.2145    0.9750   -1.1095 H   0  0  0  0  0  0  0  0  0  0  0  0
    2.6356    2.9795   -1.0669 H   0  0  0  0  0  0  0  0  0  0  0  0
    3.2787    4.0934   -3.1666 H   0  0  0  0  0  0  0  0  0  0  0  0
    3.5734    3.8088   -5.6413 H   0  0  0  0  0  0  0  0  0  0  0  0
    2.4915    2.7259   -6.5291 H   0  0  0  0  0  0  0  0  0  0  0  0
    1.6582    5.3099   -5.1254 H   0  0  0  0  0  0  0  0  0  0  0  0
    0.5665    4.2273   -5.9911 H   0  0  0  0  0  0  0  0  0  0  0  0
    1.8307    5.0956   -6.8692 H   0  0  0  0  0  0  0  0  0  0  0  0
    1.0558    1.1969   -5.3691 H   0  0  0  0  0  0  0  0  0  0  0  0
   -1.6058    1.7075   -4.9822 H   0  0  0  0  0  0  0  0  0  0  0  0
   -1.7904    3.7616   -3.9772 H   0  0  0  0  0  0  0  0  0  0  0  0
   -0.6701    6.0430   -4.2777 H   0  0  0  0  0  0  0  0  0  0  0  0
   -1.7873    7.3926   -4.0198 H   0  0  0  0  0  0  0  0  0  0  0  0
   -1.0668    6.2203   -6.7495 H   0  0  0  0  0  0  0  0  0  0  0  0
   -2.1777    7.5633   -6.4679 H   0  0  0  0  0  0  0  0  0  0  0  0
   -0.4608    7.7417   -6.0893 H   0  0  0  0  0  0  0  0  0  0  0  0
   -9.9336    0.4678   -4.6410 H   0  0  0  0  0  0  0  0  0  0  0  0
   -9.0135   -0.6635   -3.6341 H   0  0  0  0  0  0  0  0  0  0  0  0
   -7.9244   -1.5984   -5.6755 H   0  0  0  0  0  0  0  0  0  0  0  0
   -8.8611   -0.4894   -6.6820 H   0  0  0  0  0  0  0  0  0  0  0  0
   -9.6832   -1.7498   -5.7563 H   0  0  0  0  0  0  0  0  0  0  0  0
   -8.7893    2.7222   -5.0931 H   0  0  0  0  0  0  0  0  0  0  0  0
   -8.0590    4.7206   -6.0007 H   0  0  0  0  0  0  0  0  0  0  0  0
   -9.9617    9.8574   -5.1451 H   0  0  0  0  0  0  0  0  0  0  0  0
   -9.5810   11.5072   -3.3807 H   0  0  0  0  0  0  0  0  0  0  0  0
   -8.4516   12.2316   -1.3440 H   0  0  0  0  0  0  0  0  0  0  0  0
   -6.8266   11.8079    0.4566 H   0  0  0  0  0  0  0  0  0  0  0  0
   -5.5328    9.7145    0.4985 H   0  0  0  0  0  0  0  0  0  0  0  0
   -5.8513    8.0166   -1.2653 H   0  0  0  0  0  0  0  0  0  0  0  0
  1  2  2  0  0  0  0
  2  3  1  0  0  0  0
  3  4  2  0  0  0  0
  3  5  1  0  0  0  0
  5  6  2  0  0  0  0
  6  7  1  0  0  0  0
  7  8  1  0  0  0  0
  8  9  2  0  0  0  0
  9 10  1  0  0  0  0
 10 11  1  0  0  0  0
 11 12  1  0  0  0  0
 12 13  2  0  0  0  0
 13 14  1  0  0  0  0
 14 15  2  0  0  0  0
 15 16  1  0  0  0  0
 16 17  3  0  0  0  0
 15 18  1  0  0  0  0
 18 19  3  0  0  0  0
  1 20  1  0  0  0  0
 20 21  2  0  0  0  0
 21 22  1  0  0  0  0
 22 23  2  0  0  0  0
 23 24  1  0  0  0  0
 24 25  1  0  0  0  0
 23 26  1  0  0  0  0
 26 27  1  0  0  0  0
 27 28  2  0  0  0  0
 28 29  1  0  0  0  0
 29 30  2  0  0  0  0
 30 31  1  0  0  0  0
 31 32  1  0  0  0  0
 32 33  1  0  0  0  0
 33 34  1  0  0  0  0
 32 35  2  0  0  0  0
 28 36  1  0  0  0  0
 36 37  1  0  0  0  0
 37 38  1  0  0  0  0
 38 39  1  0  0  0  0
 39 40  2  0  0  0  0
 40 41  1  0  0  0  0
 41 42  1  0  0  0  0
 42 43  2  0  0  0  0
 43 44  1  0  0  0  0
 44 45  2  0  0  0  0
 45 46  1  0  0  0  0
 46 47  1  0  0  0  0
 45 48  1  0  0  0  0
 48 49  2  0  0  0  0
 41 50  1  0  0  0  0
 50 51  2  0  0  0  0
 51 52  1  0  0  0  0
 52 53  2  0  0  0  0
 53 54  1  0  0  0  0
 54 55  1  0  0  0  0
 53 56  1  0  0  0  0
 56 57  2  0  0  0  0
 41 58  1  0  0  0  0
 58 59  1  0  0  0  0
 40 60  1  0  0  0  0
 60 61  2  0  0  0  0
 61 62  1  0  0  0  0
 62 63  2  0  0  0  0
 63 64  1  0  0  0  0
 64 65  1  0  0  0  0
 65 66  2  0  0  0  0
 64 67  1  0  0  0  0
 67 68  2  0  0  0  0
 68 69  1  0  0  0  0
 69 70  2  0  0  0  0
 70 71  1  0  0  0  0
 71 72  1  0  0  0  0
 70 73  1  0  0  0  0
 73 74  2  0  0  0  0
 64 75  1  0  0  0  0
 75 76  2  0  0  0  0
 76 77  1  0  0  0  0
 77 78  2  0  0  0  0
 78 79  1  0  0  0  0
 79 80  1  0  0  0  0
 80 81  1  0  0  0  0
 79 82  2  0  0  0  0
 63 83  1  0  0  0  0
 83 84  2  0  0  0  0
 84 85  1  0  0  0  0
 84 86  1  0  0  0  0
 86 87  2  0  0  0  0
 87 88  1  0  0  0  0
 88 89  2  0  0  0  0
 89 90  1  0  0  0  0
 90 91  1  0  0  0  0
 89 92  1  0  0  0  0
 92 93  1  0  0  0  0
 93 94  2  0  0  0  0
 94 95  1  0  0  0  0
 95 96  2  0  0  0  0
 96 97  1  0  0  0  0
 97 98  1  0  0  0  0
 98 99  1  0  0  0  0
 99100  1  0  0  0  0
 98101  2  0  0  0  0
 94102  1  0  0  0  0
102103  2  0  0  0  0
103104  1  0  0  0  0
104105  2  0  0  0  0
104106  1  0  0  0  0
106107  2  0  0  0  0
107108  1  0  0  0  0
108109  2  0  0  0  0
109110  1  0  0  0  0
110111  2  0  0  0  0
111112  1  0  0  0  0
112113  2  0  0  0  0
113114  1  0  0  0  0
114115  2  0  0  0  0
107116  1  0  0  0  0
116117  2  0  0  0  0
117118  1  0  0  0  0
118119  3  0  0  0  0
117120  1  0  0  0  0
120121  3  0  0  0  0
 14  2  1  0  0  0  0
 30 20  1  0  0  0  0
 59 36  2  0  0  0  0
 65 61  1  0  0  0  0
 74 67  1  0  0  0  0
 82 75  1  0  0  0  0
 96 86  1  0  0  0  0
116103  1  0  0  0  0
 13  5  1  0  0  0  0
 27 21  1  0  0  0  0
 35 29  1  0  0  0  0
 58 38  2  0  0  0  0
 85 62  1  0  0  0  0
 93 87  1  0  0  0  0
101 95  1  0  0  0  0
115106  1  0  0  0  0
 11  7  2  0  0  0  0
 66 39  1  0  0  0  0
115110  1  0  0  0  0
 49 42  1  0  0  0  0
 57 50  1  0  0  0  0
  1122  1  0  0  0  0
  6123  1  0  0  0  0
  8124  1  0  0  0  0
  9125  1  0  0  0  0
 12126  1  0  0  0  0
 22127  1  0  0  0  0
 24128  1  0  0  0  0
 24129  1  0  0  0  0
 25130  1  0  0  0  0
 25131  1  0  0  0  0
 25132  1  0  0  0  0
 33133  1  0  0  0  0
 33134  1  0  0  0  0
 34135  1  0  0  0  0
 34136  1  0  0  0  0
 34137  1  0  0  0  0
 35138  1  0  0  0  0
 43139  1  0  0  0  0
 44140  1  0  0  0  0
 46141  1  0  0  0  0
 46142  1  0  0  0  0
 47143  1  0  0  0  0
 47144  1  0  0  0  0
 47145  1  0  0  0  0
 48146  1  0  0  0  0
 49147  1  0  0  0  0
 51148  1  0  0  0  0
 52149  1  0  0  0  0
 54150  1  0  0  0  0
 54151  1  0  0  0  0
 55152  1  0  0  0  0
 55153  1  0  0  0  0
 55154  1  0  0  0  0
 56155  1  0  0  0  0
 57156  1  0  0  0  0
 59157  1  0  0  0  0
 60158  1  0  0  0  0
 66159  1  0  0  0  0
 68160  1  0  0  0  0
 69161  1  0  0  0  0
 71162  1  0  0  0  0
 71163  1  0  0  0  0
 72164  1  0  0  0  0
 72165  1  0  0  0  0
 72166  1  0  0  0  0
 73167  1  0  0  0  0
 74168  1  0  0  0  0
 76169  1  0  0  0  0
 77170  1  0  0  0  0
 78171  1  0  0  0  0
 80172  1  0  0  0  0
 80173  1  0  0  0  0
 81174  1  0  0  0  0
 81175  1  0  0  0  0
 81176  1  0  0  0  0
 82177  1  0  0  0  0
 83178  1  0  0  0  0
 88179  1  0  0  0  0
 90180  1  0  0  0  0
 90181  1  0  0  0  0
 91182  1  0  0  0  0
 91183  1  0  0  0  0
 91184  1  0  0  0  0
 99185  1  0  0  0  0
 99186  1  0  0  0  0
100187  1  0  0  0  0
100188  1  0  0  0  0
100189  1  0  0  0  0
101190  1  0  0  0  0
102191  1  0  0  0  0
108192  1  0  0  0  0
109193  1  0  0  0  0
111194  1  0  0  0  0
112195  1  0  0  0  0
113196  1  0  0  0  0
114197  1  0  0  0  0
M  END
