213

C         -6.47450       -7.30160       -8.82710
C         -6.76880       -7.83170      -10.05570
C         -5.93180       -7.97780      -11.26560
O         -4.74020       -7.78320      -11.41260
C         -6.84800       -8.40290      -12.34300
C         -6.53970       -8.62710      -13.66250
C         -7.57650       -9.01630      -14.51660
C         -7.52110       -9.30730      -15.90730
C         -8.73390       -9.65000      -16.40210
Br        -9.11850      -10.11130      -18.17940
S        -10.01500       -9.64100      -15.21940
C         -8.88300       -9.15710      -13.99240
C         -9.19250       -8.93240      -12.65680
C         -8.15500       -8.55340      -11.82500
C         -8.12000       -8.25710      -10.39800
C         -9.17570       -8.43500       -9.53980
C         -9.16980       -8.27290       -8.13770
N         -9.29140       -8.20900       -6.99640
C        -10.45660       -8.86350       -9.94810
N        -11.52210       -9.20250      -10.20970
C         -5.27770       -6.89340       -8.17710
C         -3.98300       -7.09280       -8.67930
C         -2.85320       -6.76650       -7.95920
O         -1.58360       -6.85640       -8.42430
C         -1.34840       -7.28190       -9.75570
C         -1.38930       -8.79680       -9.91720
C         -3.00380       -6.24120       -6.65110
C         -4.28460       -5.98870       -6.16200
C         -5.42050       -6.29280       -6.89120
O         -6.67720       -6.05770       -6.46840
C         -6.91710       -5.61730       -5.14330
C         -8.42500       -5.57600       -4.95470
C         -1.85960       -5.90950       -5.83660
C         -0.66330       -6.57870       -5.68530
C         -0.36380       -7.91280       -6.20190
C         -1.32150       -8.92300       -6.15280
C         -0.99920      -10.19810       -6.57400
C          0.27390      -10.47990       -7.04140
C          1.24020       -9.48350       -7.09930
C          2.63850       -9.78480       -7.55560
C          3.54430      -10.03660       -6.34850
C          0.91010       -8.20550       -6.67410
C          0.21210       -5.87740       -4.82690
S          1.81940       -6.22050       -4.23140
C          1.75310       -4.77810       -3.27630
C          2.55360       -4.05490       -2.37310
C          3.88570       -4.23370       -1.94150
C          4.45770       -3.27850       -1.03280
N          5.72550       -3.54050       -0.75650
S          6.16140       -4.87600       -1.56280
N          4.74930       -5.17190       -2.29720
C          3.63200       -2.26690       -0.49570
C          3.83820       -1.35710        0.55570
S          5.09010       -0.87010        1.64570
C          3.95830        0.18560        2.45850
C          4.11190        1.13210        3.50890
C          5.32710        1.19580        4.32550
C          6.05360        0.01970        4.52280
C          7.21200        0.02490        5.27340
C          7.67160        1.19970        5.84010
C          6.95290        2.37710        5.68240
C          7.46800        3.66220        6.26520
C          8.31300        4.41670        5.23720
C          5.78300        2.36020        4.93640
C          2.94880        1.84950        3.68370
S          1.62860        1.25960        2.66950
C          2.69060        0.15370        1.88600
C          2.61720       -0.72830        0.79860
N          1.67270       -1.18590       -0.08110
C          2.27500       -2.12640       -0.89630
C          1.77950       -2.94290       -1.94440
N          0.56600       -2.95700       -2.61680
C          0.55520       -4.07630       -3.41200
C         -0.32430       -4.70080       -4.30500
S         -1.92770       -4.43200       -4.88560
C         -0.25340       -1.83170       -3.01240
C          0.18490       -1.28040       -4.36960
C          0.27290       -0.90960        0.14600
C         -0.11110        0.50400       -0.29410
C          2.61420        3.02670        4.44390
C          3.05000        4.32800        4.23570
N          4.04910        4.70230        3.35500
C          4.22810        3.96450        2.16550
C          5.48160        3.47330        1.81180
C          5.62560        2.69630        0.68080
C          4.53530        2.39570       -0.12920
C          4.70360        1.53420       -1.34270
C          3.29740        2.92330        0.21060
C          3.13910        3.69980        1.34310
C          4.90650        5.76840        3.65370
C          5.49580        6.49800        2.62240
C          6.35380        7.53850        2.90940
C          6.64360        7.89490        4.22270
C          7.56940        9.03610        4.51230
C          6.04830        7.16950        5.24380
C          5.19700        6.11600        4.97060
C          2.29920        5.24000        5.01920
S          2.26740        6.96140        5.12470
C          0.92070        6.89130        6.27370
C          0.46670        5.56760        6.47190
N         -0.67330        5.18240        7.11150
C         -1.78820        6.02010        7.25550
C         -2.19410        6.86880        6.22610
C         -3.27130        7.71010        6.40520
C         -3.97690        7.73480        7.60660
C         -5.10680        8.69570        7.80130
C         -3.59430        6.85490        8.60990
C         -2.51780        6.00360        8.44230
C         -0.76560        3.86980        7.62460
C          0.27010        3.33850        8.38710
C          0.16870        2.05430        8.88160
C         -0.95770        1.27620        8.63490
C         -1.04100       -0.12430        9.15800
C         -1.99120        1.82440        7.88520
C         -1.90290        3.10800        7.38190
C          1.29620        4.65500        5.77850
S          1.24770        2.94090        5.54560
C          0.47440        8.10590        6.78980
C         -0.23780        8.27560        7.96250
C         -0.14890        7.36270        9.10850
O          0.50530        6.33920        9.19510
C         -0.92050        8.01040       10.19310
C         -1.13840        7.55650       11.46850
C         -1.92960        8.34350       12.31470
C         -2.30970        8.09140       13.66180
C         -3.08410        9.08170       14.16420
Br        -3.80600        9.15840       15.89500
S         -3.40090       10.37670       13.04110
C         -2.45450        9.56260       11.83080
C         -2.22620       10.02590       10.53960
C         -1.45280        9.23250        9.71730
C         -1.05180        9.39860        8.32360
C         -1.51680       10.36430        7.46150
C         -1.22390       10.39340        6.08470
N         -1.05440       10.45770        4.95000
C         -2.41110       11.38400        7.83040
N         -3.15710       12.22260        8.07800
H         -7.33650       -7.15850       -8.18620
H         -5.53040       -8.50580      -14.02380
H         -6.62360       -9.26120      -16.49680
H        -10.20510       -9.05080      -12.30990
H         -3.89640       -7.50480       -9.66830
H         -2.05400       -6.80090      -10.44230
H         -0.34110       -6.91610       -9.97460
H         -0.65810       -9.26100       -9.26080
H         -1.15960       -9.05250      -10.94760
H         -2.37230       -9.18910       -9.67190
H         -4.36870       -5.55610       -5.17680
H         -6.46130       -6.31800       -4.43150
H         -6.47800       -4.62160       -4.99200
H         -8.66350       -5.33290       -3.92360
H         -8.84980       -6.54380       -5.20760
H         -8.86320       -4.82710       -5.60870
H         -2.30930       -8.70890       -5.77140
H         -1.74310      -10.98050       -6.53380
H          0.51860      -11.48170       -7.36500
H          3.03030       -8.94120       -8.12780
H          2.63920      -10.66610       -8.20020
H          3.56050       -9.16430       -5.69910
H          4.56030      -10.24900       -6.67280
H          3.17880      -10.88430       -5.77290
H          1.65120       -7.42150       -6.72550
H          5.70050       -0.91100        4.10870
H          7.75960       -0.89500        5.41540
H          8.58560        1.20260        6.41620
H          6.63490        4.29460        6.57420
H          8.07930        3.44810        7.14410
H          8.70170        5.33690        5.66670
H          9.14950        3.80260        4.91060
H          7.71330        4.67620        4.36770
H          5.23050        3.27520        4.82640
H         -0.17700       -1.04190       -2.27550
H         -1.29130       -2.17470       -3.06970
H          0.07680       -2.03210       -5.14660
H         -0.42850       -0.42260       -4.63160
H          1.22690       -0.96920       -4.33030
H          0.08710       -0.99730        1.22270
H         -0.32580       -1.67170       -0.35440
H          0.35770        1.23460        0.35930
H         -1.18850        0.62990       -0.23270
H          0.21040        0.70940       -1.31320
H          6.33500        3.68470        2.43810
H          6.59810        2.29840        0.43120
H          5.14750        2.11070       -2.15480
H          5.36390        0.69570       -1.12990
H          3.74520        1.14800       -1.68230
H          2.44000        2.72060       -0.41560
H          2.16810        4.09790        1.60140
H          5.27460        6.24330        1.59660
H          6.80320        8.09230        2.09790
H          8.50670        8.91560        3.97120
H          7.78500        9.10230        5.57570
H          7.12010        9.97630        4.19300
H          6.25780        7.42170        6.27330
H          4.76450        5.55650        5.78700
H         -1.66130        6.87000        5.28700
H         -3.56810        8.36720        5.60080
H         -4.72370        9.71180        7.90250
H         -5.77520        8.68170        6.94270
H         -5.67470        8.45450        8.69610
H         -4.13600        6.84180        9.54460
H         -2.22690        5.32980        9.23410
H          1.12870        3.95330        8.60720
H          0.97440        1.64900        9.47600
H         -0.65320       -0.18080       10.17300
H         -2.06670       -0.48410        9.15090
H         -0.44150       -0.78860        8.53510
H         -2.87700        1.23850        7.68740
H         -2.71030        3.52390        6.79690
H          0.75570        8.98750        6.22610
H         -0.72060        6.62070       11.80560
H         -2.01620        7.21930       14.21710
H         -2.63980       10.96750       10.21870
