
  xtb     02272210163D
 energy: -361.531178937100 gnorm: 0.000619507011 xtb: 6.4.1 (unknown)
213235  0     0  0            999 V2000
   -6.4745   -7.3016   -8.8271 C   0  0  0  0  0  0  0  0  0  0  0  0
   -6.7688   -7.8317  -10.0557 C   0  0  0  0  0  0  0  0  0  0  0  0
   -5.9318   -7.9778  -11.2656 C   0  0  0  0  0  0  0  0  0  0  0  0
   -4.7402   -7.7832  -11.4126 O   0  0  0  0  0  0  0  0  0  0  0  0
   -6.8480   -8.4029  -12.3430 C   0  0  0  0  0  0  0  0  0  0  0  0
   -6.5397   -8.6271  -13.6625 C   0  0  0  0  0  0  0  0  0  0  0  0
   -7.5765   -9.0163  -14.5166 C   0  0  0  0  0  0  0  0  0  0  0  0
   -7.5211   -9.3073  -15.9073 C   0  0  0  0  0  0  0  0  0  0  0  0
   -8.7339   -9.6500  -16.4021 C   0  0  0  0  0  0  0  0  0  0  0  0
   -9.1185  -10.1113  -18.1794 Br  0  0  0  0  0  0  0  0  0  0  0  0
  -10.0150   -9.6410  -15.2194 S   0  0  0  0  0  0  0  0  0  0  0  0
   -8.8830   -9.1571  -13.9924 C   0  0  0  0  0  0  0  0  0  0  0  0
   -9.1925   -8.9324  -12.6568 C   0  0  0  0  0  0  0  0  0  0  0  0
   -8.1550   -8.5534  -11.8250 C   0  0  0  0  0  0  0  0  0  0  0  0
   -8.1200   -8.2571  -10.3980 C   0  0  0  0  0  0  0  0  0  0  0  0
   -9.1757   -8.4350   -9.5398 C   0  0  0  0  0  0  0  0  0  0  0  0
   -9.1698   -8.2729   -8.1377 C   0  0  0  0  0  0  0  0  0  0  0  0
   -9.2914   -8.2090   -6.9964 N   0  0  0  0  0  0  0  0  0  0  0  0
  -10.4566   -8.8635   -9.9481 C   0  0  0  0  0  0  0  0  0  0  0  0
  -11.5221   -9.2025  -10.2097 N   0  0  0  0  0  0  0  0  0  0  0  0
   -5.2777   -6.8934   -8.1771 C   0  0  0  0  0  0  0  0  0  0  0  0
   -3.9830   -7.0928   -8.6793 C   0  0  0  0  0  0  0  0  0  0  0  0
   -2.8532   -6.7665   -7.9592 C   0  0  0  0  0  0  0  0  0  0  0  0
   -1.5836   -6.8564   -8.4243 O   0  0  0  0  0  0  0  0  0  0  0  0
   -1.3484   -7.2819   -9.7557 C   0  0  0  0  0  0  0  0  0  0  0  0
   -1.3893   -8.7968   -9.9172 C   0  0  0  0  0  0  0  0  0  0  0  0
   -3.0038   -6.2412   -6.6511 C   0  0  0  0  0  0  0  0  0  0  0  0
   -4.2846   -5.9887   -6.1620 C   0  0  0  0  0  0  0  0  0  0  0  0
   -5.4205   -6.2928   -6.8912 C   0  0  0  0  0  0  0  0  0  0  0  0
   -6.6772   -6.0577   -6.4684 O   0  0  0  0  0  0  0  0  0  0  0  0
   -6.9171   -5.6173   -5.1433 C   0  0  0  0  0  0  0  0  0  0  0  0
   -8.4250   -5.5760   -4.9547 C   0  0  0  0  0  0  0  0  0  0  0  0
   -1.8596   -5.9095   -5.8366 C   0  0  0  0  0  0  0  0  0  0  0  0
   -0.6633   -6.5787   -5.6853 C   0  0  0  0  0  0  0  0  0  0  0  0
   -0.3638   -7.9128   -6.2019 C   0  0  0  0  0  0  0  0  0  0  0  0
   -1.3215   -8.9230   -6.1528 C   0  0  0  0  0  0  0  0  0  0  0  0
   -0.9992  -10.1981   -6.5740 C   0  0  0  0  0  0  0  0  0  0  0  0
    0.2739  -10.4799   -7.0414 C   0  0  0  0  0  0  0  0  0  0  0  0
    1.2402   -9.4835   -7.0993 C   0  0  0  0  0  0  0  0  0  0  0  0
    2.6385   -9.7848   -7.5556 C   0  0  0  0  0  0  0  0  0  0  0  0
    3.5443  -10.0366   -6.3485 C   0  0  0  0  0  0  0  0  0  0  0  0
    0.9101   -8.2055   -6.6741 C   0  0  0  0  0  0  0  0  0  0  0  0
    0.2121   -5.8774   -4.8269 C   0  0  0  0  0  0  0  0  0  0  0  0
    1.8194   -6.2205   -4.2314 S   0  0  0  0  0  0  0  0  0  0  0  0
    1.7531   -4.7781   -3.2763 C   0  0  0  0  0  0  0  0  0  0  0  0
    2.5536   -4.0549   -2.3731 C   0  0  0  0  0  0  0  0  0  0  0  0
    3.8857   -4.2337   -1.9415 C   0  0  0  0  0  0  0  0  0  0  0  0
    4.4577   -3.2785   -1.0328 C   0  0  0  0  0  0  0  0  0  0  0  0
    5.7255   -3.5405   -0.7565 N   0  0  0  0  0  0  0  0  0  0  0  0
    6.1614   -4.8760   -1.5628 S   0  0  0  0  0  0  0  0  0  0  0  0
    4.7493   -5.1719   -2.2972 N   0  0  0  0  0  0  0  0  0  0  0  0
    3.6320   -2.2669   -0.4957 C   0  0  0  0  0  0  0  0  0  0  0  0
    3.8382   -1.3571    0.5557 C   0  0  0  0  0  0  0  0  0  0  0  0
    5.0901   -0.8701    1.6457 S   0  0  0  0  0  0  0  0  0  0  0  0
    3.9583    0.1856    2.4585 C   0  0  0  0  0  0  0  0  0  0  0  0
    4.1119    1.1321    3.5089 C   0  0  0  0  0  0  0  0  0  0  0  0
    5.3271    1.1958    4.3255 C   0  0  0  0  0  0  0  0  0  0  0  0
    6.0536    0.0197    4.5228 C   0  0  0  0  0  0  0  0  0  0  0  0
    7.2120    0.0249    5.2734 C   0  0  0  0  0  0  0  0  0  0  0  0
    7.6716    1.1997    5.8401 C   0  0  0  0  0  0  0  0  0  0  0  0
    6.9529    2.3771    5.6824 C   0  0  0  0  0  0  0  0  0  0  0  0
    7.4680    3.6622    6.2652 C   0  0  0  0  0  0  0  0  0  0  0  0
    8.3130    4.4167    5.2372 C   0  0  0  0  0  0  0  0  0  0  0  0
    5.7830    2.3602    4.9364 C   0  0  0  0  0  0  0  0  0  0  0  0
    2.9488    1.8495    3.6837 C   0  0  0  0  0  0  0  0  0  0  0  0
    1.6286    1.2596    2.6695 S   0  0  0  0  0  0  0  0  0  0  0  0
    2.6906    0.1537    1.8860 C   0  0  0  0  0  0  0  0  0  0  0  0
    2.6172   -0.7283    0.7986 C   0  0  0  0  0  0  0  0  0  0  0  0
    1.6727   -1.1859   -0.0811 N   0  0  0  0  0  0  0  0  0  0  0  0
    2.2750   -2.1264   -0.8963 C   0  0  0  0  0  0  0  0  0  0  0  0
    1.7795   -2.9429   -1.9444 C   0  0  0  0  0  0  0  0  0  0  0  0
    0.5660   -2.9570   -2.6168 N   0  0  0  0  0  0  0  0  0  0  0  0
    0.5552   -4.0763   -3.4120 C   0  0  0  0  0  0  0  0  0  0  0  0
   -0.3243   -4.7008   -4.3050 C   0  0  0  0  0  0  0  0  0  0  0  0
   -1.9277   -4.4320   -4.8856 S   0  0  0  0  0  0  0  0  0  0  0  0
   -0.2534   -1.8317   -3.0124 C   0  0  0  0  0  0  0  0  0  0  0  0
    0.1849   -1.2804   -4.3696 C   0  0  0  0  0  0  0  0  0  0  0  0
    0.2729   -0.9096    0.1460 C   0  0  0  0  0  0  0  0  0  0  0  0
   -0.1111    0.5040   -0.2941 C   0  0  0  0  0  0  0  0  0  0  0  0
    2.6142    3.0267    4.4439 C   0  0  0  0  0  0  0  0  0  0  0  0
    3.0500    4.3280    4.2357 C   0  0  0  0  0  0  0  0  0  0  0  0
    4.0491    4.7023    3.3550 N   0  0  0  0  0  0  0  0  0  0  0  0
    4.2281    3.9645    2.1655 C   0  0  0  0  0  0  0  0  0  0  0  0
    5.4816    3.4733    1.8118 C   0  0  0  0  0  0  0  0  0  0  0  0
    5.6256    2.6963    0.6808 C   0  0  0  0  0  0  0  0  0  0  0  0
    4.5353    2.3957   -0.1292 C   0  0  0  0  0  0  0  0  0  0  0  0
    4.7036    1.5342   -1.3427 C   0  0  0  0  0  0  0  0  0  0  0  0
    3.2974    2.9233    0.2106 C   0  0  0  0  0  0  0  0  0  0  0  0
    3.1391    3.6998    1.3431 C   0  0  0  0  0  0  0  0  0  0  0  0
    4.9065    5.7684    3.6537 C   0  0  0  0  0  0  0  0  0  0  0  0
    5.4958    6.4980    2.6224 C   0  0  0  0  0  0  0  0  0  0  0  0
    6.3538    7.5385    2.9094 C   0  0  0  0  0  0  0  0  0  0  0  0
    6.6436    7.8949    4.2227 C   0  0  0  0  0  0  0  0  0  0  0  0
    7.5694    9.0361    4.5123 C   0  0  0  0  0  0  0  0  0  0  0  0
    6.0483    7.1695    5.2438 C   0  0  0  0  0  0  0  0  0  0  0  0
    5.1970    6.1160    4.9706 C   0  0  0  0  0  0  0  0  0  0  0  0
    2.2992    5.2400    5.0192 C   0  0  0  0  0  0  0  0  0  0  0  0
    2.2674    6.9614    5.1247 S   0  0  0  0  0  0  0  0  0  0  0  0
    0.9207    6.8913    6.2737 C   0  0  0  0  0  0  0  0  0  0  0  0
    0.4667    5.5676    6.4719 C   0  0  0  0  0  0  0  0  0  0  0  0
   -0.6733    5.1824    7.1115 N   0  0  0  0  0  0  0  0  0  0  0  0
   -1.7882    6.0201    7.2555 C   0  0  0  0  0  0  0  0  0  0  0  0
   -2.1941    6.8688    6.2261 C   0  0  0  0  0  0  0  0  0  0  0  0
   -3.2713    7.7101    6.4052 C   0  0  0  0  0  0  0  0  0  0  0  0
   -3.9769    7.7348    7.6066 C   0  0  0  0  0  0  0  0  0  0  0  0
   -5.1068    8.6957    7.8013 C   0  0  0  0  0  0  0  0  0  0  0  0
   -3.5943    6.8549    8.6099 C   0  0  0  0  0  0  0  0  0  0  0  0
   -2.5178    6.0036    8.4423 C   0  0  0  0  0  0  0  0  0  0  0  0
   -0.7656    3.8698    7.6246 C   0  0  0  0  0  0  0  0  0  0  0  0
    0.2701    3.3385    8.3871 C   0  0  0  0  0  0  0  0  0  0  0  0
    0.1687    2.0543    8.8816 C   0  0  0  0  0  0  0  0  0  0  0  0
   -0.9577    1.2762    8.6349 C   0  0  0  0  0  0  0  0  0  0  0  0
   -1.0410   -0.1243    9.1580 C   0  0  0  0  0  0  0  0  0  0  0  0
   -1.9912    1.8244    7.8852 C   0  0  0  0  0  0  0  0  0  0  0  0
   -1.9029    3.1080    7.3819 C   0  0  0  0  0  0  0  0  0  0  0  0
    1.2962    4.6550    5.7785 C   0  0  0  0  0  0  0  0  0  0  0  0
    1.2477    2.9409    5.5456 S   0  0  0  0  0  0  0  0  0  0  0  0
    0.4744    8.1059    6.7898 C   0  0  0  0  0  0  0  0  0  0  0  0
   -0.2378    8.2756    7.9625 C   0  0  0  0  0  0  0  0  0  0  0  0
   -0.1489    7.3627    9.1085 C   0  0  0  0  0  0  0  0  0  0  0  0
    0.5053    6.3392    9.1951 O   0  0  0  0  0  0  0  0  0  0  0  0
   -0.9205    8.0104   10.1931 C   0  0  0  0  0  0  0  0  0  0  0  0
   -1.1384    7.5565   11.4685 C   0  0  0  0  0  0  0  0  0  0  0  0
   -1.9296    8.3435   12.3147 C   0  0  0  0  0  0  0  0  0  0  0  0
   -2.3097    8.0914   13.6618 C   0  0  0  0  0  0  0  0  0  0  0  0
   -3.0841    9.0817   14.1642 C   0  0  0  0  0  0  0  0  0  0  0  0
   -3.8060    9.1584   15.8950 Br  0  0  0  0  0  0  0  0  0  0  0  0
   -3.4009   10.3767   13.0411 S   0  0  0  0  0  0  0  0  0  0  0  0
   -2.4545    9.5626   11.8308 C   0  0  0  0  0  0  0  0  0  0  0  0
   -2.2262   10.0259   10.5396 C   0  0  0  0  0  0  0  0  0  0  0  0
   -1.4528    9.2325    9.7173 C   0  0  0  0  0  0  0  0  0  0  0  0
   -1.0518    9.3986    8.3236 C   0  0  0  0  0  0  0  0  0  0  0  0
   -1.5168   10.3643    7.4615 C   0  0  0  0  0  0  0  0  0  0  0  0
   -1.2239   10.3934    6.0847 C   0  0  0  0  0  0  0  0  0  0  0  0
   -1.0544   10.4577    4.9500 N   0  0  0  0  0  0  0  0  0  0  0  0
   -2.4111   11.3840    7.8304 C   0  0  0  0  0  0  0  0  0  0  0  0
   -3.1571   12.2226    8.0780 N   0  0  0  0  0  0  0  0  0  0  0  0
   -7.3365   -7.1585   -8.1862 H   0  0  0  0  0  0  0  0  0  0  0  0
   -5.5304   -8.5058  -14.0238 H   0  0  0  0  0  0  0  0  0  0  0  0
   -6.6236   -9.2612  -16.4968 H   0  0  0  0  0  0  0  0  0  0  0  0
  -10.2051   -9.0508  -12.3099 H   0  0  0  0  0  0  0  0  0  0  0  0
   -3.8964   -7.5048   -9.6683 H   0  0  0  0  0  0  0  0  0  0  0  0
   -2.0540   -6.8009  -10.4423 H   0  0  0  0  0  0  0  0  0  0  0  0
   -0.3411   -6.9161   -9.9746 H   0  0  0  0  0  0  0  0  0  0  0  0
   -0.6581   -9.2610   -9.2608 H   0  0  0  0  0  0  0  0  0  0  0  0
   -1.1596   -9.0525  -10.9476 H   0  0  0  0  0  0  0  0  0  0  0  0
   -2.3723   -9.1891   -9.6719 H   0  0  0  0  0  0  0  0  0  0  0  0
   -4.3687   -5.5561   -5.1768 H   0  0  0  0  0  0  0  0  0  0  0  0
   -6.4613   -6.3180   -4.4315 H   0  0  0  0  0  0  0  0  0  0  0  0
   -6.4780   -4.6216   -4.9920 H   0  0  0  0  0  0  0  0  0  0  0  0
   -8.6635   -5.3329   -3.9236 H   0  0  0  0  0  0  0  0  0  0  0  0
   -8.8498   -6.5438   -5.2076 H   0  0  0  0  0  0  0  0  0  0  0  0
   -8.8632   -4.8271   -5.6087 H   0  0  0  0  0  0  0  0  0  0  0  0
   -2.3093   -8.7089   -5.7714 H   0  0  0  0  0  0  0  0  0  0  0  0
   -1.7431  -10.9805   -6.5338 H   0  0  0  0  0  0  0  0  0  0  0  0
    0.5186  -11.4817   -7.3650 H   0  0  0  0  0  0  0  0  0  0  0  0
    3.0303   -8.9412   -8.1278 H   0  0  0  0  0  0  0  0  0  0  0  0
    2.6392  -10.6661   -8.2002 H   0  0  0  0  0  0  0  0  0  0  0  0
    3.5605   -9.1643   -5.6991 H   0  0  0  0  0  0  0  0  0  0  0  0
    4.5603  -10.2490   -6.6728 H   0  0  0  0  0  0  0  0  0  0  0  0
    3.1788  -10.8843   -5.7729 H   0  0  0  0  0  0  0  0  0  0  0  0
    1.6512   -7.4215   -6.7255 H   0  0  0  0  0  0  0  0  0  0  0  0
    5.7005   -0.9110    4.1087 H   0  0  0  0  0  0  0  0  0  0  0  0
    7.7596   -0.8950    5.4154 H   0  0  0  0  0  0  0  0  0  0  0  0
    8.5856    1.2026    6.4162 H   0  0  0  0  0  0  0  0  0  0  0  0
    6.6349    4.2946    6.5742 H   0  0  0  0  0  0  0  0  0  0  0  0
    8.0793    3.4481    7.1441 H   0  0  0  0  0  0  0  0  0  0  0  0
    8.7017    5.3369    5.6667 H   0  0  0  0  0  0  0  0  0  0  0  0
    9.1495    3.8026    4.9106 H   0  0  0  0  0  0  0  0  0  0  0  0
    7.7133    4.6762    4.3677 H   0  0  0  0  0  0  0  0  0  0  0  0
    5.2305    3.2752    4.8264 H   0  0  0  0  0  0  0  0  0  0  0  0
   -0.1770   -1.0419   -2.2755 H   0  0  0  0  0  0  0  0  0  0  0  0
   -1.2913   -2.1747   -3.0697 H   0  0  0  0  0  0  0  0  0  0  0  0
    0.0768   -2.0321   -5.1466 H   0  0  0  0  0  0  0  0  0  0  0  0
   -0.4285   -0.4226   -4.6316 H   0  0  0  0  0  0  0  0  0  0  0  0
    1.2269   -0.9692   -4.3303 H   0  0  0  0  0  0  0  0  0  0  0  0
    0.0871   -0.9973    1.2227 H   0  0  0  0  0  0  0  0  0  0  0  0
   -0.3258   -1.6717   -0.3544 H   0  0  0  0  0  0  0  0  0  0  0  0
    0.3577    1.2346    0.3593 H   0  0  0  0  0  0  0  0  0  0  0  0
   -1.1885    0.6299   -0.2327 H   0  0  0  0  0  0  0  0  0  0  0  0
    0.2104    0.7094   -1.3132 H   0  0  0  0  0  0  0  0  0  0  0  0
    6.3350    3.6847    2.4381 H   0  0  0  0  0  0  0  0  0  0  0  0
    6.5981    2.2984    0.4312 H   0  0  0  0  0  0  0  0  0  0  0  0
    5.1475    2.1107   -2.1548 H   0  0  0  0  0  0  0  0  0  0  0  0
    5.3639    0.6957   -1.1299 H   0  0  0  0  0  0  0  0  0  0  0  0
    3.7452    1.1480   -1.6823 H   0  0  0  0  0  0  0  0  0  0  0  0
    2.4400    2.7206   -0.4156 H   0  0  0  0  0  0  0  0  0  0  0  0
    2.1681    4.0979    1.6014 H   0  0  0  0  0  0  0  0  0  0  0  0
    5.2746    6.2433    1.5966 H   0  0  0  0  0  0  0  0  0  0  0  0
    6.8032    8.0923    2.0979 H   0  0  0  0  0  0  0  0  0  0  0  0
    8.5067    8.9156    3.9712 H   0  0  0  0  0  0  0  0  0  0  0  0
    7.7850    9.1023    5.5757 H   0  0  0  0  0  0  0  0  0  0  0  0
    7.1201    9.9763    4.1930 H   0  0  0  0  0  0  0  0  0  0  0  0
    6.2578    7.4217    6.2733 H   0  0  0  0  0  0  0  0  0  0  0  0
    4.7645    5.5565    5.7870 H   0  0  0  0  0  0  0  0  0  0  0  0
   -1.6613    6.8700    5.2870 H   0  0  0  0  0  0  0  0  0  0  0  0
   -3.5681    8.3672    5.6008 H   0  0  0  0  0  0  0  0  0  0  0  0
   -4.7237    9.7118    7.9025 H   0  0  0  0  0  0  0  0  0  0  0  0
   -5.7752    8.6817    6.9427 H   0  0  0  0  0  0  0  0  0  0  0  0
   -5.6747    8.4545    8.6961 H   0  0  0  0  0  0  0  0  0  0  0  0
   -4.1360    6.8418    9.5446 H   0  0  0  0  0  0  0  0  0  0  0  0
   -2.2269    5.3298    9.2341 H   0  0  0  0  0  0  0  0  0  0  0  0
    1.1287    3.9533    8.6072 H   0  0  0  0  0  0  0  0  0  0  0  0
    0.9744    1.6490    9.4760 H   0  0  0  0  0  0  0  0  0  0  0  0
   -0.6532   -0.1808   10.1730 H   0  0  0  0  0  0  0  0  0  0  0  0
   -2.0667   -0.4841    9.1509 H   0  0  0  0  0  0  0  0  0  0  0  0
   -0.4415   -0.7886    8.5351 H   0  0  0  0  0  0  0  0  0  0  0  0
   -2.8770    1.2385    7.6874 H   0  0  0  0  0  0  0  0  0  0  0  0
   -2.7103    3.5239    6.7969 H   0  0  0  0  0  0  0  0  0  0  0  0
    0.7557    8.9875    6.2261 H   0  0  0  0  0  0  0  0  0  0  0  0
   -0.7206    6.6207   11.8056 H   0  0  0  0  0  0  0  0  0  0  0  0
   -2.0162    7.2193   14.2171 H   0  0  0  0  0  0  0  0  0  0  0  0
   -2.6398   10.9675   10.2187 H   0  0  0  0  0  0  0  0  0  0  0  0
  1  2  2  0  0  0  0
  2  3  1  0  0  0  0
  3  4  2  0  0  0  0
  3  5  1  0  0  0  0
  5  6  2  0  0  0  0
  6  7  1  0  0  0  0
  7  8  1  0  0  0  0
  8  9  2  0  0  0  0
  9 10  1  0  0  0  0
  9 11  1  0  0  0  0
 11 12  1  0  0  0  0
 12 13  1  0  0  0  0
 13 14  2  0  0  0  0
 14 15  1  0  0  0  0
 15 16  2  0  0  0  0
 16 17  1  0  0  0  0
 17 18  3  0  0  0  0
 16 19  1  0  0  0  0
 19 20  3  0  0  0  0
  1 21  1  0  0  0  0
 21 22  2  0  0  0  0
 22 23  1  0  0  0  0
 23 24  1  0  0  0  0
 24 25  1  0  0  0  0
 25 26  1  0  0  0  0
 23 27  2  0  0  0  0
 27 28  1  0  0  0  0
 28 29  2  0  0  0  0
 29 30  1  0  0  0  0
 30 31  1  0  0  0  0
 31 32  1  0  0  0  0
 27 33  1  0  0  0  0
 33 34  2  0  0  0  0
 34 35  1  0  0  0  0
 35 36  2  0  0  0  0
 36 37  1  0  0  0  0
 37 38  2  0  0  0  0
 38 39  1  0  0  0  0
 39 40  1  0  0  0  0
 40 41  1  0  0  0  0
 39 42  2  0  0  0  0
 34 43  1  0  0  0  0
 43 44  1  0  0  0  0
 44 45  1  0  0  0  0
 45 46  1  0  0  0  0
 46 47  1  0  0  0  0
 47 48  1  0  0  0  0
 48 49  2  0  0  0  0
 49 50  1  0  0  0  0
 50 51  1  0  0  0  0
 48 52  1  0  0  0  0
 52 53  1  0  0  0  0
 53 54  1  0  0  0  0
 54 55  1  0  0  0  0
 55 56  1  0  0  0  0
 56 57  1  0  0  0  0
 57 58  2  0  0  0  0
 58 59  1  0  0  0  0
 59 60  2  0  0  0  0
 60 61  1  0  0  0  0
 61 62  1  0  0  0  0
 62 63  1  0  0  0  0
 61 64  2  0  0  0  0
 56 65  2  0  0  0  0
 65 66  1  0  0  0  0
 66 67  1  0  0  0  0
 67 68  1  0  0  0  0
 68 69  1  0  0  0  0
 69 70  1  0  0  0  0
 70 71  1  0  0  0  0
 71 72  1  0  0  0  0
 72 73  1  0  0  0  0
 73 74  1  0  0  0  0
 74 75  1  0  0  0  0
 72 76  1  0  0  0  0
 76 77  1  0  0  0  0
 69 78  1  0  0  0  0
 78 79  1  0  0  0  0
 65 80  1  0  0  0  0
 80 81  2  0  0  0  0
 81 82  1  0  0  0  0
 82 83  1  0  0  0  0
 83 84  2  0  0  0  0
 84 85  1  0  0  0  0
 85 86  2  0  0  0  0
 86 87  1  0  0  0  0
 86 88  1  0  0  0  0
 88 89  2  0  0  0  0
 82 90  1  0  0  0  0
 90 91  2  0  0  0  0
 91 92  1  0  0  0  0
 92 93  2  0  0  0  0
 93 94  1  0  0  0  0
 93 95  1  0  0  0  0
 95 96  2  0  0  0  0
 81 97  1  0  0  0  0
 97 98  1  0  0  0  0
 98 99  1  0  0  0  0
 99100  2  0  0  0  0
100101  1  0  0  0  0
101102  1  0  0  0  0
102103  2  0  0  0  0
103104  1  0  0  0  0
104105  2  0  0  0  0
105106  1  0  0  0  0
105107  1  0  0  0  0
107108  2  0  0  0  0
101109  1  0  0  0  0
109110  2  0  0  0  0
110111  1  0  0  0  0
111112  2  0  0  0  0
112113  1  0  0  0  0
112114  1  0  0  0  0
114115  2  0  0  0  0
100116  1  0  0  0  0
116117  1  0  0  0  0
 99118  1  0  0  0  0
118119  2  0  0  0  0
119120  1  0  0  0  0
120121  2  0  0  0  0
120122  1  0  0  0  0
122123  2  0  0  0  0
123124  1  0  0  0  0
124125  1  0  0  0  0
125126  2  0  0  0  0
126127  1  0  0  0  0
126128  1  0  0  0  0
128129  1  0  0  0  0
129130  1  0  0  0  0
130131  2  0  0  0  0
131132  1  0  0  0  0
132133  2  0  0  0  0
133134  1  0  0  0  0
134135  3  0  0  0  0
133136  1  0  0  0  0
136137  3  0  0  0  0
 15  2  1  0  0  0  0
 29 21  1  0  0  0  0
 75 33  1  0  0  0  0
117 80  1  0  0  0  0
132119  1  0  0  0  0
 14  5  1  0  0  0  0
 42 35  1  0  0  0  0
 74 43  2  0  0  0  0
 89 83  1  0  0  0  0
 96 90  1  0  0  0  0
116 97  2  0  0  0  0
131122  1  0  0  0  0
 12  7  2  0  0  0  0
 73 45  2  0  0  0  0
108102  1  0  0  0  0
115109  1  0  0  0  0
129124  2  0  0  0  0
 71 46  2  0  0  0  0
 51 47  2  0  0  0  0
 70 52  2  0  0  0  0
 68 53  2  0  0  0  0
 67 55  2  0  0  0  0
 64 57  1  0  0  0  0
  1138  1  0  0  0  0
  6139  1  0  0  0  0
  8140  1  0  0  0  0
 13141  1  0  0  0  0
 22142  1  0  0  0  0
 25143  1  0  0  0  0
 25144  1  0  0  0  0
 26145  1  0  0  0  0
 26146  1  0  0  0  0
 26147  1  0  0  0  0
 28148  1  0  0  0  0
 31149  1  0  0  0  0
 31150  1  0  0  0  0
 32151  1  0  0  0  0
 32152  1  0  0  0  0
 32153  1  0  0  0  0
 36154  1  0  0  0  0
 37155  1  0  0  0  0
 38156  1  0  0  0  0
 40157  1  0  0  0  0
 40158  1  0  0  0  0
 41159  1  0  0  0  0
 41160  1  0  0  0  0
 41161  1  0  0  0  0
 42162  1  0  0  0  0
 58163  1  0  0  0  0
 59164  1  0  0  0  0
 60165  1  0  0  0  0
 62166  1  0  0  0  0
 62167  1  0  0  0  0
 63168  1  0  0  0  0
 63169  1  0  0  0  0
 63170  1  0  0  0  0
 64171  1  0  0  0  0
 76172  1  0  0  0  0
 76173  1  0  0  0  0
 77174  1  0  0  0  0
 77175  1  0  0  0  0
 77176  1  0  0  0  0
 78177  1  0  0  0  0
 78178  1  0  0  0  0
 79179  1  0  0  0  0
 79180  1  0  0  0  0
 79181  1  0  0  0  0
 84182  1  0  0  0  0
 85183  1  0  0  0  0
 87184  1  0  0  0  0
 87185  1  0  0  0  0
 87186  1  0  0  0  0
 88187  1  0  0  0  0
 89188  1  0  0  0  0
 91189  1  0  0  0  0
 92190  1  0  0  0  0
 94191  1  0  0  0  0
 94192  1  0  0  0  0
 94193  1  0  0  0  0
 95194  1  0  0  0  0
 96195  1  0  0  0  0
103196  1  0  0  0  0
104197  1  0  0  0  0
106198  1  0  0  0  0
106199  1  0  0  0  0
106200  1  0  0  0  0
107201  1  0  0  0  0
108202  1  0  0  0  0
110203  1  0  0  0  0
111204  1  0  0  0  0
113205  1  0  0  0  0
113206  1  0  0  0  0
113207  1  0  0  0  0
114208  1  0  0  0  0
115209  1  0  0  0  0
118210  1  0  0  0  0
123211  1  0  0  0  0
125212  1  0  0  0  0
130213  1  0  0  0  0
M  END
