255

C         -6.99310        0.19360       10.19620
C         -7.94230        0.98870        9.59710
C         -8.82720        1.83760       10.41790
O         -9.02360        1.76440       11.61270
C         -9.36610        2.85080        9.47740
C        -10.12320        3.96140        9.75450
C        -10.45600        4.80820        8.68950
C        -11.20810        6.01550        8.71960
C        -11.31300        6.57960        7.49390
Br       -12.20910        8.17490        7.07570
S        -10.51170        5.68650        6.22870
C        -10.00880        4.49130        7.38660
C         -9.25800        3.35660        7.10070
C         -8.94030        2.53550        8.16300
C         -8.18230        1.29040        8.21060
C         -7.97290        0.44530        7.14440
C         -7.48670       -0.86690        7.30240
N         -7.13350       -1.95530        7.41210
C         -8.26350        0.77710        5.81100
N         -8.45800        1.01660        4.70390
C         -5.79000       -0.23000        9.62060
C         -4.92820       -1.27580       10.00630
N         -5.11880       -2.13110       11.05470
C         -5.66200       -1.68680       12.27000
C         -5.26820       -0.45950       12.80120
C         -5.81070       -0.01330       13.98850
C         -6.74600       -0.77550       14.68110
C         -7.35500       -0.26120       15.94720
C         -7.11650       -2.00650       14.15320
C         -6.58660       -2.46300       12.96210
C         -4.83690       -3.50100       10.88100
C         -5.18800       -4.14010        9.69430
C         -4.96850       -5.49500        9.55560
C         -4.40550       -6.24300       10.58380
C         -4.25620       -7.72660       10.44820
C         -4.03660       -5.58850       11.75220
C         -4.24540       -4.23170       11.90530
C         -3.85110       -1.39970        9.10020
S         -2.48020       -2.45120        8.99160
C         -1.92720       -1.61680        7.54130
C         -2.81850       -0.62650        7.12390
N         -2.80390        0.07070        5.92690
C         -2.40230       -0.51600        4.71940
C         -1.82450        0.28480        3.73530
C         -1.30190       -0.28640        2.59190
C         -1.34180       -1.66060        2.39280
C         -0.70300       -2.29630        1.19570
C         -1.98310       -2.44330        3.34660
C         -2.51780       -1.88550        4.48960
C         -3.51900        1.28690        5.87330
C         -3.23430        2.30910        6.77430
C         -3.99300        3.46390        6.76940
C         -5.04470        3.62680        5.87520
C         -5.90580        4.85160        5.92870
C         -5.29450        2.61670        4.95350
C         -4.54170        1.45960        4.94550
C         -3.86040       -0.47810        8.06570
S         -5.17920        0.61960        8.19910
C         -0.73100       -2.04020        6.89760
C         -0.19590       -3.31440        6.84710
C         -0.58830       -4.44480        7.70700
C         -0.11160       -4.44940        9.01580
C         -0.36450       -5.51800        9.85200
C         -1.08310       -6.60180        9.37810
C         -1.56380       -6.59550        8.08310
C         -1.33450       -5.52160        7.23260
C         -1.94190       -5.51270        5.85940
C         -3.45280       -5.29000        5.95350
C          0.82630       -3.40060        5.88400
S          1.70220       -4.75340        5.20550
C          2.37990       -3.68880        4.01480
C          3.16940       -3.74780        2.85100
C          3.91070       -4.78740        2.24650
C          4.63710       -4.51590        1.03440
N          5.32070       -5.56680        0.61080
S          5.07290       -6.79200        1.63960
N          4.07930       -6.03090        2.66690
C          4.47890       -3.26030        0.40520
C          4.82800       -2.80290       -0.87720
S          5.66020       -3.37030       -2.28660
C          5.14320       -1.93410       -3.13590
C          5.34160       -1.49920       -4.46310
C          6.15630       -2.27340       -5.41080
C          7.34800       -1.77480       -5.94130
C          7.86740       -0.40870       -5.58760
C          8.50040       -0.41350       -4.19490
C          8.10900       -2.60710       -6.75110
C          7.70680       -3.89620       -7.04290
C          6.52410       -4.38260       -6.51490
C          5.76030       -3.57660       -5.69510
C          4.70110       -0.29940       -4.68990
S          3.90230        0.32660       -3.25090
C          4.39130       -1.06190       -2.34650
C          4.21760       -1.55620       -1.04750
N          3.53930       -1.20710        0.09090
C          3.69460       -2.23620        1.00050
C          3.16780       -2.43840        2.29860
N          2.47310       -1.59250        3.14550
C          1.98000       -2.35840        4.16920
C          1.10400       -2.19140        5.24450
S          0.17310       -0.90030        5.90380
C          2.66070       -0.16980        3.32600
C          3.47910        0.12790        4.58200
C          2.55190       -0.15070        0.06050
C          3.18750        1.23890        0.07920
C          4.55170        0.45490       -5.89360
C          4.42090        0.01630       -7.19620
N          4.37000       -1.33310       -7.59780
C          3.04030       -1.84420       -7.60990
C          2.41090       -2.16660       -6.41600
C          1.10960       -2.63640       -6.42070
C          0.40910       -2.79260       -7.60840
C         -0.99070       -3.32700       -7.62010
C          1.04300       -2.45100       -8.79850
C          2.33850       -1.97520       -8.80520
C          5.28930       -1.78390       -8.54470
C          5.16920       -3.06450       -9.08260
C          6.11000       -3.54350       -9.97010
C          7.20580       -2.77770      -10.34510
C          8.21560       -3.29470      -11.32510
C          7.33350       -1.51250       -9.78960
C          6.39930       -1.02060       -8.90060
C          4.22070        1.09570       -8.08660
S          3.86450        1.17510       -9.77210
C          3.75250        2.93630       -9.67130
C          3.91020        3.40430       -8.33800
N          3.78980        4.70250       -7.92340
C          2.86100        5.60050       -8.48250
C          1.60650        5.16010       -8.89780
C          0.71570        6.05010       -9.46330
C          1.03820        7.39470       -9.60970
C          0.08720        8.35520      -10.25360
C          2.27790        7.82970       -9.15630
C          3.18590        6.94900       -8.60320
C          4.54250        5.12020       -6.80750
C          3.95520        5.87100       -5.79520
C          4.70700        6.27030       -4.70730
C          6.05000        5.93290       -4.59970
C          6.86580        6.35050       -3.41560
C          6.62920        5.18700       -5.62110
C          5.89150        4.78570       -6.71510
C          4.19850        2.34100       -7.47000
S          4.42540        2.20290       -5.75580
C          3.62620        3.78780      -10.76290
C          3.37090        3.51380      -12.09080
C          3.04650        2.20480      -12.65410
O          3.07290        1.11940      -12.09880
C          2.64540        2.45080      -14.05390
C          2.23070        1.53860      -14.99150
C          1.89350        2.01850      -16.26240
C          1.43920        1.28880      -17.39540
C          1.20990        2.09460      -18.45860
Br         0.60270        1.55660      -20.15030
S          1.52870        3.78180      -18.15550
C          1.99460        3.40400      -16.52420
C          2.41840        4.32670      -15.57420
C          2.74510        3.83720      -14.32470
C          3.22930        4.51130      -13.12220
C          3.51160        5.85470      -13.02750
C          4.10900        6.48860      -11.92260
N          4.62610        7.08050      -11.08260
C          3.26510        6.78740      -14.05300
N          3.06820        7.60060      -14.84050
H         -7.17160       -0.03730       11.23980
H        -10.44660        4.17790       10.76050
H        -11.64100        6.43210        9.61080
H         -8.93430        3.14990        6.09400
H         -4.54090        0.13930       12.27230
H         -5.50430        0.94290       14.38610
H         -7.79320       -1.06950       16.52710
H         -6.61170        0.25030       16.55520
H         -8.14240        0.45430       15.70910
H         -7.84160       -2.61350       14.67510
H         -6.89450       -3.41420       12.55450
H         -5.66190       -3.57880        8.90210
H         -5.26510       -5.98580        8.64080
H         -3.56000       -8.11900       11.18490
H         -5.22160       -8.20980       10.60390
H         -3.90920       -7.99140        9.45260
H         -3.58590       -6.14810       12.55890
H         -3.96310       -3.73400       12.82130
H         -1.76240        1.35150        3.89180
H         -0.84150        0.34880        1.84750
H         -1.34880       -3.06640        0.77880
H         -0.49560       -1.55830        0.42430
H          0.23690       -2.77230        1.48050
H         -2.06260       -3.50920        3.18820
H         -3.01540       -2.50910        5.21550
H         -2.42830        2.18300        7.48260
H         -3.77260        4.24710        7.48020
H         -6.47040        4.97150        5.00750
H         -6.61410        4.76910        6.75470
H         -5.30400        5.74310        6.09400
H         -6.10420        2.72200        4.24680
H         -4.75940        0.67230        4.23900
H          0.46810       -3.60770        9.36670
H          0.00870       -5.51080       10.86490
H         -1.26300       -7.45200       10.01800
H         -2.12030       -7.44410        7.71120
H         -1.74690       -6.46620        5.36320
H         -1.49290       -4.72000        5.26020
H         -3.67050       -4.39390        6.53170
H         -3.88780       -5.18210        4.96240
H         -3.93110       -6.13060        6.44970
H          8.61920       -0.11230       -6.32160
H          7.06470        0.32920       -5.61450
H          8.90300        0.56890       -3.95750
H          7.76290       -0.67650       -3.44010
H          9.30720       -1.14140       -4.15010
H          9.03780       -2.23400       -7.15810
H          8.31590       -4.51960       -7.67970
H          6.20140       -5.38910       -6.73330
H          4.83900       -3.95210       -5.27430
H          3.19810        0.22120        2.46790
H          1.67850        0.30950        3.40180
H          2.95180       -0.19090        5.47640
H          3.65950        1.19710        4.65230
H          4.43650       -0.38710        4.53800
H          1.98150       -0.25550       -0.87020
H          1.86180       -0.28910        0.89270
H          2.41060        1.99530        0.14580
H          3.86710        1.36060        0.91960
H          3.75140        1.40620       -0.83420
H          2.94090       -2.05230       -5.48410
H          0.63470       -2.88840       -5.48300
H         -1.61250       -2.76290       -8.31240
H         -1.43470       -3.28070       -6.62880
H         -0.99020       -4.36770       -7.94550
H          0.50910       -2.54890       -9.73280
H          2.81350       -1.69690       -9.73460
H          4.33700       -3.68860       -8.79450
H          5.99150       -4.53870      -10.37490
H          7.98830       -2.93040      -12.32780
H          8.20840       -4.38190      -11.35180
H          9.21630       -2.95510      -11.06560
H          8.18250       -0.89790      -10.05440
H          6.54220       -0.03960       -8.47300
H          1.33840        4.11970       -8.78430
H         -0.25060        5.69340       -9.78980
H          0.44820        8.62610      -11.24620
H         -0.90240        7.91710      -10.35650
H          0.00980        9.26990       -9.66910
H          2.54680        8.87010       -9.25770
H          4.15360        7.29700       -8.27810
H          2.91000        6.13360       -5.86400
H          4.23750        6.84950       -3.92570
H          6.30900        7.03250       -2.77840
H          7.14580        5.47760       -2.82630
H          7.78280        6.84120       -3.73760
H          7.67530        4.92440       -5.56010
H          6.35530        4.21960       -7.50960
H          3.72860        4.83650      -10.51570
H          2.16880        0.48800      -14.75480
H          1.29470        0.22380      -17.40710
H          2.47900        5.37260      -15.82430
