282

C          9.63420        7.59280        4.42870
C          9.37090        8.27310        5.60180
C          8.33070        7.94580        6.57370
O          7.62010        6.95510        6.61500
C          8.28150        9.08190        7.51690
C          7.44860        9.25630        8.59330
C          7.58720       10.43180        9.34040
C          6.85260       10.84880       10.48460
C          7.26740       12.05340       10.94180
Br         6.57670       12.97800       12.42140
S          8.56970       12.75550       10.01930
C          8.56900       11.37550        8.96200
C          9.41560       11.19520        7.87360
C          9.26260       10.03230        7.14460
C          9.97550        9.52730        5.97310
C         11.04000       10.15340        5.36500
C         11.51270       11.43040        5.72130
N         11.92930       12.47790        5.94440
C         11.82530        9.61110        4.33160
N         12.54070        9.23100        3.51490
C          9.08380        6.42330        3.92010
C          9.36490        5.93390        2.61380
N         10.07390        6.59590        1.64730
C         10.80620        5.83350        0.71650
C         10.76720        6.13750       -0.64000
C         11.49280        5.37970       -1.53850
C         12.26590        4.30680       -1.11370
C         13.05820        3.48570       -2.08320
C         12.30170        4.01430        0.24580
C         11.58640        4.76590        1.15440
C         10.00330        7.99050        1.47150
C          8.80890        8.67500        1.68460
C          8.76280       10.04620        1.53340
C          9.88850       10.76500        1.14710
C          9.85100       12.25610        1.01630
C         11.06410       10.06670        0.89760
C         11.13060        8.69750        1.06120
C          8.78730        4.67220        2.41980
S          8.67560        3.58700        1.06600
C          7.59520        2.53940        1.97480
C          7.42700        2.96740        3.29150
N          6.67590        2.31940        4.26650
C          6.93980        0.99690        4.62920
C          5.94270        0.21600        5.21790
C          6.17110       -1.11400        5.49630
C          7.39190       -1.71210        5.20260
C          7.61790       -3.16250        5.50130
C          8.38740       -0.92560        4.63910
C          8.17260        0.40950        4.35580
C          5.76430        3.11500        4.98330
C          5.66080        3.03960        6.36850
C          4.76330        3.84670        7.03820
C          3.96030        4.75240        6.35520
C          3.01500        5.65020        7.09310
C          4.07580        4.82530        4.97260
C          4.96030        4.01530        4.28990
C          8.07220        4.20170        3.51630
S          8.04250        5.32060        4.82950
C          6.86240        1.53430        1.30280
C          6.84740        1.26030       -0.05480
C          5.80820        0.39680       -0.39650
S          5.15190       -0.21210       -1.89440
C          3.84770       -0.96420       -1.01920
C          2.60750       -1.60100       -1.33280
C          1.94860       -1.85650       -0.12140
C          2.77090       -1.38740        1.06460
C          2.14790       -0.24250        1.84680
C          1.15250        0.55990        1.30850
C          0.70290        1.67130        1.99990
C          1.24600        2.01950        3.22890
C          0.75190        3.21790        3.98670
C         -0.40820        2.83220        4.90640
C          2.23850        1.20920        3.76460
C          2.68420        0.09230        3.08570
C          3.12500       -2.54620        1.97510
C          4.36100       -3.17230        1.90340
C          4.67230       -4.21260        2.75970
C          3.75780       -4.65870        3.70300
C          4.08400       -5.81160        4.60890
C          3.63530       -7.13120        3.97830
C          2.51480       -4.04060        3.75950
C          2.20140       -2.99700        2.91040
C          3.95420       -0.80110        0.35100
C          5.04170       -0.01470        0.70430
S          5.60400        0.67080        2.17150
C          0.69060       -2.42650       -0.10790
C          0.02130       -2.62370       -1.30620
C         -1.29410       -3.17150       -1.35920
C         -2.06660       -3.15930       -2.49980
C         -1.60690       -2.43190       -3.73010
C         -0.08830       -2.36510       -3.77110
C          0.62880       -2.28400       -2.55350
C          1.98330       -1.86080       -2.57570
C          2.62820       -1.66430       -3.80880
C          1.94730       -1.87200       -4.97720
C          0.58600       -2.19200       -4.95770
C         -1.99640       -0.94730       -3.62530
C         -2.51560       -0.38490       -2.46860
C         -2.80180        0.96800       -2.40740
C         -2.57980        1.79910       -3.49470
C         -2.84230        3.27450       -3.40540
C         -1.60530        4.00380       -2.87760
C         -2.06090        1.23400       -4.65290
C         -1.77170       -0.11420       -4.71630
C         -2.23530       -3.07880       -4.94970
C         -1.68880       -4.23870       -5.48490
C         -2.25970       -4.83990       -6.59120
C         -3.40590       -4.31720       -7.17770
C         -4.00580       -4.93970       -8.40620
C         -3.42070       -4.30250       -9.66770
C         -3.97300       -3.18090       -6.61620
C         -3.39850       -2.57090       -5.51680
C         -3.33110       -3.71520       -2.26180
C         -3.52840       -4.13350       -0.94160
S         -2.10960       -3.88520        0.01850
C         -4.82400       -4.57870       -0.66950
C         -5.62210       -4.52570       -1.78980
S         -4.75180       -3.94130       -3.20670
C         -7.03180       -4.65580       -1.88580
C         -7.75220       -4.75920       -3.07220
N         -7.18400       -5.13800       -4.27750
C         -6.38160       -6.28780       -4.30770
C         -5.29650       -6.37470       -5.17600
C         -4.49560       -7.49740       -5.17740
C         -4.74300       -8.56180       -4.31800
C         -3.87060       -9.77980       -4.33960
C         -5.82790       -8.46860       -3.45610
C         -6.64050       -7.35190       -3.44740
C         -7.47700       -4.39950       -5.43190
C         -7.60250       -5.01890       -6.67100
C         -7.88270       -4.26620       -7.79550
C         -8.05680       -2.89020       -7.71780
C         -8.34700       -2.06840       -8.93440
C         -7.94500       -2.28290       -6.47110
C         -7.65650       -3.02040       -5.34180
C         -9.11250       -4.46180       -2.86520
S        -10.44050       -4.19330       -3.92970
C        -11.45760       -3.70270       -2.56720
C        -10.77950       -3.81120       -1.33880
N        -11.30470       -3.48980       -0.11980
C        -10.79320       -4.10820        1.03460
C        -10.57760       -3.37120        2.19550
C        -10.08880       -3.99250        3.32670
C         -9.80190       -5.35320        3.33410
C         -9.24430       -6.01230        4.55740
C        -10.02800       -6.08180        2.17270
C        -10.52180       -5.47430        1.03570
C        -12.27490       -2.47510        0.03560
C        -13.35480       -2.67800        0.88760
C        -14.30170       -1.68540        1.04770
C        -14.19550       -0.47800        0.36780
C        -15.24680        0.57720        0.51770
C        -13.10160       -0.28260       -0.46800
C        -12.14210       -1.26150       -0.63160
C         -9.44460       -4.22020       -1.53800
S         -8.06300       -4.36670       -0.49800
C        -12.79340       -3.33360       -2.76380
C        -13.38480       -2.89770       -3.92260
C        -14.85040       -2.99050       -4.08270
O        -15.66510       -3.26370       -3.22650
C        -15.10670       -2.71490       -5.51470
C        -16.29570       -2.76830       -6.19820
C        -16.27440       -2.48760       -7.56970
C        -17.35990       -2.47430       -8.48910
C        -16.95820       -2.16480       -9.74390
Br       -18.05320       -2.03370      -11.26190
S        -15.24550       -1.87260       -9.89150
C        -15.04470       -2.17150       -8.19110
C        -13.84150       -2.10690       -7.49790
C        -13.88380       -2.37500       -6.14470
C        -12.83230       -2.34310       -5.13080
C        -11.65630       -1.63820       -5.25440
C        -11.23280       -1.02400       -6.44500
N        -10.84180       -0.49900       -7.38990
C        -10.81380       -1.32660       -4.17140
N        -10.14190       -0.98000       -3.30520
H         10.36570        8.05460        3.77860
H          6.71390        8.51030        8.85290
H          6.06160       10.27620       10.93370
H         10.14900       11.94480        7.62770
H         10.16290        6.96340       -0.98440
H         11.45010        5.62390       -2.58990
H         12.86340        2.42510       -1.93360
H         14.12470        3.65180       -1.93250
H         12.81120        3.74660       -3.10890
H         12.90510        3.18960        0.59620
H         11.63320        4.53850        2.20940
H          7.92390        8.12980        1.97900
H          7.83220       10.56570        1.71240
H          8.82960       12.62680        1.05040
H         10.31020       12.57170        0.08150
H         10.41100       12.71470        1.83170
H         11.94860       10.60520        0.59320
H         12.05720        8.17300        0.88920
H          4.97910        0.65530        5.42390
H          5.37960       -1.70790        5.93100
H          7.88090       -3.29480        6.55150
H          6.71270       -3.73470        5.30760
H          8.42820       -3.56280        4.89670
H          9.34890       -1.36340        4.41160
H          8.96080        0.99960        3.91130
H          6.29270        2.35530        6.91480
H          4.69530        3.78220        8.11450
H          2.15210        5.89820        6.47850
H          3.52130        6.58010        7.35370
H          2.67190        5.18340        8.01370
H          3.46360        5.52490        4.42110
H          5.03100        4.07070        3.21300
H          7.53940        1.70270       -0.74840
H          0.72910        0.32350        0.34280
H         -0.07320        2.28610        1.56590
H          1.56650        3.62870        4.58680
H          0.41630        3.98640        3.28700
H         -0.76020        3.69920        5.46070
H         -1.23590        2.43180        4.32500
H         -0.08930        2.07220        5.61610
H          2.67590        1.46800        4.71860
H          3.45950       -0.52430        3.51750
H          5.09340       -2.84280        1.18130
H          5.64520       -4.67930        2.69550
H          5.16050       -5.85000        4.78970
H          3.58030       -5.68260        5.56940
H          2.56240       -7.11950        3.79990
H          4.13780       -7.28410        3.02580
H          3.87040       -7.96640        4.63400
H          1.78630       -4.37430        4.48490
H          1.23890       -2.51280        2.98900
H          0.20180       -2.67640        0.82180
H          3.66240       -1.35460       -3.81760
H          2.44650       -1.75260       -5.92730
H          0.06140       -2.29320       -5.89610
H         -2.71050       -0.99170       -1.59790
H         -3.20870        1.37970       -1.49460
H         -3.09750        3.66590       -4.39210
H         -3.68400        3.46110       -2.73530
H         -1.79270        5.07300       -2.81030
H         -0.75820        3.83970       -3.54020
H         -1.34060        3.63360       -1.88960
H         -1.88080        1.85740       -5.51720
H         -1.37240       -0.52480       -5.63090
H         -0.80360       -4.66750       -5.03630
H         -1.80870       -5.73150       -7.00390
H         -5.08830       -4.79340       -8.39990
H         -3.80440       -6.01310       -8.41740
H         -2.34270       -4.44530       -9.70070
H         -3.85770       -4.74920      -10.55770
H         -3.62530       -3.23420       -9.67910
H         -4.88250       -2.77400       -7.03520
H         -3.86310       -1.68960       -5.10080
H         -5.17470       -4.90710        0.29190
H         -5.07610       -5.54850       -5.83170
H         -3.65150       -7.53980       -5.85010
H         -3.99040      -10.36090       -3.42860
H         -2.82400       -9.50130       -4.44540
H         -4.13440      -10.41540       -5.18570
H         -6.04570       -9.28420       -2.78140
H         -7.48180       -7.30450       -2.77110
H         -7.48330       -6.08960       -6.74820
H         -7.97780       -4.76240       -8.75140
H         -8.59480       -2.70030       -9.78370
H         -9.17630       -1.39080       -8.73900
H         -7.47900       -1.46290       -9.19650
H         -8.08080       -1.21460       -6.38760
H         -7.55970       -2.52920       -4.38450
H        -10.79000       -2.31260        2.20090
H         -9.92120       -3.40890        4.22010
H         -8.15610       -5.94020        4.55350
H         -9.60910       -5.52800        5.46010
H         -9.51150       -7.06590        4.58760
H         -9.82370       -7.14250        2.15990
H        -10.71220       -6.05760        0.14650
H        -13.44950       -3.61630        1.41460
H        -15.14130       -1.85500        1.70560
H        -15.66290        0.57140        1.52260
H        -14.84120        1.56370        0.30670
H        -16.06020        0.38830       -0.18360
H        -12.99100        0.65490       -0.99300
H        -11.29370       -1.09170       -1.27770
H        -13.47110       -3.47750       -1.92890
H        -17.21610       -3.01690       -5.69350
H        -18.37890       -2.68440       -8.21970
H        -12.92650       -1.86630       -8.01320
