
  xtb     02062204153D
 energy: -456.056645705063 gnorm: 0.000332137853 xtb: 6.4.1 (unknown)
282311  0     0  0            999 V2000
    9.6342    7.5928    4.4287 C   0  0  0  0  0  0  0  0  0  0  0  0
    9.3709    8.2731    5.6018 C   0  0  0  0  0  0  0  0  0  0  0  0
    8.3307    7.9458    6.5737 C   0  0  0  0  0  0  0  0  0  0  0  0
    7.6201    6.9551    6.6150 O   0  0  0  0  0  0  0  0  0  0  0  0
    8.2815    9.0819    7.5169 C   0  0  0  0  0  0  0  0  0  0  0  0
    7.4486    9.2563    8.5933 C   0  0  0  0  0  0  0  0  0  0  0  0
    7.5872   10.4318    9.3404 C   0  0  0  0  0  0  0  0  0  0  0  0
    6.8526   10.8488   10.4846 C   0  0  0  0  0  0  0  0  0  0  0  0
    7.2674   12.0534   10.9418 C   0  0  0  0  0  0  0  0  0  0  0  0
    6.5767   12.9780   12.4214 Br  0  0  0  0  0  0  0  0  0  0  0  0
    8.5697   12.7555   10.0193 S   0  0  0  0  0  0  0  0  0  0  0  0
    8.5690   11.3755    8.9620 C   0  0  0  0  0  0  0  0  0  0  0  0
    9.4156   11.1952    7.8736 C   0  0  0  0  0  0  0  0  0  0  0  0
    9.2626   10.0323    7.1446 C   0  0  0  0  0  0  0  0  0  0  0  0
    9.9755    9.5273    5.9731 C   0  0  0  0  0  0  0  0  0  0  0  0
   11.0400   10.1534    5.3650 C   0  0  0  0  0  0  0  0  0  0  0  0
   11.5127   11.4304    5.7213 C   0  0  0  0  0  0  0  0  0  0  0  0
   11.9293   12.4779    5.9444 N   0  0  0  0  0  0  0  0  0  0  0  0
   11.8253    9.6111    4.3316 C   0  0  0  0  0  0  0  0  0  0  0  0
   12.5407    9.2310    3.5149 N   0  0  0  0  0  0  0  0  0  0  0  0
    9.0838    6.4233    3.9201 C   0  0  0  0  0  0  0  0  0  0  0  0
    9.3649    5.9339    2.6138 C   0  0  0  0  0  0  0  0  0  0  0  0
   10.0739    6.5959    1.6473 N   0  0  0  0  0  0  0  0  0  0  0  0
   10.8062    5.8335    0.7165 C   0  0  0  0  0  0  0  0  0  0  0  0
   10.7672    6.1375   -0.6400 C   0  0  0  0  0  0  0  0  0  0  0  0
   11.4928    5.3797   -1.5385 C   0  0  0  0  0  0  0  0  0  0  0  0
   12.2659    4.3068   -1.1137 C   0  0  0  0  0  0  0  0  0  0  0  0
   13.0582    3.4857   -2.0832 C   0  0  0  0  0  0  0  0  0  0  0  0
   12.3017    4.0143    0.2458 C   0  0  0  0  0  0  0  0  0  0  0  0
   11.5864    4.7659    1.1544 C   0  0  0  0  0  0  0  0  0  0  0  0
   10.0033    7.9905    1.4715 C   0  0  0  0  0  0  0  0  0  0  0  0
    8.8089    8.6750    1.6846 C   0  0  0  0  0  0  0  0  0  0  0  0
    8.7628   10.0462    1.5334 C   0  0  0  0  0  0  0  0  0  0  0  0
    9.8885   10.7650    1.1471 C   0  0  0  0  0  0  0  0  0  0  0  0
    9.8510   12.2561    1.0163 C   0  0  0  0  0  0  0  0  0  0  0  0
   11.0641   10.0667    0.8976 C   0  0  0  0  0  0  0  0  0  0  0  0
   11.1306    8.6975    1.0612 C   0  0  0  0  0  0  0  0  0  0  0  0
    8.7873    4.6722    2.4198 C   0  0  0  0  0  0  0  0  0  0  0  0
    8.6756    3.5870    1.0660 S   0  0  0  0  0  0  0  0  0  0  0  0
    7.5952    2.5394    1.9748 C   0  0  0  0  0  0  0  0  0  0  0  0
    7.4270    2.9674    3.2915 C   0  0  0  0  0  0  0  0  0  0  0  0
    6.6759    2.3194    4.2665 N   0  0  0  0  0  0  0  0  0  0  0  0
    6.9398    0.9969    4.6292 C   0  0  0  0  0  0  0  0  0  0  0  0
    5.9427    0.2160    5.2179 C   0  0  0  0  0  0  0  0  0  0  0  0
    6.1711   -1.1140    5.4963 C   0  0  0  0  0  0  0  0  0  0  0  0
    7.3919   -1.7121    5.2026 C   0  0  0  0  0  0  0  0  0  0  0  0
    7.6179   -3.1625    5.5013 C   0  0  0  0  0  0  0  0  0  0  0  0
    8.3874   -0.9256    4.6391 C   0  0  0  0  0  0  0  0  0  0  0  0
    8.1726    0.4095    4.3558 C   0  0  0  0  0  0  0  0  0  0  0  0
    5.7643    3.1150    4.9833 C   0  0  0  0  0  0  0  0  0  0  0  0
    5.6608    3.0396    6.3685 C   0  0  0  0  0  0  0  0  0  0  0  0
    4.7633    3.8467    7.0382 C   0  0  0  0  0  0  0  0  0  0  0  0
    3.9603    4.7524    6.3552 C   0  0  0  0  0  0  0  0  0  0  0  0
    3.0150    5.6502    7.0931 C   0  0  0  0  0  0  0  0  0  0  0  0
    4.0758    4.8253    4.9726 C   0  0  0  0  0  0  0  0  0  0  0  0
    4.9603    4.0153    4.2899 C   0  0  0  0  0  0  0  0  0  0  0  0
    8.0722    4.2017    3.5163 C   0  0  0  0  0  0  0  0  0  0  0  0
    8.0425    5.3206    4.8295 S   0  0  0  0  0  0  0  0  0  0  0  0
    6.8624    1.5343    1.3028 C   0  0  0  0  0  0  0  0  0  0  0  0
    6.8474    1.2603   -0.0548 C   0  0  0  0  0  0  0  0  0  0  0  0
    5.8082    0.3968   -0.3965 C   0  0  0  0  0  0  0  0  0  0  0  0
    5.1519   -0.2121   -1.8944 S   0  0  0  0  0  0  0  0  0  0  0  0
    3.8477   -0.9642   -1.0192 C   0  0  0  0  0  0  0  0  0  0  0  0
    2.6075   -1.6010   -1.3328 C   0  0  0  0  0  0  0  0  0  0  0  0
    1.9486   -1.8565   -0.1214 C   0  0  0  0  0  0  0  0  0  0  0  0
    2.7709   -1.3874    1.0646 C   0  0  0  0  0  0  0  0  0  0  0  0
    2.1479   -0.2425    1.8468 C   0  0  0  0  0  0  0  0  0  0  0  0
    1.1525    0.5599    1.3085 C   0  0  0  0  0  0  0  0  0  0  0  0
    0.7029    1.6713    1.9999 C   0  0  0  0  0  0  0  0  0  0  0  0
    1.2460    2.0195    3.2289 C   0  0  0  0  0  0  0  0  0  0  0  0
    0.7519    3.2179    3.9867 C   0  0  0  0  0  0  0  0  0  0  0  0
   -0.4082    2.8322    4.9064 C   0  0  0  0  0  0  0  0  0  0  0  0
    2.2385    1.2092    3.7646 C   0  0  0  0  0  0  0  0  0  0  0  0
    2.6842    0.0923    3.0857 C   0  0  0  0  0  0  0  0  0  0  0  0
    3.1250   -2.5462    1.9751 C   0  0  0  0  0  0  0  0  0  0  0  0
    4.3610   -3.1723    1.9034 C   0  0  0  0  0  0  0  0  0  0  0  0
    4.6723   -4.2126    2.7597 C   0  0  0  0  0  0  0  0  0  0  0  0
    3.7578   -4.6587    3.7030 C   0  0  0  0  0  0  0  0  0  0  0  0
    4.0840   -5.8116    4.6089 C   0  0  0  0  0  0  0  0  0  0  0  0
    3.6353   -7.1312    3.9783 C   0  0  0  0  0  0  0  0  0  0  0  0
    2.5148   -4.0406    3.7595 C   0  0  0  0  0  0  0  0  0  0  0  0
    2.2014   -2.9970    2.9104 C   0  0  0  0  0  0  0  0  0  0  0  0
    3.9542   -0.8011    0.3510 C   0  0  0  0  0  0  0  0  0  0  0  0
    5.0417   -0.0147    0.7043 C   0  0  0  0  0  0  0  0  0  0  0  0
    5.6040    0.6708    2.1715 S   0  0  0  0  0  0  0  0  0  0  0  0
    0.6906   -2.4265   -0.1079 C   0  0  0  0  0  0  0  0  0  0  0  0
    0.0213   -2.6237   -1.3062 C   0  0  0  0  0  0  0  0  0  0  0  0
   -1.2941   -3.1715   -1.3592 C   0  0  0  0  0  0  0  0  0  0  0  0
   -2.0666   -3.1593   -2.4998 C   0  0  0  0  0  0  0  0  0  0  0  0
   -1.6069   -2.4319   -3.7301 C   0  0  0  0  0  0  0  0  0  0  0  0
   -0.0883   -2.3651   -3.7711 C   0  0  0  0  0  0  0  0  0  0  0  0
    0.6288   -2.2840   -2.5535 C   0  0  0  0  0  0  0  0  0  0  0  0
    1.9833   -1.8608   -2.5757 C   0  0  0  0  0  0  0  0  0  0  0  0
    2.6282   -1.6643   -3.8088 C   0  0  0  0  0  0  0  0  0  0  0  0
    1.9473   -1.8720   -4.9772 C   0  0  0  0  0  0  0  0  0  0  0  0
    0.5860   -2.1920   -4.9577 C   0  0  0  0  0  0  0  0  0  0  0  0
   -1.9964   -0.9473   -3.6253 C   0  0  0  0  0  0  0  0  0  0  0  0
   -2.5156   -0.3849   -2.4686 C   0  0  0  0  0  0  0  0  0  0  0  0
   -2.8018    0.9680   -2.4074 C   0  0  0  0  0  0  0  0  0  0  0  0
   -2.5798    1.7991   -3.4947 C   0  0  0  0  0  0  0  0  0  0  0  0
   -2.8423    3.2745   -3.4054 C   0  0  0  0  0  0  0  0  0  0  0  0
   -1.6053    4.0038   -2.8776 C   0  0  0  0  0  0  0  0  0  0  0  0
   -2.0609    1.2340   -4.6529 C   0  0  0  0  0  0  0  0  0  0  0  0
   -1.7717   -0.1142   -4.7163 C   0  0  0  0  0  0  0  0  0  0  0  0
   -2.2353   -3.0788   -4.9497 C   0  0  0  0  0  0  0  0  0  0  0  0
   -1.6888   -4.2387   -5.4849 C   0  0  0  0  0  0  0  0  0  0  0  0
   -2.2597   -4.8399   -6.5912 C   0  0  0  0  0  0  0  0  0  0  0  0
   -3.4059   -4.3172   -7.1777 C   0  0  0  0  0  0  0  0  0  0  0  0
   -4.0058   -4.9397   -8.4062 C   0  0  0  0  0  0  0  0  0  0  0  0
   -3.4207   -4.3025   -9.6677 C   0  0  0  0  0  0  0  0  0  0  0  0
   -3.9730   -3.1809   -6.6162 C   0  0  0  0  0  0  0  0  0  0  0  0
   -3.3985   -2.5709   -5.5168 C   0  0  0  0  0  0  0  0  0  0  0  0
   -3.3311   -3.7152   -2.2618 C   0  0  0  0  0  0  0  0  0  0  0  0
   -3.5284   -4.1335   -0.9416 C   0  0  0  0  0  0  0  0  0  0  0  0
   -2.1096   -3.8852    0.0185 S   0  0  0  0  0  0  0  0  0  0  0  0
   -4.8240   -4.5787   -0.6695 C   0  0  0  0  0  0  0  0  0  0  0  0
   -5.6221   -4.5257   -1.7898 C   0  0  0  0  0  0  0  0  0  0  0  0
   -4.7518   -3.9413   -3.2067 S   0  0  0  0  0  0  0  0  0  0  0  0
   -7.0318   -4.6558   -1.8858 C   0  0  0  0  0  0  0  0  0  0  0  0
   -7.7522   -4.7592   -3.0722 C   0  0  0  0  0  0  0  0  0  0  0  0
   -7.1840   -5.1380   -4.2775 N   0  0  0  0  0  0  0  0  0  0  0  0
   -6.3816   -6.2878   -4.3077 C   0  0  0  0  0  0  0  0  0  0  0  0
   -5.2965   -6.3747   -5.1760 C   0  0  0  0  0  0  0  0  0  0  0  0
   -4.4956   -7.4974   -5.1774 C   0  0  0  0  0  0  0  0  0  0  0  0
   -4.7430   -8.5618   -4.3180 C   0  0  0  0  0  0  0  0  0  0  0  0
   -3.8706   -9.7798   -4.3396 C   0  0  0  0  0  0  0  0  0  0  0  0
   -5.8279   -8.4686   -3.4561 C   0  0  0  0  0  0  0  0  0  0  0  0
   -6.6405   -7.3519   -3.4474 C   0  0  0  0  0  0  0  0  0  0  0  0
   -7.4770   -4.3995   -5.4319 C   0  0  0  0  0  0  0  0  0  0  0  0
   -7.6025   -5.0189   -6.6710 C   0  0  0  0  0  0  0  0  0  0  0  0
   -7.8827   -4.2662   -7.7955 C   0  0  0  0  0  0  0  0  0  0  0  0
   -8.0568   -2.8902   -7.7178 C   0  0  0  0  0  0  0  0  0  0  0  0
   -8.3470   -2.0684   -8.9344 C   0  0  0  0  0  0  0  0  0  0  0  0
   -7.9450   -2.2829   -6.4711 C   0  0  0  0  0  0  0  0  0  0  0  0
   -7.6565   -3.0204   -5.3418 C   0  0  0  0  0  0  0  0  0  0  0  0
   -9.1125   -4.4618   -2.8652 C   0  0  0  0  0  0  0  0  0  0  0  0
  -10.4405   -4.1933   -3.9297 S   0  0  0  0  0  0  0  0  0  0  0  0
  -11.4576   -3.7027   -2.5672 C   0  0  0  0  0  0  0  0  0  0  0  0
  -10.7795   -3.8112   -1.3388 C   0  0  0  0  0  0  0  0  0  0  0  0
  -11.3047   -3.4898   -0.1198 N   0  0  0  0  0  0  0  0  0  0  0  0
  -10.7932   -4.1082    1.0346 C   0  0  0  0  0  0  0  0  0  0  0  0
  -10.5776   -3.3712    2.1955 C   0  0  0  0  0  0  0  0  0  0  0  0
  -10.0888   -3.9925    3.3267 C   0  0  0  0  0  0  0  0  0  0  0  0
   -9.8019   -5.3532    3.3341 C   0  0  0  0  0  0  0  0  0  0  0  0
   -9.2443   -6.0123    4.5574 C   0  0  0  0  0  0  0  0  0  0  0  0
  -10.0280   -6.0818    2.1727 C   0  0  0  0  0  0  0  0  0  0  0  0
  -10.5218   -5.4743    1.0357 C   0  0  0  0  0  0  0  0  0  0  0  0
  -12.2749   -2.4751    0.0356 C   0  0  0  0  0  0  0  0  0  0  0  0
  -13.3548   -2.6780    0.8876 C   0  0  0  0  0  0  0  0  0  0  0  0
  -14.3017   -1.6854    1.0477 C   0  0  0  0  0  0  0  0  0  0  0  0
  -14.1955   -0.4780    0.3678 C   0  0  0  0  0  0  0  0  0  0  0  0
  -15.2468    0.5772    0.5177 C   0  0  0  0  0  0  0  0  0  0  0  0
  -13.1016   -0.2826   -0.4680 C   0  0  0  0  0  0  0  0  0  0  0  0
  -12.1421   -1.2615   -0.6316 C   0  0  0  0  0  0  0  0  0  0  0  0
   -9.4446   -4.2202   -1.5380 C   0  0  0  0  0  0  0  0  0  0  0  0
   -8.0630   -4.3667   -0.4980 S   0  0  0  0  0  0  0  0  0  0  0  0
  -12.7934   -3.3336   -2.7638 C   0  0  0  0  0  0  0  0  0  0  0  0
  -13.3848   -2.8977   -3.9226 C   0  0  0  0  0  0  0  0  0  0  0  0
  -14.8504   -2.9905   -4.0827 C   0  0  0  0  0  0  0  0  0  0  0  0
  -15.6651   -3.2637   -3.2265 O   0  0  0  0  0  0  0  0  0  0  0  0
  -15.1067   -2.7149   -5.5147 C   0  0  0  0  0  0  0  0  0  0  0  0
  -16.2957   -2.7683   -6.1982 C   0  0  0  0  0  0  0  0  0  0  0  0
  -16.2744   -2.4876   -7.5697 C   0  0  0  0  0  0  0  0  0  0  0  0
  -17.3599   -2.4743   -8.4891 C   0  0  0  0  0  0  0  0  0  0  0  0
  -16.9582   -2.1648   -9.7439 C   0  0  0  0  0  0  0  0  0  0  0  0
  -18.0532   -2.0337  -11.2619 Br  0  0  0  0  0  0  0  0  0  0  0  0
  -15.2455   -1.8726   -9.8915 S   0  0  0  0  0  0  0  0  0  0  0  0
  -15.0447   -2.1715   -8.1911 C   0  0  0  0  0  0  0  0  0  0  0  0
  -13.8415   -2.1069   -7.4979 C   0  0  0  0  0  0  0  0  0  0  0  0
  -13.8838   -2.3750   -6.1447 C   0  0  0  0  0  0  0  0  0  0  0  0
  -12.8323   -2.3431   -5.1308 C   0  0  0  0  0  0  0  0  0  0  0  0
  -11.6563   -1.6382   -5.2544 C   0  0  0  0  0  0  0  0  0  0  0  0
  -11.2328   -1.0240   -6.4450 C   0  0  0  0  0  0  0  0  0  0  0  0
  -10.8418   -0.4990   -7.3899 N   0  0  0  0  0  0  0  0  0  0  0  0
  -10.8138   -1.3266   -4.1714 C   0  0  0  0  0  0  0  0  0  0  0  0
  -10.1419   -0.9800   -3.3052 N   0  0  0  0  0  0  0  0  0  0  0  0
   10.3657    8.0546    3.7786 H   0  0  0  0  0  0  0  0  0  0  0  0
    6.7139    8.5103    8.8529 H   0  0  0  0  0  0  0  0  0  0  0  0
    6.0616   10.2762   10.9337 H   0  0  0  0  0  0  0  0  0  0  0  0
   10.1490   11.9448    7.6277 H   0  0  0  0  0  0  0  0  0  0  0  0
   10.1629    6.9634   -0.9844 H   0  0  0  0  0  0  0  0  0  0  0  0
   11.4501    5.6239   -2.5899 H   0  0  0  0  0  0  0  0  0  0  0  0
   12.8634    2.4251   -1.9336 H   0  0  0  0  0  0  0  0  0  0  0  0
   14.1247    3.6518   -1.9325 H   0  0  0  0  0  0  0  0  0  0  0  0
   12.8112    3.7466   -3.1089 H   0  0  0  0  0  0  0  0  0  0  0  0
   12.9051    3.1896    0.5962 H   0  0  0  0  0  0  0  0  0  0  0  0
   11.6332    4.5385    2.2094 H   0  0  0  0  0  0  0  0  0  0  0  0
    7.9239    8.1298    1.9790 H   0  0  0  0  0  0  0  0  0  0  0  0
    7.8322   10.5657    1.7124 H   0  0  0  0  0  0  0  0  0  0  0  0
    8.8296   12.6268    1.0504 H   0  0  0  0  0  0  0  0  0  0  0  0
   10.3102   12.5717    0.0815 H   0  0  0  0  0  0  0  0  0  0  0  0
   10.4110   12.7147    1.8317 H   0  0  0  0  0  0  0  0  0  0  0  0
   11.9486   10.6052    0.5932 H   0  0  0  0  0  0  0  0  0  0  0  0
   12.0572    8.1730    0.8892 H   0  0  0  0  0  0  0  0  0  0  0  0
    4.9791    0.6553    5.4239 H   0  0  0  0  0  0  0  0  0  0  0  0
    5.3796   -1.7079    5.9310 H   0  0  0  0  0  0  0  0  0  0  0  0
    7.8809   -3.2948    6.5515 H   0  0  0  0  0  0  0  0  0  0  0  0
    6.7127   -3.7347    5.3076 H   0  0  0  0  0  0  0  0  0  0  0  0
    8.4282   -3.5628    4.8967 H   0  0  0  0  0  0  0  0  0  0  0  0
    9.3489   -1.3634    4.4116 H   0  0  0  0  0  0  0  0  0  0  0  0
    8.9608    0.9996    3.9113 H   0  0  0  0  0  0  0  0  0  0  0  0
    6.2927    2.3553    6.9148 H   0  0  0  0  0  0  0  0  0  0  0  0
    4.6953    3.7822    8.1145 H   0  0  0  0  0  0  0  0  0  0  0  0
    2.1521    5.8982    6.4785 H   0  0  0  0  0  0  0  0  0  0  0  0
    3.5213    6.5801    7.3537 H   0  0  0  0  0  0  0  0  0  0  0  0
    2.6719    5.1834    8.0137 H   0  0  0  0  0  0  0  0  0  0  0  0
    3.4636    5.5249    4.4211 H   0  0  0  0  0  0  0  0  0  0  0  0
    5.0310    4.0707    3.2130 H   0  0  0  0  0  0  0  0  0  0  0  0
    7.5394    1.7027   -0.7484 H   0  0  0  0  0  0  0  0  0  0  0  0
    0.7291    0.3235    0.3428 H   0  0  0  0  0  0  0  0  0  0  0  0
   -0.0732    2.2861    1.5659 H   0  0  0  0  0  0  0  0  0  0  0  0
    1.5665    3.6287    4.5868 H   0  0  0  0  0  0  0  0  0  0  0  0
    0.4163    3.9864    3.2870 H   0  0  0  0  0  0  0  0  0  0  0  0
   -0.7602    3.6992    5.4607 H   0  0  0  0  0  0  0  0  0  0  0  0
   -1.2359    2.4318    4.3250 H   0  0  0  0  0  0  0  0  0  0  0  0
   -0.0893    2.0722    5.6161 H   0  0  0  0  0  0  0  0  0  0  0  0
    2.6759    1.4680    4.7186 H   0  0  0  0  0  0  0  0  0  0  0  0
    3.4595   -0.5243    3.5175 H   0  0  0  0  0  0  0  0  0  0  0  0
    5.0934   -2.8428    1.1813 H   0  0  0  0  0  0  0  0  0  0  0  0
    5.6452   -4.6793    2.6955 H   0  0  0  0  0  0  0  0  0  0  0  0
    5.1605   -5.8500    4.7897 H   0  0  0  0  0  0  0  0  0  0  0  0
    3.5803   -5.6826    5.5694 H   0  0  0  0  0  0  0  0  0  0  0  0
    2.5624   -7.1195    3.7999 H   0  0  0  0  0  0  0  0  0  0  0  0
    4.1378   -7.2841    3.0258 H   0  0  0  0  0  0  0  0  0  0  0  0
    3.8704   -7.9664    4.6340 H   0  0  0  0  0  0  0  0  0  0  0  0
    1.7863   -4.3743    4.4849 H   0  0  0  0  0  0  0  0  0  0  0  0
    1.2389   -2.5128    2.9890 H   0  0  0  0  0  0  0  0  0  0  0  0
    0.2018   -2.6764    0.8218 H   0  0  0  0  0  0  0  0  0  0  0  0
    3.6624   -1.3546   -3.8176 H   0  0  0  0  0  0  0  0  0  0  0  0
    2.4465   -1.7526   -5.9273 H   0  0  0  0  0  0  0  0  0  0  0  0
    0.0614   -2.2932   -5.8961 H   0  0  0  0  0  0  0  0  0  0  0  0
   -2.7105   -0.9917   -1.5979 H   0  0  0  0  0  0  0  0  0  0  0  0
   -3.2087    1.3797   -1.4946 H   0  0  0  0  0  0  0  0  0  0  0  0
   -3.0975    3.6659   -4.3921 H   0  0  0  0  0  0  0  0  0  0  0  0
   -3.6840    3.4611   -2.7353 H   0  0  0  0  0  0  0  0  0  0  0  0
   -1.7927    5.0730   -2.8103 H   0  0  0  0  0  0  0  0  0  0  0  0
   -0.7582    3.8397   -3.5402 H   0  0  0  0  0  0  0  0  0  0  0  0
   -1.3406    3.6336   -1.8896 H   0  0  0  0  0  0  0  0  0  0  0  0
   -1.8808    1.8574   -5.5172 H   0  0  0  0  0  0  0  0  0  0  0  0
   -1.3724   -0.5248   -5.6309 H   0  0  0  0  0  0  0  0  0  0  0  0
   -0.8036   -4.6675   -5.0363 H   0  0  0  0  0  0  0  0  0  0  0  0
   -1.8087   -5.7315   -7.0039 H   0  0  0  0  0  0  0  0  0  0  0  0
   -5.0883   -4.7934   -8.3999 H   0  0  0  0  0  0  0  0  0  0  0  0
   -3.8044   -6.0131   -8.4174 H   0  0  0  0  0  0  0  0  0  0  0  0
   -2.3427   -4.4453   -9.7007 H   0  0  0  0  0  0  0  0  0  0  0  0
   -3.8577   -4.7492  -10.5577 H   0  0  0  0  0  0  0  0  0  0  0  0
   -3.6253   -3.2342   -9.6791 H   0  0  0  0  0  0  0  0  0  0  0  0
   -4.8825   -2.7740   -7.0352 H   0  0  0  0  0  0  0  0  0  0  0  0
   -3.8631   -1.6896   -5.1008 H   0  0  0  0  0  0  0  0  0  0  0  0
   -5.1747   -4.9071    0.2919 H   0  0  0  0  0  0  0  0  0  0  0  0
   -5.0761   -5.5485   -5.8317 H   0  0  0  0  0  0  0  0  0  0  0  0
   -3.6515   -7.5398   -5.8501 H   0  0  0  0  0  0  0  0  0  0  0  0
   -3.9904  -10.3609   -3.4286 H   0  0  0  0  0  0  0  0  0  0  0  0
   -2.8240   -9.5013   -4.4454 H   0  0  0  0  0  0  0  0  0  0  0  0
   -4.1344  -10.4154   -5.1857 H   0  0  0  0  0  0  0  0  0  0  0  0
   -6.0457   -9.2842   -2.7814 H   0  0  0  0  0  0  0  0  0  0  0  0
   -7.4818   -7.3045   -2.7711 H   0  0  0  0  0  0  0  0  0  0  0  0
   -7.4833   -6.0896   -6.7482 H   0  0  0  0  0  0  0  0  0  0  0  0
   -7.9778   -4.7624   -8.7514 H   0  0  0  0  0  0  0  0  0  0  0  0
   -8.5948   -2.7003   -9.7837 H   0  0  0  0  0  0  0  0  0  0  0  0
   -9.1763   -1.3908   -8.7390 H   0  0  0  0  0  0  0  0  0  0  0  0
   -7.4790   -1.4629   -9.1965 H   0  0  0  0  0  0  0  0  0  0  0  0
   -8.0808   -1.2146   -6.3876 H   0  0  0  0  0  0  0  0  0  0  0  0
   -7.5597   -2.5292   -4.3845 H   0  0  0  0  0  0  0  0  0  0  0  0
  -10.7900   -2.3126    2.2009 H   0  0  0  0  0  0  0  0  0  0  0  0
   -9.9212   -3.4089    4.2201 H   0  0  0  0  0  0  0  0  0  0  0  0
   -8.1561   -5.9402    4.5535 H   0  0  0  0  0  0  0  0  0  0  0  0
   -9.6091   -5.5280    5.4601 H   0  0  0  0  0  0  0  0  0  0  0  0
   -9.5115   -7.0659    4.5876 H   0  0  0  0  0  0  0  0  0  0  0  0
   -9.8237   -7.1425    2.1599 H   0  0  0  0  0  0  0  0  0  0  0  0
  -10.7122   -6.0576    0.1465 H   0  0  0  0  0  0  0  0  0  0  0  0
  -13.4495   -3.6163    1.4146 H   0  0  0  0  0  0  0  0  0  0  0  0
  -15.1413   -1.8550    1.7056 H   0  0  0  0  0  0  0  0  0  0  0  0
  -15.6629    0.5714    1.5226 H   0  0  0  0  0  0  0  0  0  0  0  0
  -14.8412    1.5637    0.3067 H   0  0  0  0  0  0  0  0  0  0  0  0
  -16.0602    0.3883   -0.1836 H   0  0  0  0  0  0  0  0  0  0  0  0
  -12.9910    0.6549   -0.9930 H   0  0  0  0  0  0  0  0  0  0  0  0
  -11.2937   -1.0917   -1.2777 H   0  0  0  0  0  0  0  0  0  0  0  0
  -13.4711   -3.4775   -1.9289 H   0  0  0  0  0  0  0  0  0  0  0  0
  -17.2161   -3.0169   -5.6935 H   0  0  0  0  0  0  0  0  0  0  0  0
  -18.3789   -2.6844   -8.2197 H   0  0  0  0  0  0  0  0  0  0  0  0
  -12.9265   -1.8663   -8.0132 H   0  0  0  0  0  0  0  0  0  0  0  0
  1  2  2  0  0  0  0
  2  3  1  0  0  0  0
  3  4  2  0  0  0  0
  3  5  1  0  0  0  0
  5  6  2  0  0  0  0
  6  7  1  0  0  0  0
  7  8  1  0  0  0  0
  8  9  2  0  0  0  0
  9 10  1  0  0  0  0
  9 11  1  0  0  0  0
 11 12  1  0  0  0  0
 12 13  1  0  0  0  0
 13 14  2  0  0  0  0
 14 15  1  0  0  0  0
 15 16  2  0  0  0  0
 16 17  1  0  0  0  0
 17 18  3  0  0  0  0
 16 19  1  0  0  0  0
 19 20  3  0  0  0  0
  1 21  1  0  0  0  0
 21 22  2  0  0  0  0
 22 23  1  0  0  0  0
 23 24  1  0  0  0  0
 24 25  2  0  0  0  0
 25 26  1  0  0  0  0
 26 27  2  0  0  0  0
 27 28  1  0  0  0  0
 27 29  1  0  0  0  0
 29 30  2  0  0  0  0
 23 31  1  0  0  0  0
 31 32  2  0  0  0  0
 32 33  1  0  0  0  0
 33 34  2  0  0  0  0
 34 35  1  0  0  0  0
 34 36  1  0  0  0  0
 36 37  2  0  0  0  0
 22 38  1  0  0  0  0
 38 39  1  0  0  0  0
 39 40  1  0  0  0  0
 40 41  2  0  0  0  0
 41 42  1  0  0  0  0
 42 43  1  0  0  0  0
 43 44  2  0  0  0  0
 44 45  1  0  0  0  0
 45 46  2  0  0  0  0
 46 47  1  0  0  0  0
 46 48  1  0  0  0  0
 48 49  2  0  0  0  0
 42 50  1  0  0  0  0
 50 51  2  0  0  0  0
 51 52  1  0  0  0  0
 52 53  2  0  0  0  0
 53 54  1  0  0  0  0
 53 55  1  0  0  0  0
 55 56  2  0  0  0  0
 41 57  1  0  0  0  0
 57 58  1  0  0  0  0
 40 59  1  0  0  0  0
 59 60  2  0  0  0  0
 60 61  1  0  0  0  0
 61 62  1  0  0  0  0
 62 63  1  0  0  0  0
 63 64  1  0  0  0  0
 64 65  2  0  0  0  0
 65 66  1  0  0  0  0
 66 67  1  0  0  0  0
 67 68  2  0  0  0  0
 68 69  1  0  0  0  0
 69 70  2  0  0  0  0
 70 71  1  0  0  0  0
 71 72  1  0  0  0  0
 70 73  1  0  0  0  0
 73 74  2  0  0  0  0
 66 75  1  0  0  0  0
 75 76  2  0  0  0  0
 76 77  1  0  0  0  0
 77 78  2  0  0  0  0
 78 79  1  0  0  0  0
 79 80  1  0  0  0  0
 78 81  1  0  0  0  0
 81 82  2  0  0  0  0
 66 83  1  0  0  0  0
 83 84  1  0  0  0  0
 84 85  1  0  0  0  0
 65 86  1  0  0  0  0
 86 87  2  0  0  0  0
 87 88  1  0  0  0  0
 88 89  2  0  0  0  0
 89 90  1  0  0  0  0
 90 91  1  0  0  0  0
 91 92  1  0  0  0  0
 92 93  2  0  0  0  0
 93 94  1  0  0  0  0
 94 95  2  0  0  0  0
 95 96  1  0  0  0  0
 90 97  1  0  0  0  0
 97 98  2  0  0  0  0
 98 99  1  0  0  0  0
 99100  2  0  0  0  0
100101  1  0  0  0  0
101102  1  0  0  0  0
100103  1  0  0  0  0
103104  2  0  0  0  0
 90105  1  0  0  0  0
105106  2  0  0  0  0
106107  1  0  0  0  0
107108  2  0  0  0  0
108109  1  0  0  0  0
109110  1  0  0  0  0
108111  1  0  0  0  0
111112  2  0  0  0  0
 89113  1  0  0  0  0
113114  2  0  0  0  0
114115  1  0  0  0  0
114116  1  0  0  0  0
116117  2  0  0  0  0
117118  1  0  0  0  0
117119  1  0  0  0  0
119120  2  0  0  0  0
120121  1  0  0  0  0
121122  1  0  0  0  0
122123  2  0  0  0  0
123124  1  0  0  0  0
124125  2  0  0  0  0
125126  1  0  0  0  0
125127  1  0  0  0  0
127128  2  0  0  0  0
121129  1  0  0  0  0
129130  2  0  0  0  0
130131  1  0  0  0  0
131132  2  0  0  0  0
132133  1  0  0  0  0
132134  1  0  0  0  0
134135  2  0  0  0  0
120136  1  0  0  0  0
136137  1  0  0  0  0
137138  1  0  0  0  0
138139  2  0  0  0  0
139140  1  0  0  0  0
140141  1  0  0  0  0
141142  2  0  0  0  0
142143  1  0  0  0  0
143144  2  0  0  0  0
144145  1  0  0  0  0
144146  1  0  0  0  0
146147  2  0  0  0  0
140148  1  0  0  0  0
148149  2  0  0  0  0
149150  1  0  0  0  0
150151  2  0  0  0  0
151152  1  0  0  0  0
151153  1  0  0  0  0
153154  2  0  0  0  0
139155  1  0  0  0  0
155156  1  0  0  0  0
138157  1  0  0  0  0
157158  2  0  0  0  0
158159  1  0  0  0  0
159160  2  0  0  0  0
159161  1  0  0  0  0
161162  2  0  0  0  0
162163  1  0  0  0  0
163164  1  0  0  0  0
164165  2  0  0  0  0
165166  1  0  0  0  0
165167  1  0  0  0  0
167168  1  0  0  0  0
168169  1  0  0  0  0
169170  2  0  0  0  0
170171  1  0  0  0  0
171172  2  0  0  0  0
172173  1  0  0  0  0
173174  3  0  0  0  0
172175  1  0  0  0  0
175176  3  0  0  0  0
 15  2  1  0  0  0  0
 58 21  1  0  0  0  0
 85 59  1  0  0  0  0
 92 87  1  0  0  0  0
104 97  1  0  0  0  0
112105  1  0  0  0  0
118113  1  0  0  0  0
156119  1  0  0  0  0
171158  1  0  0  0  0
 14  5  1  0  0  0  0
 30 24  1  0  0  0  0
 37 31  1  0  0  0  0
 57 38  2  0  0  0  0
 84 61  2  0  0  0  0
115 88  1  0  0  0  0
128122  1  0  0  0  0
135129  1  0  0  0  0
155136  2  0  0  0  0
170161  1  0  0  0  0
 12  7  2  0  0  0  0
 49 43  1  0  0  0  0
 56 50  1  0  0  0  0
 83 63  2  0  0  0  0
 96 91  2  0  0  0  0
147141  1  0  0  0  0
154148  1  0  0  0  0
168163  2  0  0  0  0
 93 64  1  0  0  0  0
 74 67  1  0  0  0  0
 82 75  1  0  0  0  0
  1177  1  0  0  0  0
  6178  1  0  0  0  0
  8179  1  0  0  0  0
 13180  1  0  0  0  0
 25181  1  0  0  0  0
 26182  1  0  0  0  0
 28183  1  0  0  0  0
 28184  1  0  0  0  0
 28185  1  0  0  0  0
 29186  1  0  0  0  0
 30187  1  0  0  0  0
 32188  1  0  0  0  0
 33189  1  0  0  0  0
 35190  1  0  0  0  0
 35191  1  0  0  0  0
 35192  1  0  0  0  0
 36193  1  0  0  0  0
 37194  1  0  0  0  0
 44195  1  0  0  0  0
 45196  1  0  0  0  0
 47197  1  0  0  0  0
 47198  1  0  0  0  0
 47199  1  0  0  0  0
 48200  1  0  0  0  0
 49201  1  0  0  0  0
 51202  1  0  0  0  0
 52203  1  0  0  0  0
 54204  1  0  0  0  0
 54205  1  0  0  0  0
 54206  1  0  0  0  0
 55207  1  0  0  0  0
 56208  1  0  0  0  0
 60209  1  0  0  0  0
 68210  1  0  0  0  0
 69211  1  0  0  0  0
 71212  1  0  0  0  0
 71213  1  0  0  0  0
 72214  1  0  0  0  0
 72215  1  0  0  0  0
 72216  1  0  0  0  0
 73217  1  0  0  0  0
 74218  1  0  0  0  0
 76219  1  0  0  0  0
 77220  1  0  0  0  0
 79221  1  0  0  0  0
 79222  1  0  0  0  0
 80223  1  0  0  0  0
 80224  1  0  0  0  0
 80225  1  0  0  0  0
 81226  1  0  0  0  0
 82227  1  0  0  0  0
 86228  1  0  0  0  0
 94229  1  0  0  0  0
 95230  1  0  0  0  0
 96231  1  0  0  0  0
 98232  1  0  0  0  0
 99233  1  0  0  0  0
101234  1  0  0  0  0
101235  1  0  0  0  0
102236  1  0  0  0  0
102237  1  0  0  0  0
102238  1  0  0  0  0
103239  1  0  0  0  0
104240  1  0  0  0  0
106241  1  0  0  0  0
107242  1  0  0  0  0
109243  1  0  0  0  0
109244  1  0  0  0  0
110245  1  0  0  0  0
110246  1  0  0  0  0
110247  1  0  0  0  0
111248  1  0  0  0  0
112249  1  0  0  0  0
116250  1  0  0  0  0
123251  1  0  0  0  0
124252  1  0  0  0  0
126253  1  0  0  0  0
126254  1  0  0  0  0
126255  1  0  0  0  0
127256  1  0  0  0  0
128257  1  0  0  0  0
130258  1  0  0  0  0
131259  1  0  0  0  0
133260  1  0  0  0  0
133261  1  0  0  0  0
133262  1  0  0  0  0
134263  1  0  0  0  0
135264  1  0  0  0  0
142265  1  0  0  0  0
143266  1  0  0  0  0
145267  1  0  0  0  0
145268  1  0  0  0  0
145269  1  0  0  0  0
146270  1  0  0  0  0
147271  1  0  0  0  0
149272  1  0  0  0  0
150273  1  0  0  0  0
152274  1  0  0  0  0
152275  1  0  0  0  0
152276  1  0  0  0  0
153277  1  0  0  0  0
154278  1  0  0  0  0
157279  1  0  0  0  0
162280  1  0  0  0  0
164281  1  0  0  0  0
169282  1  0  0  0  0
M  END
