199

C         -3.86870       -7.13570       -5.53410
C         -4.69590       -7.59720       -6.54130
C         -4.72050       -7.03840       -7.89760
O         -4.08550       -6.09040       -8.32420
C         -5.58340       -7.94760       -8.68550
C         -5.90780       -7.87260      -10.01560
C         -6.75530       -8.85810      -10.53740
C         -7.23690       -9.00000      -11.86810
C         -8.03630      -10.08390      -12.00560
Br        -8.88150      -10.64870      -13.58330
S         -8.25690      -10.99640      -10.53670
C         -7.23070       -9.88020       -9.68590
C         -6.89740       -9.95840       -8.33800
C         -6.06560       -8.97620       -7.84110
C         -5.54000       -8.75410       -6.49780
C         -5.92140       -9.42880       -5.36120
C         -6.85100      -10.48290       -5.34660
N         -7.62080      -11.33370       -5.27620
C         -5.49600       -9.08450       -4.06410
N         -5.21740       -8.83820       -2.97680
C         -3.35990       -5.84540       -5.41570
C         -3.81450       -4.60830       -5.93020
N         -5.02420       -4.37040       -6.50400
C         -6.14810       -5.18600       -6.30220
C         -6.99810       -5.46050       -7.37090
C         -8.08760       -6.29400       -7.19750
C         -8.36530       -6.86430       -5.96290
C         -9.51420       -7.80430       -5.77800
C         -7.53880       -6.54230       -4.88790
C         -6.44590       -5.71770       -5.04820
C         -5.20370       -3.22550       -7.31480
C         -6.25890       -2.35800       -7.05320
C         -6.45350       -1.25140       -7.85540
C         -5.61820       -0.99820       -8.93800
C         -5.82390        0.21330       -9.79380
C         -4.58180       -1.88620       -9.19910
C         -4.36150       -2.98610       -8.39340
C         -2.89930       -3.57740       -5.60640
S         -2.82180       -1.87810       -5.94140
C         -1.40530       -1.71050       -4.91980
C         -1.00210       -2.92140       -4.37970
N          0.09140       -3.08550       -3.54760
C          1.25310       -2.32300       -3.74520
C          1.92830       -1.77220       -2.65820
C          3.02710       -0.96360       -2.86130
C          3.50020       -0.70270       -4.14280
C          4.66250        0.21860       -4.35100
C          2.85190       -1.29800       -5.21700
C          1.73530       -2.08850       -5.02840
C         -0.00360       -3.97160       -2.46440
C          1.09410       -4.73620       -2.08130
C          0.98750       -5.61960       -1.02540
C         -0.20710       -5.77220       -0.33250
C         -0.33600       -6.75800        0.78750
C         -1.29510       -4.99640       -0.71520
C         -1.19890       -4.10090       -1.76070
C         -1.85110       -3.97560       -4.78860
S         -1.91120       -5.65490       -4.41400
C         -0.84580       -0.45130       -4.48940
C         -0.08280        0.51160       -5.11080
C          0.23540        0.57930       -6.53720
C          1.50340        0.99850       -6.93680
C          1.82130        1.07650       -8.27830
C          0.88450        0.73890       -9.23750
C         -0.38800        0.32800       -8.86070
C         -1.38510       -0.08330       -9.90450
C         -1.12760       -1.53150      -10.32620
C         -0.70290        0.25660       -7.51260
C          0.44420        1.42720       -4.16350
S          1.50950        2.80580       -4.31320
C          1.45960        3.01260       -2.59690
C          1.98710        3.85660       -1.60740
C          2.79250        5.00820       -1.72770
C          3.13220        5.73850       -0.54350
N          3.86120        6.81340       -0.80080
S          4.10030        6.89620       -2.40100
N          3.28440        5.56300       -2.82480
C          2.71820        5.23340        0.70690
C          3.01600        5.67810        2.00370
S          3.89820        6.94340        2.78880
C          3.53910        6.20310        4.33240
C          3.87150        6.54980        5.65950
C          4.57950        7.78800        5.99120
C          4.12200        8.61940        7.01150
C          4.77010        9.81140        7.26860
C          5.86740       10.18940        6.51270
C          6.33380        9.37490        5.48950
C          7.48290        9.79780        4.62120
C          6.96130       10.43600        3.33200
C          5.68120        8.17690        5.23790
C          3.36160        5.63560        6.56120
S          2.43010        4.37010        5.77200
C          2.76270        5.04920        4.22070
C          2.45890        4.75270        2.88540
N          1.81930        3.76660        2.18600
C          1.94580        4.04100        0.83500
C          1.50570        3.38480       -0.35100
N          0.67330        2.30520       -0.59830
C          0.65960        2.07610       -1.94670
C          0.07170        1.17530       -2.84650
S         -0.96300       -0.19760       -2.74610
C         -0.23170        1.55730        0.24170
C          0.30400        0.16010        0.55780
C          1.27740        2.64790        2.91890
C         -0.07630        2.98420        3.54540
C          3.56220        5.52800        7.98480
C          4.73560        5.98910        8.59530
C          4.94630        5.81250        9.94190
C          3.98740        5.17610       10.74200
C          2.78890        4.76360       10.13740
C          2.59390        4.90930        8.78700
C          4.14540        4.95560       12.15100
C          5.28360        4.69680       12.85080
C          6.59250        4.27790       12.28300
O          6.95430        4.28200       11.12740
C          7.36920        3.75990       13.42860
C          8.62320        3.19950       13.40490
C          9.16470        2.76130       14.61750
C         10.42710        2.15290       14.85790
C         10.60530        1.85390       16.16660
Br        12.11670        1.04290       16.92510
S          9.26030        2.29040       17.18690
C          8.40690        2.90700       15.80430
C          7.13960        3.47490       15.82800
C          6.62070        3.90700       14.62090
C          5.34700        4.53330       14.29560
C          4.41350        4.96070       15.20290
C          3.22510        5.65170       14.88350
N          2.25010        6.23380       14.71190
C          4.53560        4.79520       16.59850
N          4.57540        4.68260       17.74030
H         -3.53670       -7.84010       -4.78060
H         -5.52540       -7.07910      -10.63860
H         -6.99320       -8.32890      -12.67150
H         -7.27570      -10.76300       -7.72960
H         -6.78960       -5.02920       -8.33850
H         -8.72340       -6.51310       -8.04310
H        -10.15110       -7.47320       -4.95950
H         -9.15140       -8.80160       -5.52840
H        -10.11170       -7.87280       -6.68310
H         -7.75280       -6.95260       -3.91190
H         -5.81700       -5.48740       -4.20130
H         -6.91850       -2.55630       -6.22100
H         -7.26870       -0.57580       -7.64100
H         -6.88240        0.44050       -9.89820
H         -5.39300        0.07040      -10.78180
H         -5.34050        1.07690       -9.33550
H         -3.94700       -1.72370      -10.05580
H         -3.57300       -3.68960       -8.60980
H          1.57360       -1.97430       -1.65780
H          3.52300       -0.51750       -2.01090
H          4.34750        1.25370       -4.20960
H          5.06300        0.11820       -5.35660
H          5.45430        0.01260       -3.63340
H          3.21770       -1.13850       -6.22050
H          1.22880       -2.52280       -5.87780
H          2.02510       -4.63630       -2.61950
H          1.84700       -6.21050       -0.74320
H         -0.89930       -7.62900        0.45230
H         -0.87160       -6.32020        1.62790
H          0.64060       -7.09310        1.12750
H         -2.23040       -5.09300       -0.18330
H         -2.04770       -3.49030       -2.03370
H          2.24520        1.24960       -6.19700
H          2.80670        1.40360       -8.57620
H          1.13650        0.80240      -10.28640
H         -1.29600        0.56750      -10.77720
H         -2.39670        0.00850       -9.50540
H         -1.80230       -1.82860      -11.12620
H         -1.27150       -2.20050       -9.48080
H         -0.10610       -1.64460      -10.68250
H         -1.70210       -0.02860       -7.21920
H          3.25630        8.33180        7.58980
H          4.41300       10.45480        8.05920
H          6.36430       11.12660        6.71790
H          8.09520        8.92950        4.36890
H          8.10900       10.51550        5.15450
H          7.78940       10.74010        2.69630
H          6.35930       11.31240        3.56170
H          6.34160        9.73010        2.78370
H          6.04370        7.53030        4.45210
H         -0.44560        2.12510        1.14270
H         -1.17180        1.44880       -0.31050
H          1.32270        0.19860        0.93850
H          0.30720       -0.44650       -0.34340
H         -0.33190       -0.32370        1.29400
H          1.98360        2.41630        3.72400
H          1.22000        1.77720        2.27340
H         -0.49600        2.09950        4.01600
H          0.04610        3.75260        4.30410
H         -0.77840        3.35680        2.80210
H          5.49340        6.46760        7.99530
H          5.85250        6.18660       10.38730
H          2.02680        4.29380       10.74240
H          1.67800        4.55800        8.33290
H          3.21300        4.94040       12.70500
H          9.16850        3.10240       12.47910
H         11.15390        1.95250       14.09200
H          6.59930        3.55790       16.75620
