209

C          7.63590       -3.99510        1.91620
C          6.62390       -4.49490        2.70280
C          5.20500       -4.52920        2.29980
O          4.72640       -4.37350        1.19410
C          4.44370       -4.68740        3.55610
C          3.08100       -4.67590        3.71720
C          2.57810       -4.79820        5.01710
C          1.22200       -4.78830        5.44450
C          1.11400       -4.90850        6.78810
Br        -0.48320       -4.92050        7.76590
S          2.64180       -5.04910        7.61640
C          3.48090       -4.93430        6.09700
C          4.86220       -4.95240        5.93140
C          5.34160       -4.82200        4.64200
C          6.70310       -4.76740        4.11810
C          7.85320       -5.02130        4.82320
C          9.13200       -5.08120        4.23310
N         10.19080       -5.17960        3.79900
C          7.88440       -5.30740        6.20150
N          7.95920       -5.53800        7.32400
C          7.54460       -3.76550        0.53270
C          6.84310       -4.45350       -0.46520
C          6.35850       -5.79790       -0.33850
C          6.78620       -6.79380        0.50090
C          6.08550       -7.99820        0.32760
C          5.12100       -7.93300       -0.63670
C          4.21210       -9.01570       -1.10630
C          4.62250       -9.52160       -2.49100
S          5.07800       -6.36740       -1.36520
C          6.73950       -3.70790       -1.64660
C          7.37170       -2.48370       -1.60330
S          8.22410       -2.27370       -0.10140
C          7.15940       -1.41340       -2.51480
C          7.79680       -0.18650       -2.62450
C          9.11460        0.10350       -2.06520
C         10.13750       -0.84010       -2.14940
C         11.38840       -0.54600       -1.64460
C         11.63470        0.68510       -1.06050
C         10.62890        1.63880       -0.97210
C         10.89630        2.99890       -0.39590
C         11.17940        4.00100       -1.51700
C          9.37350        1.33690       -1.47740
C          7.00860        0.73310       -3.34640
S          7.15230        2.45130       -3.66180
C          5.53420        2.46080       -4.28680
C          4.50400        3.38270       -4.54720
C          4.42400        4.78120       -4.34680
C          3.12710        5.38950       -4.18190
N          3.21140        6.66910       -3.85830
S          4.77540        7.08500       -3.78670
N          5.41030        5.63870       -4.14730
C          1.96710        4.60070       -4.35700
C          0.60260        4.80560       -4.06660
S         -0.39250        5.90750       -3.17220
C         -1.69440        4.73870       -3.18920
C         -2.90200        4.61240       -2.46080
C         -3.48950        5.61010       -1.57110
C         -2.69280        6.52170       -0.88330
C         -3.26850        7.42230       -0.00760
C         -4.63810        7.43870        0.18230
C         -5.45480        6.56170       -0.52140
C         -6.94830        6.62210       -0.37150
C         -7.53570        7.67660       -1.31100
C         -4.87150        5.65900       -1.39500
C         -3.47570        3.37340       -2.67160
S         -2.61360        2.40800       -3.86260
C         -1.38620        3.61390       -3.95240
C         -0.07400        3.64160       -4.43460
N          0.80350        2.72330       -4.95310
C          2.07190        3.26760       -4.83210
C          3.32800        2.61910       -4.78140
N          3.63480        1.27920       -4.66750
C          4.95960        1.18660       -4.33730
C          5.79750        0.20480       -3.80050
S          5.63600       -1.46410       -3.39780
C          2.77050        0.13270       -4.50790
C          2.88130       -0.83020       -5.68760
C          0.36310        1.75120       -5.93150
C         -0.38390        2.42650       -7.08090
C         -4.40720        2.69160       -1.81720
C         -4.22310        2.50810       -0.45590
N         -3.20150        3.05600        0.30540
C         -1.87320        3.01550       -0.13000
C         -1.40380        1.96310       -0.91190
C         -0.08470        1.93400       -1.32490
C          0.80400        2.93630       -0.96380
C          2.24950        2.88230       -1.35410
C          0.32830        3.98430       -0.18190
C         -0.98560        4.02800        0.23260
C         -3.51820        3.47770        1.60690
C         -4.73260        4.11050        1.85290
C         -5.06420        4.50650        3.13340
C         -4.20000        4.28910        4.19730
C         -4.56540        4.69420        5.59220
C         -2.98800        3.65750        3.94200
C         -2.64720        3.25050        2.66910
C         -5.18200        1.61570        0.07480
S         -5.37790        0.92440        1.64190
C         -6.64580       -0.13380        1.01050
C         -6.98030        0.18010       -0.33840
N         -8.01390       -0.37050       -1.03920
C         -9.25060       -0.67480       -0.43860
C        -10.00500       -1.74840       -0.90530
C        -11.22370       -2.03740       -0.32580
C        -11.71810       -1.27820        0.72870
C        -13.03630       -1.61890        1.35210
C        -10.96330       -0.20090        1.17700
C         -9.74730        0.10750        0.60060
C         -7.87950       -0.53330       -2.43300
C         -8.89790       -0.14190       -3.29570
C         -8.75050       -0.31250       -4.65760
C         -7.59380       -0.86920       -5.19110
C         -7.42890       -1.02610       -6.67090
C         -6.58410       -1.25990       -4.31970
C         -6.72060       -1.09980       -2.95540
C         -6.07780        1.12100       -0.86460
S         -5.75830        1.76380       -2.44840
C         -7.09500       -1.28940        1.63850
C         -6.69910       -1.85270        2.83740
C         -5.86760       -1.20920        3.85170
O         -5.44640       -0.06320        3.85850
C         -5.65320       -2.21570        4.90870
C         -4.86840       -2.11580        6.03020
C         -4.77730       -3.23600        6.86450
C         -4.02150       -3.39670        8.05810
C         -4.17200       -4.63150        8.59150
Br        -3.36550       -5.27080       10.15630
S         -5.23610       -5.67230        7.68590
C         -5.50040       -4.40340        6.52770
C         -6.30190       -4.49990        5.39500
C         -6.37100       -3.38990        4.57550
C         -7.04210       -3.17630        3.29380
C         -7.81070       -4.11570        2.64410
C         -8.33680       -3.99400        1.34540
N         -8.76750       -4.00460        0.27860
C         -8.15210       -5.36840        3.18980
N         -8.48250       -6.39690        3.58110
H          8.52120       -3.60560        2.40680
H          2.42280       -4.56760        2.86950
H          0.38260       -4.69010        4.78020
H          5.51250       -5.04850        6.78530
H          7.59320       -6.66730        1.20070
H          6.28480       -8.88730        0.89980
H          3.18680       -8.64070       -1.15270
H          4.24450       -9.83830       -0.38900
H          4.58160       -8.71040       -3.21410
H          5.63740       -9.91160       -2.46530
H          3.95320      -10.31390       -2.81600
H          6.18950       -4.04860       -2.50730
H          9.95220       -1.79090       -2.62750
H         12.17930       -1.27820       -1.71220
H         12.61760        0.90810       -0.67150
H         10.02820        3.33540        0.17460
H         11.75380        2.95590        0.27800
H         10.32720        4.06740       -2.18950
H         11.37490        4.98780       -1.10420
H         12.04690        3.68740       -2.09360
H          8.58110        2.06640       -1.39900
H         -1.62340        6.51260       -1.02030
H         -2.64150        8.11550        0.53370
H         -5.07960        8.13990        0.87560
H         -7.38630        5.64910       -0.60520
H         -7.20500        6.87490        0.65950
H         -7.12190        8.65680       -1.08550
H         -8.61710        7.72260       -1.20450
H         -7.29780        7.43520       -2.34460
H         -5.50240        4.98580       -1.95810
H          1.74700        0.47150       -4.35900
H          3.08420       -0.39470       -3.59950
H          2.20000       -1.66400       -5.54660
H          3.89390       -1.21970       -5.75350
H          2.64440       -0.33830       -6.62830
H          1.23690        1.24240       -6.33360
H         -0.29880        1.02620       -5.44490
H         -1.29500        2.89900       -6.72380
H         -0.64950        1.68450       -7.82890
H          0.24350        3.18410       -7.54590
H         -2.07160        1.15690       -1.17970
H          0.26080        1.10330       -1.92500
H          2.86020        2.62980       -0.48670
H          2.58670        3.84770       -1.72680
H          2.42170        2.13120       -2.12070
H          1.00280        4.77830        0.10410
H         -1.34010        4.84300        0.84490
H         -5.41240        4.29410        1.03460
H         -6.01230        4.99530        3.30570
H         -5.38740        5.40550        5.58960
H         -4.87420        3.81780        6.16230
H         -3.71360        5.14110        6.10130
H         -2.30520        3.46950        4.75800
H         -1.70980        2.74430        2.49260
H         -9.62740       -2.35920       -1.70960
H        -11.79340       -2.87940       -0.68870
H        -13.23920       -0.98310        2.21010
H        -13.04330       -2.65830        1.67660
H        -13.84120       -1.49250        0.62850
H        -11.33360        0.41250        1.98570
H         -9.17790        0.95380        0.95610
H         -9.79880        0.29630       -2.89270
H         -9.54660       -0.00280       -5.31880
H         -6.82820       -1.90230       -6.90330
H         -6.92190       -0.15220       -7.08140
H         -8.39420       -1.11780       -7.16240
H         -5.68110       -1.70250       -4.71380
H         -5.93730       -1.42240       -2.28500
H         -7.79880       -1.86800        1.05360
H         -4.32960       -1.20760        6.25060
H         -3.39850       -2.63290        8.48560
H         -6.82830       -5.41530        5.18270
