
  xtb     02052215253D
 energy: -352.660781349132 gnorm: 0.000708030156 xtb: 6.4.1 (unknown)
207227  0     0  0            999 V2000
   -9.9821   -6.1316    5.5405 C   0  0  0  0  0  0  0  0  0  0  0  0
  -10.9613   -5.4817    6.2258 C   0  0  0  0  0  0  0  0  0  0  0  0
  -11.2527   -4.0272    6.0910 C   0  0  0  0  0  0  0  0  0  0  0  0
  -10.7398   -3.2273    5.3390 O   0  0  0  0  0  0  0  0  0  0  0  0
  -12.4299   -3.7853    6.9486 C   0  0  0  0  0  0  0  0  0  0  0  0
  -13.0881   -2.5949    7.1950 C   0  0  0  0  0  0  0  0  0  0  0  0
  -14.2029   -2.6095    8.0172 C   0  0  0  0  0  0  0  0  0  0  0  0
  -14.6426   -3.8108    8.5630 C   0  0  0  0  0  0  0  0  0  0  0  0
  -16.0374   -3.8105    9.5743 Cl  0  0  0  0  0  0  0  0  0  0  0  0
  -13.9948   -5.0171    8.3170 C   0  0  0  0  0  0  0  0  0  0  0  0
  -12.8744   -4.9983    7.5024 C   0  0  0  0  0  0  0  0  0  0  0  0
  -11.9806   -6.0725    7.0707 C   0  0  0  0  0  0  0  0  0  0  0  0
  -12.0540   -7.3798    7.4707 C   0  0  0  0  0  0  0  0  0  0  0  0
  -13.0576   -7.8968    8.3176 C   0  0  0  0  0  0  0  0  0  0  0  0
  -13.8453   -8.3824    8.9970 N   0  0  0  0  0  0  0  0  0  0  0  0
  -11.1333   -8.3896    7.1163 C   0  0  0  0  0  0  0  0  0  0  0  0
  -10.4212   -9.2628    6.8967 N   0  0  0  0  0  0  0  0  0  0  0  0
   -8.8606   -5.4712    4.9473 C   0  0  0  0  0  0  0  0  0  0  0  0
   -8.2786   -5.9226    3.7689 C   0  0  0  0  0  0  0  0  0  0  0  0
   -8.8081   -6.9895    3.1503 F   0  0  0  0  0  0  0  0  0  0  0  0
   -7.2099   -5.2767    3.1520 C   0  0  0  0  0  0  0  0  0  0  0  0
   -6.7816   -5.7937    1.9851 F   0  0  0  0  0  0  0  0  0  0  0  0
   -6.6192   -4.1328    3.6889 C   0  0  0  0  0  0  0  0  0  0  0  0
   -7.1473   -3.7022    4.9471 C   0  0  0  0  0  0  0  0  0  0  0  0
   -6.6005   -2.6336    5.5305 N   0  0  0  0  0  0  0  0  0  0  0  0
   -7.0408   -2.1964    6.6854 C   0  0  0  0  0  0  0  0  0  0  0  0
   -6.3591   -0.9771    7.2260 C   0  0  0  0  0  0  0  0  0  0  0  0
   -4.8995   -1.2812    7.5712 C   0  0  0  0  0  0  0  0  0  0  0  0
   -8.0740   -2.9114    7.3534 C   0  0  0  0  0  0  0  0  0  0  0  0
   -8.6254   -3.9592    6.7926 N   0  0  0  0  0  0  0  0  0  0  0  0
   -8.2299   -4.3576    5.5767 C   0  0  0  0  0  0  0  0  0  0  0  0
   -8.5833   -2.5635    8.7197 C   0  0  0  0  0  0  0  0  0  0  0  0
   -7.6228   -3.0338    9.8134 C   0  0  0  0  0  0  0  0  0  0  0  0
   -5.5785   -3.3846    3.0690 C   0  0  0  0  0  0  0  0  0  0  0  0
   -4.9570   -1.9449    3.8704 S   0  0  0  0  0  0  0  0  0  0  0  0
   -3.8662   -1.6796    2.5575 C   0  0  0  0  0  0  0  0  0  0  0  0
   -2.8673   -0.8117    2.1171 C   0  0  0  0  0  0  0  0  0  0  0  0
   -1.9834    0.5750    2.6666 S   0  0  0  0  0  0  0  0  0  0  0  0
   -1.0479    0.5177    1.2077 C   0  0  0  0  0  0  0  0  0  0  0  0
    0.1111    1.2068    0.7359 C   0  0  0  0  0  0  0  0  0  0  0  0
    0.8866    2.1970    1.3330 C   0  0  0  0  0  0  0  0  0  0  0  0
    2.0385    2.5727    0.6821 C   0  0  0  0  0  0  0  0  0  0  0  0
    3.0600    3.6185    1.0989 C   0  0  0  0  0  0  0  0  0  0  0  0
    3.8346    3.2532    2.3529 C   0  0  0  0  0  0  0  0  0  0  0  0
    3.8302    1.9670    2.8717 C   0  0  0  0  0  0  0  0  0  0  0  0
    4.5938    1.6588    3.9837 C   0  0  0  0  0  0  0  0  0  0  0  0
    5.3882    2.6182    4.5950 C   0  0  0  0  0  0  0  0  0  0  0  0
    6.1846    2.2911    5.8252 C   0  0  0  0  0  0  0  0  0  0  0  0
    5.3682    2.5846    7.0855 C   0  0  0  0  0  0  0  0  0  0  0  0
    5.3963    3.9026    4.0649 C   0  0  0  0  0  0  0  0  0  0  0  0
    4.6340    4.2167    2.9572 C   0  0  0  0  0  0  0  0  0  0  0  0
    2.3536    4.9522    1.2422 C   0  0  0  0  0  0  0  0  0  0  0  0
    2.2438    5.8265    0.1704 C   0  0  0  0  0  0  0  0  0  0  0  0
    1.5609    7.0212    0.3071 C   0  0  0  0  0  0  0  0  0  0  0  0
    0.9604    7.3672    1.5097 C   0  0  0  0  0  0  0  0  0  0  0  0
    0.2626    8.6868    1.6711 C   0  0  0  0  0  0  0  0  0  0  0  0
    1.2435    9.7508    2.1680 C   0  0  0  0  0  0  0  0  0  0  0  0
    1.0628    6.4831    2.5760 C   0  0  0  0  0  0  0  0  0  0  0  0
    1.7470    5.2899    2.4457 C   0  0  0  0  0  0  0  0  0  0  0  0
    4.0241    3.5496   -0.0588 C   0  0  0  0  0  0  0  0  0  0  0  0
    3.6321    2.5679   -0.9613 C   0  0  0  0  0  0  0  0  0  0  0  0
    2.4117    1.9625   -0.5381 C   0  0  0  0  0  0  0  0  0  0  0  0
    1.6361    0.9679   -1.1326 C   0  0  0  0  0  0  0  0  0  0  0  0
    0.4673    0.6182   -0.5022 C   0  0  0  0  0  0  0  0  0  0  0  0
   -0.5950   -0.3856   -0.9408 C   0  0  0  0  0  0  0  0  0  0  0  0
   -1.4351    0.2599   -2.0433 C   0  0  0  0  0  0  0  0  0  0  0  0
   -2.8230    0.2940   -1.9726 C   0  0  0  0  0  0  0  0  0  0  0  0
   -3.5763    0.8525   -2.9898 C   0  0  0  0  0  0  0  0  0  0  0  0
   -2.9723    1.4037   -4.1102 C   0  0  0  0  0  0  0  0  0  0  0  0
   -3.7920    2.0404   -5.1940 C   0  0  0  0  0  0  0  0  0  0  0  0
   -4.0655    3.5089   -4.8632 C   0  0  0  0  0  0  0  0  0  0  0  0
   -1.5857    1.3977   -4.1680 C   0  0  0  0  0  0  0  0  0  0  0  0
   -0.8304    0.8399   -3.1534 C   0  0  0  0  0  0  0  0  0  0  0  0
    0.0135   -1.7149   -1.3453 C   0  0  0  0  0  0  0  0  0  0  0  0
    0.1730   -2.1054   -2.6667 C   0  0  0  0  0  0  0  0  0  0  0  0
    0.7376   -3.3300   -2.9750 C   0  0  0  0  0  0  0  0  0  0  0  0
    1.1389   -4.2068   -1.9780 C   0  0  0  0  0  0  0  0  0  0  0  0
    1.7573   -5.5308   -2.3212 C   0  0  0  0  0  0  0  0  0  0  0  0
    3.2709   -5.3877   -2.4924 C   0  0  0  0  0  0  0  0  0  0  0  0
    0.9903   -3.8084   -0.6561 C   0  0  0  0  0  0  0  0  0  0  0  0
    0.4456   -2.5784   -0.3440 C   0  0  0  0  0  0  0  0  0  0  0  0
   -1.4123   -0.4857    0.3228 C   0  0  0  0  0  0  0  0  0  0  0  0
   -2.4357   -1.2734    0.8485 C   0  0  0  0  0  0  0  0  0  0  0  0
   -3.1394   -2.4135    0.5124 N   0  0  0  0  0  0  0  0  0  0  0  0
   -4.0001   -2.6716    1.5622 C   0  0  0  0  0  0  0  0  0  0  0  0
   -4.9613   -3.6299    1.8505 C   0  0  0  0  0  0  0  0  0  0  0  0
   -2.8414   -3.3080   -0.5041 C   0  0  0  0  0  0  0  0  0  0  0  0
   -2.7816   -3.0767   -1.8444 C   0  0  0  0  0  0  0  0  0  0  0  0
   -2.3845   -4.2345   -2.5382 C   0  0  0  0  0  0  0  0  0  0  0  0
   -2.1122   -4.6180   -4.1970 S   0  0  0  0  0  0  0  0  0  0  0  0
   -1.6753   -6.2583   -3.7749 C   0  0  0  0  0  0  0  0  0  0  0  0
   -1.3239   -7.2260   -4.8516 C   0  0  0  0  0  0  0  0  0  0  0  0
   -2.5709   -7.6918   -5.6064 C   0  0  0  0  0  0  0  0  0  0  0  0
   -1.7498   -6.4881   -2.4363 C   0  0  0  0  0  0  0  0  0  0  0  0
   -2.1489   -5.3364   -1.7299 C   0  0  0  0  0  0  0  0  0  0  0  0
   -2.4095   -4.9586   -0.0666 S   0  0  0  0  0  0  0  0  0  0  0  0
    4.7050    2.4224   -2.2933 S   0  0  0  0  0  0  0  0  0  0  0  0
    5.7085    3.6988   -1.6269 C   0  0  0  0  0  0  0  0  0  0  0  0
    5.1983    4.1852   -0.4269 C   0  0  0  0  0  0  0  0  0  0  0  0
    6.8825    4.1096   -2.3197 C   0  0  0  0  0  0  0  0  0  0  0  0
    7.7552    5.1076   -1.8847 C   0  0  0  0  0  0  0  0  0  0  0  0
    7.5461    5.7512   -0.7211 F   0  0  0  0  0  0  0  0  0  0  0  0
    8.8649    5.5010   -2.6271 C   0  0  0  0  0  0  0  0  0  0  0  0
    9.6237    6.4958   -2.1414 F   0  0  0  0  0  0  0  0  0  0  0  0
    9.1826    4.9594   -3.8679 C   0  0  0  0  0  0  0  0  0  0  0  0
    8.3602    3.8842   -4.3167 C   0  0  0  0  0  0  0  0  0  0  0  0
    8.6927    3.1969   -5.4179 N   0  0  0  0  0  0  0  0  0  0  0  0
    7.9160    2.2334   -5.8475 C   0  0  0  0  0  0  0  0  0  0  0  0
    8.3461    1.5552   -7.1115 C   0  0  0  0  0  0  0  0  0  0  0  0
    7.6418    2.1928   -8.3128 C   0  0  0  0  0  0  0  0  0  0  0  0
    6.7281    1.8965   -5.1430 C   0  0  0  0  0  0  0  0  0  0  0  0
    6.4512    2.5057   -4.0171 N   0  0  0  0  0  0  0  0  0  0  0  0
    7.2307    3.4903   -3.5626 C   0  0  0  0  0  0  0  0  0  0  0  0
    5.7922    0.7983   -5.5432 C   0  0  0  0  0  0  0  0  0  0  0  0
    6.1526   -0.4909   -4.8000 C   0  0  0  0  0  0  0  0  0  0  0  0
   10.3257    5.3989   -4.6046 C   0  0  0  0  0  0  0  0  0  0  0  0
   10.3913    5.4453   -5.9633 C   0  0  0  0  0  0  0  0  0  0  0  0
    9.2013    5.4886   -6.8559 C   0  0  0  0  0  0  0  0  0  0  0  0
    8.0345    5.5219   -6.5399 O   0  0  0  0  0  0  0  0  0  0  0  0
    9.7522    5.6585   -8.2204 C   0  0  0  0  0  0  0  0  0  0  0  0
    9.1077    5.7467   -9.4411 C   0  0  0  0  0  0  0  0  0  0  0  0
    7.7773    5.6238   -9.5281 F   0  0  0  0  0  0  0  0  0  0  0  0
    9.8388    5.9485  -10.6045 C   0  0  0  0  0  0  0  0  0  0  0  0
   11.2153    6.0753  -10.5315 C   0  0  0  0  0  0  0  0  0  0  0  0
   11.8869    5.9937   -9.3183 C   0  0  0  0  0  0  0  0  0  0  0  0
   11.1529    5.7804   -8.1623 C   0  0  0  0  0  0  0  0  0  0  0  0
   11.5777    5.6369   -6.7704 C   0  0  0  0  0  0  0  0  0  0  0  0
   12.8750    5.5964   -6.3332 C   0  0  0  0  0  0  0  0  0  0  0  0
   13.2737    5.3575   -4.9999 C   0  0  0  0  0  0  0  0  0  0  0  0
   13.6851    5.1458   -3.9494 N   0  0  0  0  0  0  0  0  0  0  0  0
   14.0030    5.7592   -7.1648 C   0  0  0  0  0  0  0  0  0  0  0  0
   14.9615    5.8873   -7.7837 N   0  0  0  0  0  0  0  0  0  0  0  0
  -10.0213   -7.2071    5.4233 H   0  0  0  0  0  0  0  0  0  0  0  0
  -12.7295   -1.6786    6.7524 H   0  0  0  0  0  0  0  0  0  0  0  0
  -14.7375   -1.6988    8.2362 H   0  0  0  0  0  0  0  0  0  0  0  0
  -14.3738   -5.9267    8.7530 H   0  0  0  0  0  0  0  0  0  0  0  0
   -6.3748   -0.2123    6.4471 H   0  0  0  0  0  0  0  0  0  0  0  0
   -6.8808   -0.5967    8.1026 H   0  0  0  0  0  0  0  0  0  0  0  0
   -4.8330   -2.0554    8.3327 H   0  0  0  0  0  0  0  0  0  0  0  0
   -4.4109   -0.3848    7.9438 H   0  0  0  0  0  0  0  0  0  0  0  0
   -4.3761   -1.6233    6.6832 H   0  0  0  0  0  0  0  0  0  0  0  0
   -8.7408   -1.4865    8.7990 H   0  0  0  0  0  0  0  0  0  0  0  0
   -9.5446   -3.0639    8.8467 H   0  0  0  0  0  0  0  0  0  0  0  0
   -6.6622   -2.5324    9.7329 H   0  0  0  0  0  0  0  0  0  0  0  0
   -8.0427   -2.8196   10.7929 H   0  0  0  0  0  0  0  0  0  0  0  0
   -7.4623   -4.1062    9.7328 H   0  0  0  0  0  0  0  0  0  0  0  0
    0.5933    2.6320    2.2758 H   0  0  0  0  0  0  0  0  0  0  0  0
    3.2288    1.1986    2.4082 H   0  0  0  0  0  0  0  0  0  0  0  0
    4.5751    0.6523    4.3774 H   0  0  0  0  0  0  0  0  0  0  0  0
    6.4647    1.2358    5.8154 H   0  0  0  0  0  0  0  0  0  0  0  0
    7.0991    2.8874    5.8426 H   0  0  0  0  0  0  0  0  0  0  0  0
    5.9454    2.3487    7.9766 H   0  0  0  0  0  0  0  0  0  0  0  0
    4.4577    1.9894    7.0933 H   0  0  0  0  0  0  0  0  0  0  0  0
    5.0900    3.6356    7.1196 H   0  0  0  0  0  0  0  0  0  0  0  0
    6.0120    4.6642    4.5217 H   0  0  0  0  0  0  0  0  0  0  0  0
    4.6522    5.2210    2.5596 H   0  0  0  0  0  0  0  0  0  0  0  0
    2.6972    5.5769   -0.7778 H   0  0  0  0  0  0  0  0  0  0  0  0
    1.4917    7.6935   -0.5363 H   0  0  0  0  0  0  0  0  0  0  0  0
   -0.5550    8.5882    2.3883 H   0  0  0  0  0  0  0  0  0  0  0  0
   -0.1578    9.0034    0.7145 H   0  0  0  0  0  0  0  0  0  0  0  0
    1.6631    9.4591    3.1283 H   0  0  0  0  0  0  0  0  0  0  0  0
    0.7409   10.7082    2.2846 H   0  0  0  0  0  0  0  0  0  0  0  0
    2.0608    9.8710    1.4605 H   0  0  0  0  0  0  0  0  0  0  0  0
    0.5997    6.7313    3.5206 H   0  0  0  0  0  0  0  0  0  0  0  0
    1.8225    4.6203    3.2904 H   0  0  0  0  0  0  0  0  0  0  0  0
    1.9765    0.4852   -2.0360 H   0  0  0  0  0  0  0  0  0  0  0  0
   -3.3403   -0.1089   -1.1155 H   0  0  0  0  0  0  0  0  0  0  0  0
   -4.6540    0.8555   -2.9074 H   0  0  0  0  0  0  0  0  0  0  0  0
   -3.2602    1.9783   -6.1454 H   0  0  0  0  0  0  0  0  0  0  0  0
   -4.7420    1.5120   -5.2976 H   0  0  0  0  0  0  0  0  0  0  0  0
   -4.6073    3.5906   -3.9236 H   0  0  0  0  0  0  0  0  0  0  0  0
   -4.6591    3.9712   -5.6482 H   0  0  0  0  0  0  0  0  0  0  0  0
   -3.1301    4.0553   -4.7662 H   0  0  0  0  0  0  0  0  0  0  0  0
   -1.0853    1.8351   -5.0203 H   0  0  0  0  0  0  0  0  0  0  0  0
    0.2438    0.8695   -3.2334 H   0  0  0  0  0  0  0  0  0  0  0  0
   -0.1609   -1.4661   -3.4694 H   0  0  0  0  0  0  0  0  0  0  0  0
    0.8498   -3.6143   -4.0116 H   0  0  0  0  0  0  0  0  0  0  0  0
    1.3231   -5.9113   -3.2484 H   0  0  0  0  0  0  0  0  0  0  0  0
    1.5497   -6.2514   -1.5277 H   0  0  0  0  0  0  0  0  0  0  0  0
    3.7184   -6.3469   -2.7418 H   0  0  0  0  0  0  0  0  0  0  0  0
    3.7224   -5.0215   -1.5732 H   0  0  0  0  0  0  0  0  0  0  0  0
    3.4960   -4.6811   -3.2883 H   0  0  0  0  0  0  0  0  0  0  0  0
    1.2979   -4.4721    0.1395 H   0  0  0  0  0  0  0  0  0  0  0  0
    0.3441   -2.2880    0.6924 H   0  0  0  0  0  0  0  0  0  0  0  0
   -5.1986   -4.4568    1.2095 H   0  0  0  0  0  0  0  0  0  0  0  0
   -3.0096   -2.1363   -2.3095 H   0  0  0  0  0  0  0  0  0  0  0  0
   -0.6351   -6.7555   -5.5575 H   0  0  0  0  0  0  0  0  0  0  0  0
   -0.8233   -8.0862   -4.4023 H   0  0  0  0  0  0  0  0  0  0  0  0
   -2.2974   -8.4008   -6.3835 H   0  0  0  0  0  0  0  0  0  0  0  0
   -3.0696   -6.8428   -6.0681 H   0  0  0  0  0  0  0  0  0  0  0  0
   -3.2675   -8.1733   -4.9243 H   0  0  0  0  0  0  0  0  0  0  0  0
   -1.5237   -7.4321   -1.9759 H   0  0  0  0  0  0  0  0  0  0  0  0
    5.6615    4.9687    0.1414 H   0  0  0  0  0  0  0  0  0  0  0  0
    8.1280    0.4874   -7.0721 H   0  0  0  0  0  0  0  0  0  0  0  0
    9.4236    1.6925   -7.2146 H   0  0  0  0  0  0  0  0  0  0  0  0
    7.7977    3.2672   -8.3080 H   0  0  0  0  0  0  0  0  0  0  0  0
    8.0372    1.7833   -9.2391 H   0  0  0  0  0  0  0  0  0  0  0  0
    6.5702    2.0117   -8.2826 H   0  0  0  0  0  0  0  0  0  0  0  0
    5.8258    0.6308   -6.6183 H   0  0  0  0  0  0  0  0  0  0  0  0
    4.7824    1.0962   -5.2592 H   0  0  0  0  0  0  0  0  0  0  0  0
    6.0856   -0.3289   -3.7273 H   0  0  0  0  0  0  0  0  0  0  0  0
    5.4653   -1.2862   -5.0770 H   0  0  0  0  0  0  0  0  0  0  0  0
    7.1654   -0.8076   -5.0402 H   0  0  0  0  0  0  0  0  0  0  0  0
   11.1786    5.7093   -4.0140 H   0  0  0  0  0  0  0  0  0  0  0  0
    9.3203    6.0074  -11.5483 H   0  0  0  0  0  0  0  0  0  0  0  0
   11.7790    6.2412  -11.4365 H   0  0  0  0  0  0  0  0  0  0  0  0
   12.9582    6.1015   -9.2917 H   0  0  0  0  0  0  0  0  0  0  0  0
  1  2  2  0  0  0  0
  2  3  1  0  0  0  0
  3  4  2  0  0  0  0
  3  5  1  0  0  0  0
  5  6  2  0  0  0  0
  6  7  1  0  0  0  0
  7  8  2  0  0  0  0
  8  9  1  0  0  0  0
  8 10  1  0  0  0  0
 10 11  2  0  0  0  0
 11 12  1  0  0  0  0
 12 13  2  0  0  0  0
 13 14  1  0  0  0  0
 14 15  3  0  0  0  0
 13 16  1  0  0  0  0
 16 17  3  0  0  0  0
  1 18  1  0  0  0  0
 18 19  2  0  0  0  0
 19 20  1  0  0  0  0
 19 21  1  0  0  0  0
 21 22  1  0  0  0  0
 21 23  2  0  0  0  0
 23 24  1  0  0  0  0
 24 25  2  0  0  0  0
 25 26  1  0  0  0  0
 26 27  1  0  0  0  0
 27 28  1  0  0  0  0
 26 29  2  0  0  0  0
 29 30  1  0  0  0  0
 30 31  2  0  0  0  0
 29 32  1  0  0  0  0
 32 33  1  0  0  0  0
 23 34  1  0  0  0  0
 34 35  1  0  0  0  0
 35 36  1  0  0  0  0
 36 37  1  0  0  0  0
 37 38  1  0  0  0  0
 38 39  1  0  0  0  0
 39 40  1  0  0  0  0
 40 41  2  0  0  0  0
 41 42  1  0  0  0  0
 42 43  1  0  0  0  0
 43 44  1  0  0  0  0
 44 45  2  0  0  0  0
 45 46  1  0  0  0  0
 46 47  2  0  0  0  0
 47 48  1  0  0  0  0
 48 49  1  0  0  0  0
 47 50  1  0  0  0  0
 50 51  2  0  0  0  0
 43 52  1  0  0  0  0
 52 53  2  0  0  0  0
 53 54  1  0  0  0  0
 54 55  2  0  0  0  0
 55 56  1  0  0  0  0
 56 57  1  0  0  0  0
 55 58  1  0  0  0  0
 58 59  2  0  0  0  0
 43 60  1  0  0  0  0
 60 61  2  0  0  0  0
 61 62  1  0  0  0  0
 62 63  1  0  0  0  0
 63 64  2  0  0  0  0
 64 65  1  0  0  0  0
 65 66  1  0  0  0  0
 66 67  2  0  0  0  0
 67 68  1  0  0  0  0
 68 69  2  0  0  0  0
 69 70  1  0  0  0  0
 70 71  1  0  0  0  0
 69 72  1  0  0  0  0
 72 73  2  0  0  0  0
 65 74  1  0  0  0  0
 74 75  2  0  0  0  0
 75 76  1  0  0  0  0
 76 77  2  0  0  0  0
 77 78  1  0  0  0  0
 78 79  1  0  0  0  0
 77 80  1  0  0  0  0
 80 81  2  0  0  0  0
 65 82  1  0  0  0  0
 82 83  1  0  0  0  0
 83 84  1  0  0  0  0
 84 85  1  0  0  0  0
 85 86  1  0  0  0  0
 84 87  1  0  0  0  0
 87 88  2  0  0  0  0
 88 89  1  0  0  0  0
 89 90  1  0  0  0  0
 90 91  1  0  0  0  0
 91 92  1  0  0  0  0
 92 93  1  0  0  0  0
 91 94  2  0  0  0  0
 94 95  1  0  0  0  0
 95 96  1  0  0  0  0
 61 97  1  0  0  0  0
 97 98  1  0  0  0  0
 98 99  2  0  0  0  0
 98100  1  0  0  0  0
100101  2  0  0  0  0
101102  1  0  0  0  0
101103  1  0  0  0  0
103104  1  0  0  0  0
103105  2  0  0  0  0
105106  1  0  0  0  0
106107  2  0  0  0  0
107108  1  0  0  0  0
108109  1  0  0  0  0
109110  1  0  0  0  0
108111  2  0  0  0  0
111112  1  0  0  0  0
112113  2  0  0  0  0
111114  1  0  0  0  0
114115  1  0  0  0  0
105116  1  0  0  0  0
116117  2  0  0  0  0
117118  1  0  0  0  0
118119  2  0  0  0  0
118120  1  0  0  0  0
120121  2  0  0  0  0
121122  1  0  0  0  0
121123  1  0  0  0  0
123124  2  0  0  0  0
124125  1  0  0  0  0
125126  2  0  0  0  0
126127  1  0  0  0  0
127128  2  0  0  0  0
128129  1  0  0  0  0
129130  3  0  0  0  0
128131  1  0  0  0  0
131132  3  0  0  0  0
 12  2  1  0  0  0  0
 31 18  1  0  0  0  0
 86 34  2  0  0  0  0
 96 87  1  0  0  0  0
113100  1  0  0  0  0
127117  1  0  0  0  0
 11  5  1  0  0  0  0
 31 24  1  0  0  0  0
 85 36  2  0  0  0  0
 95 89  2  0  0  0  0
113106  1  0  0  0  0
126120  1  0  0  0  0
 83 37  2  0  0  0  0
 82 39  2  0  0  0  0
 64 40  1  0  0  0  0
 73 66  1  0  0  0  0
 81 74  1  0  0  0  0
 62 42  2  0  0  0  0
 51 44  1  0  0  0  0
 59 52  1  0  0  0  0
 99 60  1  0  0  0  0
  1133  1  0  0  0  0
  6134  1  0  0  0  0
  7135  1  0  0  0  0
 10136  1  0  0  0  0
 27137  1  0  0  0  0
 27138  1  0  0  0  0
 28139  1  0  0  0  0
 28140  1  0  0  0  0
 28141  1  0  0  0  0
 32142  1  0  0  0  0
 32143  1  0  0  0  0
 33144  1  0  0  0  0
 33145  1  0  0  0  0
 33146  1  0  0  0  0
 41147  1  0  0  0  0
 45148  1  0  0  0  0
 46149  1  0  0  0  0
 48150  1  0  0  0  0
 48151  1  0  0  0  0
 49152  1  0  0  0  0
 49153  1  0  0  0  0
 49154  1  0  0  0  0
 50155  1  0  0  0  0
 51156  1  0  0  0  0
 53157  1  0  0  0  0
 54158  1  0  0  0  0
 56159  1  0  0  0  0
 56160  1  0  0  0  0
 57161  1  0  0  0  0
 57162  1  0  0  0  0
 57163  1  0  0  0  0
 58164  1  0  0  0  0
 59165  1  0  0  0  0
 63166  1  0  0  0  0
 67167  1  0  0  0  0
 68168  1  0  0  0  0
 70169  1  0  0  0  0
 70170  1  0  0  0  0
 71171  1  0  0  0  0
 71172  1  0  0  0  0
 71173  1  0  0  0  0
 72174  1  0  0  0  0
 73175  1  0  0  0  0
 75176  1  0  0  0  0
 76177  1  0  0  0  0
 78178  1  0  0  0  0
 78179  1  0  0  0  0
 79180  1  0  0  0  0
 79181  1  0  0  0  0
 79182  1  0  0  0  0
 80183  1  0  0  0  0
 81184  1  0  0  0  0
 86185  1  0  0  0  0
 88186  1  0  0  0  0
 92187  1  0  0  0  0
 92188  1  0  0  0  0
 93189  1  0  0  0  0
 93190  1  0  0  0  0
 93191  1  0  0  0  0
 94192  1  0  0  0  0
 99193  1  0  0  0  0
109194  1  0  0  0  0
109195  1  0  0  0  0
110196  1  0  0  0  0
110197  1  0  0  0  0
110198  1  0  0  0  0
114199  1  0  0  0  0
114200  1  0  0  0  0
115201  1  0  0  0  0
115202  1  0  0  0  0
115203  1  0  0  0  0
116204  1  0  0  0  0
123205  1  0  0  0  0
124206  1  0  0  0  0
125207  1  0  0  0  0
M  END
