179

C          6.16090        9.40200        5.67180
C          7.24720        9.19530        6.45230
C          7.99330        7.90990        6.49780
O          7.63680        6.83550        6.06590
C          9.22350        8.20290        7.25590
C         10.30550        7.38080        7.51160
C         11.36320        7.88500        8.25020
C         11.31810        9.19290        8.72240
Cl        12.64570        9.80110        9.63480
C         10.23160       10.02790        8.48280
C          9.17520        9.52220        7.74280
C          7.91250       10.13570        7.33750
C          7.43130       11.34260        7.76360
C          6.15720       11.85040        7.43390
N          5.12030       12.29730        7.22440
C          8.12090       12.21240        8.63590
N          8.62830       12.96160        9.34150
C          5.77650        8.43590        4.65270
C          4.54740        7.80510        4.52950
O          3.47900        7.95720        5.35000
C          3.35550        9.06150        6.22100
C          2.98600       10.34450        5.48650
C          4.35630        6.79090        3.54010
O          3.17880        6.12230        3.42990
C          2.54530        5.56880        4.58060
C          1.91760        4.24260        4.17620
C          5.34570        6.47540        2.61730
C          6.53310        7.26350        2.61240
C          6.78780        8.15420        3.68330
N          7.97330        8.78370        3.76560
C          8.84050        8.59400        2.80490
C          8.52520        7.82700        1.67360
N          7.39670        7.17140        1.59220
C          5.19760        5.37560        1.69930
C          6.18640        4.57490        1.15020
C          7.61040        4.59120        1.49130
C          8.56330        4.48860        0.48190
C          9.90810        4.49940        0.79770
C         10.31450        4.60730        2.11570
C          9.37700        4.68740        3.13830
C          9.81160        4.76940        4.57350
C          9.98730        3.36970        5.16510
C          8.02960        4.66110        2.81720
C          5.63870        3.63300        0.25720
S          6.34990        2.34530       -0.69020
C          4.76600        1.89320       -1.22560
C          4.14750        0.93540       -2.04980
C          4.66960       -0.06160       -2.90280
C          3.76060       -0.87370       -3.66580
N          4.38910       -1.73030       -4.45490
S          5.98500       -1.53650       -4.25580
N          5.93630       -0.35310       -3.15170
C          2.37220       -0.74220       -3.44160
C          1.28290       -1.53230       -3.84500
S          0.96910       -2.92350       -4.82760
C         -0.68750       -2.90730       -4.27350
C         -1.79210       -3.74100       -4.53440
C         -1.82980       -4.84570       -5.49760
C         -0.86710       -5.84890       -5.48910
C         -0.97030       -6.90190       -6.37880
C         -2.01460       -6.95490       -7.28650
C         -2.96170       -5.93910       -7.33740
C         -4.07730       -5.95550       -8.34530
C         -5.45240       -6.08130       -7.68820
C         -2.85680       -4.89190       -6.43460
C         -2.89970       -3.34250       -3.81260
S         -2.62140       -1.90080       -2.87190
C         -0.96940       -1.86490       -3.38730
C          0.16020       -1.06740       -3.15520
N          0.50510        0.00170       -2.37170
C          1.85780        0.22910       -2.53970
C          2.74780        1.16290       -1.95360
N          2.52740        2.26940       -1.14890
C          3.75230        2.69630       -0.70000
C          4.24930        3.69950        0.14160
S          3.59390        4.93020        1.15840
C          1.44350        3.22480       -1.22730
C          1.81140        4.40590       -2.12580
C         -0.39370        0.46830       -1.34080
C         -1.53130        1.31680       -1.90980
C         -4.18470       -4.00600       -3.81540
C         -4.28630       -5.39250       -3.75390
O         -3.25850       -6.18690       -3.34350
C         -2.42630       -5.74040       -2.27950
C         -2.17020       -6.90850       -1.33820
C         -5.51190       -6.03790       -4.11030
O         -5.64990       -7.32190       -4.44060
C         -4.57760       -8.24520       -4.56290
C         -4.44480       -9.09590       -3.30720
C         -6.68210       -5.26920       -4.22990
C         -6.60980       -3.85120       -4.16700
C         -5.35620       -3.21580       -3.98390
N         -5.25900       -1.87820       -3.97190
C         -6.36390       -1.18680       -4.10940
C         -7.60930       -1.81440       -4.26030
N         -7.73080       -3.11890       -4.28630
C         -7.96520       -5.86450       -4.45110
C         -8.42780       -6.99120       -3.84480
C         -7.85720       -7.56860       -2.60270
O         -6.82820       -7.26700       -2.03610
C         -8.87240       -8.52520       -2.11610
C         -8.85180       -9.28210       -0.98070
C         -9.94800      -10.12620       -0.69350
C         -9.97630      -10.93070        0.46370
C        -11.04690      -11.73620        0.73620
C        -12.12590      -11.75420       -0.15760
F        -13.17110      -12.55310        0.12780
C        -12.14900      -10.99560       -1.29460
C        -11.05430      -10.16040       -1.59130
C        -11.04750       -9.36530       -2.76120
C         -9.96940       -8.56280       -3.02270
C         -9.68090       -7.65840       -4.12950
C        -10.40260       -7.54110       -5.28820
C        -10.00170       -6.76280       -6.39500
N         -9.72190       -6.18710       -7.34830
C        -11.60610       -8.23010       -5.53900
N        -12.59300       -8.76190       -5.78770
H          5.66780       10.36440        5.68280
H         10.31870        6.36990        7.13540
H         12.22520        7.27290        8.46390
H         10.23410       11.03490        8.86620
H          2.55290        8.77400        6.90620
H          4.27800        9.18780        6.80260
H          3.66650       10.52300        4.65660
H          1.97830       10.26900        5.08560
H          3.03780       11.18670        6.17030
H          3.27770        5.41700        5.37900
H          1.77320        6.25990        4.93570
H          2.68440        3.54460        3.85080
H          1.22330        4.40060        3.35590
H          1.38390        3.81770        5.02170
H          9.79630        9.08820        2.91430
H          9.19350        7.74910        0.82830
H          8.24780        4.43040       -0.54830
H         10.64480        4.43000        0.01040
H         11.36830        4.62980        2.35590
H          9.05920        5.31470        5.14600
H         10.75930        5.31080        4.63680
H         10.29330        3.42830        6.20760
H         10.74280        2.81530        4.61210
H          9.05140        2.81890        5.11040
H          7.29540        4.71910        3.60880
H         -0.05090       -5.80800       -4.78320
H         -0.23030       -7.68850       -6.36470
H         -2.08570       -7.78570       -7.97390
H         -4.04620       -5.02740       -8.92260
H         -3.93060       -6.78630       -9.03820
H         -5.52450       -7.00500       -7.11920
H         -6.23440       -6.08350       -8.44330
H         -5.63700       -5.25050       -7.01060
H         -3.57540       -4.08500       -6.46730
H          1.22870        3.58370       -0.21570
H          0.56450        2.74140       -1.63780
H          0.96600        5.08450       -2.19990
H          2.06740        4.05360       -3.12290
H          2.65820        4.95230       -1.72080
H          0.18040        1.00920       -0.58790
H         -0.83040       -0.41310       -0.85700
H         -2.18790        0.70100       -2.51800
H         -2.11370        1.74230       -1.09740
H         -1.15700        2.12450       -2.53520
H         -1.47580       -5.38040       -2.68950
H         -2.91110       -4.91970       -1.74040
H         -1.75320       -7.74500       -1.89200
H         -1.46550       -6.60390       -0.56940
H         -3.09540       -7.22390       -0.86290
H         -4.86310       -8.87850       -5.41080
H         -3.64160       -7.73760       -4.80110
H         -4.30070       -8.45390       -2.44490
H         -5.34900       -9.67960       -3.15320
H         -3.59700       -9.76750       -3.40570
H         -6.26500       -0.11030       -4.09640
H         -8.52210       -1.24390       -4.36360
H         -8.63090       -5.29160       -5.08430
H         -8.00860       -9.23820       -0.30730
H         -9.13340      -10.89910        1.13790
H        -11.08490      -12.35620        1.61790
H        -12.99630      -11.03570       -1.96120
H        -11.90150       -9.40570       -3.41850
