
  xtb     02052218453D
 energy: -312.311176983892 gnorm: 0.000807281784 xtb: 6.4.1 (unknown)
184200  0     0  0            999 V2000
    3.6876   -2.8470    9.1987 C   0  0  0  0  0  0  0  0  0  0  0  0
    5.0241   -3.0837    9.2141 C   0  0  0  0  0  0  0  0  0  0  0  0
    5.8903   -3.1179    8.0006 C   0  0  0  0  0  0  0  0  0  0  0  0
    5.5586   -2.9436    6.8505 O   0  0  0  0  0  0  0  0  0  0  0  0
    7.2169   -3.5485    8.4819 C   0  0  0  0  0  0  0  0  0  0  0  0
    8.3805   -3.7258    7.7568 C   0  0  0  0  0  0  0  0  0  0  0  0
    9.5196   -4.1471    8.4227 C   0  0  0  0  0  0  0  0  0  0  0  0
    9.4696   -4.3921    9.7911 C   0  0  0  0  0  0  0  0  0  0  0  0
   10.8950   -4.9225   10.5999 Cl  0  0  0  0  0  0  0  0  0  0  0  0
    8.3038   -4.2249   10.5314 C   0  0  0  0  0  0  0  0  0  0  0  0
    7.1675   -3.7955    9.8651 C   0  0  0  0  0  0  0  0  0  0  0  0
    5.8158   -3.5223   10.3498 C   0  0  0  0  0  0  0  0  0  0  0  0
    5.3973   -3.6125   11.6494 C   0  0  0  0  0  0  0  0  0  0  0  0
    4.0985   -3.3066   12.1116 C   0  0  0  0  0  0  0  0  0  0  0  0
    3.0759   -3.0699   12.5770 N   0  0  0  0  0  0  0  0  0  0  0  0
    6.2175   -4.0270   12.7212 C   0  0  0  0  0  0  0  0  0  0  0  0
    6.8256   -4.3633   13.6345 N   0  0  0  0  0  0  0  0  0  0  0  0
    2.9510   -2.2851    8.1038 C   0  0  0  0  0  0  0  0  0  0  0  0
    3.4095   -1.2505    7.3007 C   0  0  0  0  0  0  0  0  0  0  0  0
    4.5623   -0.6345    7.5886 F   0  0  0  0  0  0  0  0  0  0  0  0
    2.6603   -0.7513    6.2350 C   0  0  0  0  0  0  0  0  0  0  0  0
    3.1986    0.2558    5.5312 F   0  0  0  0  0  0  0  0  0  0  0  0
    1.4001   -1.2457    5.9035 C   0  0  0  0  0  0  0  0  0  0  0  0
    0.8634   -2.2524    6.7689 C   0  0  0  0  0  0  0  0  0  0  0  0
   -0.3755   -2.7271    6.5691 N   0  0  0  0  0  0  0  0  0  0  0  0
   -0.8598   -3.6527    7.3619 C   0  0  0  0  0  0  0  0  0  0  0  0
   -2.2425   -4.1327    7.0353 C   0  0  0  0  0  0  0  0  0  0  0  0
   -2.1771   -5.2716    6.0140 C   0  0  0  0  0  0  0  0  0  0  0  0
   -0.0760   -4.1771    8.4252 C   0  0  0  0  0  0  0  0  0  0  0  0
    1.1352   -3.7230    8.6379 N   0  0  0  0  0  0  0  0  0  0  0  0
    1.6309   -2.7572    7.8474 C   0  0  0  0  0  0  0  0  0  0  0  0
   -0.5677   -5.2135    9.3878 C   0  0  0  0  0  0  0  0  0  0  0  0
   -1.2543   -4.5378   10.5783 C   0  0  0  0  0  0  0  0  0  0  0  0
    0.6884   -0.7859    4.7516 C   0  0  0  0  0  0  0  0  0  0  0  0
    1.3035    0.0810    3.8926 O   0  0  0  0  0  0  0  0  0  0  0  0
    0.4495    0.2857    2.8948 C   0  0  0  0  0  0  0  0  0  0  0  0
    0.4418    0.9835    1.6485 C   0  0  0  0  0  0  0  0  0  0  0  0
   -0.7960    0.6632    1.0341 C   0  0  0  0  0  0  0  0  0  0  0  0
   -1.6641   -0.2151    1.9266 C   0  0  0  0  0  0  0  0  0  0  0  0
   -2.0432   -1.5535    1.3220 C   0  0  0  0  0  0  0  0  0  0  0  0
   -1.5022   -2.0228    0.1345 C   0  0  0  0  0  0  0  0  0  0  0  0
   -1.9033   -3.2423   -0.3818 C   0  0  0  0  0  0  0  0  0  0  0  0
   -2.8376   -4.0282    0.2780 C   0  0  0  0  0  0  0  0  0  0  0  0
   -3.3201   -5.3143   -0.3283 C   0  0  0  0  0  0  0  0  0  0  0  0
   -4.4587   -5.0412   -1.3137 C   0  0  0  0  0  0  0  0  0  0  0  0
   -3.3516   -3.5682    1.4841 C   0  0  0  0  0  0  0  0  0  0  0  0
   -2.9589   -2.3493    2.0011 C   0  0  0  0  0  0  0  0  0  0  0  0
   -2.9113    0.5792    2.2823 C   0  0  0  0  0  0  0  0  0  0  0  0
   -4.0051    0.5684    1.4255 C   0  0  0  0  0  0  0  0  0  0  0  0
   -5.1328    1.3114    1.7171 C   0  0  0  0  0  0  0  0  0  0  0  0
   -5.1984    2.0885    2.8666 C   0  0  0  0  0  0  0  0  0  0  0  0
   -6.4455    2.8516    3.2080 C   0  0  0  0  0  0  0  0  0  0  0  0
   -7.4027    1.9744    4.0179 C   0  0  0  0  0  0  0  0  0  0  0  0
   -4.1000    2.1018    3.7151 C   0  0  0  0  0  0  0  0  0  0  0  0
   -2.9677    1.3620    3.4263 C   0  0  0  0  0  0  0  0  0  0  0  0
   -0.7319   -0.4232    3.0848 C   0  0  0  0  0  0  0  0  0  0  0  0
   -0.5828   -1.1171    4.2806 C   0  0  0  0  0  0  0  0  0  0  0  0
   -1.0850    1.1106   -0.2323 C   0  0  0  0  0  0  0  0  0  0  0  0
   -0.1082    1.8638   -0.8759 C   0  0  0  0  0  0  0  0  0  0  0  0
   -0.0174    2.3299   -2.2182 C   0  0  0  0  0  0  0  0  0  0  0  0
    1.1841    2.9866   -2.4531 C   0  0  0  0  0  0  0  0  0  0  0  0
    1.9856    3.0649   -1.1804 C   0  0  0  0  0  0  0  0  0  0  0  0
    1.1047    2.2378   -0.2446 C   0  0  0  0  0  0  0  0  0  0  0  0
    1.3912    1.7935    1.0256 C   0  0  0  0  0  0  0  0  0  0  0  0
    2.0742    4.5296   -0.7864 C   0  0  0  0  0  0  0  0  0  0  0  0
    2.9542    5.3537   -1.4782 C   0  0  0  0  0  0  0  0  0  0  0  0
    3.0360    6.6994   -1.1801 C   0  0  0  0  0  0  0  0  0  0  0  0
    2.2385    7.2592   -0.1893 C   0  0  0  0  0  0  0  0  0  0  0  0
    2.2921    8.7317    0.0986 C   0  0  0  0  0  0  0  0  0  0  0  0
    1.3015    9.4836   -0.7930 C   0  0  0  0  0  0  0  0  0  0  0  0
    1.3533    6.4335    0.4892 C   0  0  0  0  0  0  0  0  0  0  0  0
    1.2672    5.0840    0.1954 C   0  0  0  0  0  0  0  0  0  0  0  0
    3.3566    2.4240   -1.2615 C   0  0  0  0  0  0  0  0  0  0  0  0
    4.3411    2.7677   -0.3434 C   0  0  0  0  0  0  0  0  0  0  0  0
    5.5811    2.1595   -0.3844 C   0  0  0  0  0  0  0  0  0  0  0  0
    5.8709    1.1930   -1.3390 C   0  0  0  0  0  0  0  0  0  0  0  0
    7.2063    0.5070   -1.3561 C   0  0  0  0  0  0  0  0  0  0  0  0
    7.1879   -0.7203   -0.4424 C   0  0  0  0  0  0  0  0  0  0  0  0
    4.8792    0.8438   -2.2454 C   0  0  0  0  0  0  0  0  0  0  0  0
    3.6357    1.4474   -2.2069 C   0  0  0  0  0  0  0  0  0  0  0  0
    1.1832    3.3110   -3.8098 C   0  0  0  0  0  0  0  0  0  0  0  0
   -0.0097    2.7915   -4.3168 C   0  0  0  0  0  0  0  0  0  0  0  0
   -0.7376    2.2084   -3.3254 O   0  0  0  0  0  0  0  0  0  0  0  0
   -0.5116    2.6808   -5.6541 C   0  0  0  0  0  0  0  0  0  0  0  0
   -0.0775    3.4788   -6.7044 C   0  0  0  0  0  0  0  0  0  0  0  0
    0.8837    4.3942   -6.4946 F   0  0  0  0  0  0  0  0  0  0  0  0
   -0.6005    3.3693   -7.9945 C   0  0  0  0  0  0  0  0  0  0  0  0
   -0.0360    4.1093   -8.9557 F   0  0  0  0  0  0  0  0  0  0  0  0
   -1.6071    2.4648   -8.3091 C   0  0  0  0  0  0  0  0  0  0  0  0
   -2.0173    1.5740   -7.2737 C   0  0  0  0  0  0  0  0  0  0  0  0
   -2.9551    0.6506   -7.5404 N   0  0  0  0  0  0  0  0  0  0  0  0
   -3.2903   -0.2192   -6.6174 C   0  0  0  0  0  0  0  0  0  0  0  0
   -4.3334   -1.2204   -7.0071 C   0  0  0  0  0  0  0  0  0  0  0  0
   -3.6788   -2.4106   -7.7143 C   0  0  0  0  0  0  0  0  0  0  0  0
   -2.6283   -0.2185   -5.3585 C   0  0  0  0  0  0  0  0  0  0  0  0
   -1.7674    0.7245   -5.0661 N   0  0  0  0  0  0  0  0  0  0  0  0
   -1.4629    1.6605   -5.9747 C   0  0  0  0  0  0  0  0  0  0  0  0
   -2.8541   -1.2383   -4.2813 C   0  0  0  0  0  0  0  0  0  0  0  0
   -3.8351   -0.7015   -3.2366 C   0  0  0  0  0  0  0  0  0  0  0  0
   -2.1797    2.3026   -9.6135 C   0  0  0  0  0  0  0  0  0  0  0  0
   -2.4459    3.2879  -10.5078 C   0  0  0  0  0  0  0  0  0  0  0  0
   -2.4991    4.7419  -10.1771 C   0  0  0  0  0  0  0  0  0  0  0  0
   -2.3809    5.2473   -9.0879 O   0  0  0  0  0  0  0  0  0  0  0  0
   -2.8717    5.4085  -11.4442 C   0  0  0  0  0  0  0  0  0  0  0  0
   -3.0234    6.7526  -11.7348 C   0  0  0  0  0  0  0  0  0  0  0  0
   -2.8190    7.6866  -10.8028 F   0  0  0  0  0  0  0  0  0  0  0  0
   -3.3848    7.1502  -13.0162 C   0  0  0  0  0  0  0  0  0  0  0  0
   -3.6029    6.1939  -13.9931 C   0  0  0  0  0  0  0  0  0  0  0  0
   -3.4657    4.8383  -13.7240 C   0  0  0  0  0  0  0  0  0  0  0  0
   -3.0973    4.4460  -12.4465 C   0  0  0  0  0  0  0  0  0  0  0  0
   -2.8717    3.1154  -11.8840 C   0  0  0  0  0  0  0  0  0  0  0  0
   -3.0034    1.9306  -12.5573 C   0  0  0  0  0  0  0  0  0  0  0  0
   -2.7677    0.6478  -12.0159 C   0  0  0  0  0  0  0  0  0  0  0  0
   -2.5976   -0.4340  -11.6700 N   0  0  0  0  0  0  0  0  0  0  0  0
   -3.4095    1.8190  -13.9046 C   0  0  0  0  0  0  0  0  0  0  0  0
   -3.7368    1.6505  -14.9917 N   0  0  0  0  0  0  0  0  0  0  0  0
    3.0754   -3.1433   10.0401 H   0  0  0  0  0  0  0  0  0  0  0  0
    8.3905   -3.5306    6.6958 H   0  0  0  0  0  0  0  0  0  0  0  0
   10.4473   -4.2880    7.8909 H   0  0  0  0  0  0  0  0  0  0  0  0
    8.3070   -4.4311   11.5889 H   0  0  0  0  0  0  0  0  0  0  0  0
   -2.7990   -3.3003    6.6024 H   0  0  0  0  0  0  0  0  0  0  0  0
   -2.7572   -4.4677    7.9350 H   0  0  0  0  0  0  0  0  0  0  0  0
   -1.6991   -4.9263    5.1004 H   0  0  0  0  0  0  0  0  0  0  0  0
   -3.1798   -5.6170    5.7748 H   0  0  0  0  0  0  0  0  0  0  0  0
   -1.6053   -6.1104    6.4050 H   0  0  0  0  0  0  0  0  0  0  0  0
   -1.2567   -5.9011    8.8976 H   0  0  0  0  0  0  0  0  0  0  0  0
    0.2946   -5.7738    9.7507 H   0  0  0  0  0  0  0  0  0  0  0  0
   -1.6148   -5.2891   11.2759 H   0  0  0  0  0  0  0  0  0  0  0  0
   -2.0977   -3.9331   10.2510 H   0  0  0  0  0  0  0  0  0  0  0  0
   -0.5480   -3.8936   11.0954 H   0  0  0  0  0  0  0  0  0  0  0  0
   -0.7680   -1.4366   -0.3973 H   0  0  0  0  0  0  0  0  0  0  0  0
   -1.4807   -3.5884   -1.3146 H   0  0  0  0  0  0  0  0  0  0  0  0
   -3.6756   -5.9851    0.4560 H   0  0  0  0  0  0  0  0  0  0  0  0
   -2.5003   -5.8074   -0.8546 H   0  0  0  0  0  0  0  0  0  0  0  0
   -4.1177   -4.3877   -2.1139 H   0  0  0  0  0  0  0  0  0  0  0  0
   -4.8147   -5.9702   -1.7525 H   0  0  0  0  0  0  0  0  0  0  0  0
   -5.2896   -4.5559   -0.8059 H   0  0  0  0  0  0  0  0  0  0  0  0
   -4.0706   -4.1701    2.0216 H   0  0  0  0  0  0  0  0  0  0  0  0
   -3.3759   -1.9994    2.9342 H   0  0  0  0  0  0  0  0  0  0  0  0
   -3.9804   -0.0357    0.5302 H   0  0  0  0  0  0  0  0  0  0  0  0
   -5.9752    1.2890    1.0404 H   0  0  0  0  0  0  0  0  0  0  0  0
   -6.9434    3.1765    2.2923 H   0  0  0  0  0  0  0  0  0  0  0  0
   -6.1898    3.7382    3.7914 H   0  0  0  0  0  0  0  0  0  0  0  0
   -8.3065    2.5257    4.2662 H   0  0  0  0  0  0  0  0  0  0  0  0
   -7.6800    1.0906    3.4475 H   0  0  0  0  0  0  0  0  0  0  0  0
   -6.9284    1.6503    4.9416 H   0  0  0  0  0  0  0  0  0  0  0  0
   -4.1282    2.7011    4.6141 H   0  0  0  0  0  0  0  0  0  0  0  0
   -2.1252    1.3927    4.1014 H   0  0  0  0  0  0  0  0  0  0  0  0
   -1.2618   -1.7794    4.7724 H   0  0  0  0  0  0  0  0  0  0  0  0
   -2.0090    0.8664   -0.7315 H   0  0  0  0  0  0  0  0  0  0  0  0
    2.3195    2.0322    1.5201 H   0  0  0  0  0  0  0  0  0  0  0  0
    3.5828    4.9325   -2.2491 H   0  0  0  0  0  0  0  0  0  0  0  0
    3.7289    7.3253   -1.7239 H   0  0  0  0  0  0  0  0  0  0  0  0
    2.0443    8.9145    1.1462 H   0  0  0  0  0  0  0  0  0  0  0  0
    3.2999    9.1092   -0.0856 H   0  0  0  0  0  0  0  0  0  0  0  0
    0.2886    9.1294   -0.6149 H   0  0  0  0  0  0  0  0  0  0  0  0
    1.5394    9.3223   -1.8419 H   0  0  0  0  0  0  0  0  0  0  0  0
    1.3381   10.5510   -0.5879 H   0  0  0  0  0  0  0  0  0  0  0  0
    0.7209    6.8496    1.2606 H   0  0  0  0  0  0  0  0  0  0  0  0
    0.5680    4.4637    0.7369 H   0  0  0  0  0  0  0  0  0  0  0  0
    4.1400    3.5257    0.3997 H   0  0  0  0  0  0  0  0  0  0  0  0
    6.3370    2.4425    0.3340 H   0  0  0  0  0  0  0  0  0  0  0  0
    7.9811    1.1967   -1.0155 H   0  0  0  0  0  0  0  0  0  0  0  0
    7.4496    0.1948   -2.3737 H   0  0  0  0  0  0  0  0  0  0  0  0
    6.9635   -0.4274    0.5806 H   0  0  0  0  0  0  0  0  0  0  0  0
    8.1535   -1.2204   -0.4574 H   0  0  0  0  0  0  0  0  0  0  0  0
    6.4262   -1.4242   -0.7703 H   0  0  0  0  0  0  0  0  0  0  0  0
    5.0823    0.0913   -2.9941 H   0  0  0  0  0  0  0  0  0  0  0  0
    2.8792    1.1584   -2.9222 H   0  0  0  0  0  0  0  0  0  0  0  0
    1.9386    3.8173   -4.3742 H   0  0  0  0  0  0  0  0  0  0  0  0
   -5.0243   -0.7385   -7.6998 H   0  0  0  0  0  0  0  0  0  0  0  0
   -4.8875   -1.5590   -6.1315 H   0  0  0  0  0  0  0  0  0  0  0  0
   -3.1638   -2.0711   -8.6091 H   0  0  0  0  0  0  0  0  0  0  0  0
   -2.9568   -2.9013   -7.0646 H   0  0  0  0  0  0  0  0  0  0  0  0
   -4.4359   -3.1352   -8.0028 H   0  0  0  0  0  0  0  0  0  0  0  0
   -1.8958   -1.4225   -3.7929 H   0  0  0  0  0  0  0  0  0  0  0  0
   -3.2238   -2.1735   -4.7002 H   0  0  0  0  0  0  0  0  0  0  0  0
   -3.9321   -1.4081   -2.4149 H   0  0  0  0  0  0  0  0  0  0  0  0
   -3.4686    0.2449   -2.8469 H   0  0  0  0  0  0  0  0  0  0  0  0
   -4.8177   -0.5366   -3.6742 H   0  0  0  0  0  0  0  0  0  0  0  0
   -2.4487    1.2808   -9.8463 H   0  0  0  0  0  0  0  0  0  0  0  0
   -3.4898    8.2021  -13.2301 H   0  0  0  0  0  0  0  0  0  0  0  0
   -3.8860    6.5084  -14.9858 H   0  0  0  0  0  0  0  0  0  0  0  0
   -3.6447    4.1173  -14.5038 H   0  0  0  0  0  0  0  0  0  0  0  0
  1  2  2  0  0  0  0
  2  3  1  0  0  0  0
  3  4  2  0  0  0  0
  3  5  1  0  0  0  0
  5  6  2  0  0  0  0
  6  7  1  0  0  0  0
  7  8  2  0  0  0  0
  8  9  1  0  0  0  0
  8 10  1  0  0  0  0
 10 11  2  0  0  0  0
 11 12  1  0  0  0  0
 12 13  2  0  0  0  0
 13 14  1  0  0  0  0
 14 15  3  0  0  0  0
 13 16  1  0  0  0  0
 16 17  3  0  0  0  0
  1 18  1  0  0  0  0
 18 19  2  0  0  0  0
 19 20  1  0  0  0  0
 19 21  1  0  0  0  0
 21 22  1  0  0  0  0
 21 23  2  0  0  0  0
 23 24  1  0  0  0  0
 24 25  2  0  0  0  0
 25 26  1  0  0  0  0
 26 27  1  0  0  0  0
 27 28  1  0  0  0  0
 26 29  2  0  0  0  0
 29 30  1  0  0  0  0
 30 31  2  0  0  0  0
 29 32  1  0  0  0  0
 32 33  1  0  0  0  0
 23 34  1  0  0  0  0
 34 35  1  0  0  0  0
 35 36  1  0  0  0  0
 36 37  1  0  0  0  0
 37 38  2  0  0  0  0
 38 39  1  0  0  0  0
 39 40  1  0  0  0  0
 40 41  2  0  0  0  0
 41 42  1  0  0  0  0
 42 43  2  0  0  0  0
 43 44  1  0  0  0  0
 44 45  1  0  0  0  0
 43 46  1  0  0  0  0
 46 47  2  0  0  0  0
 39 48  1  0  0  0  0
 48 49  2  0  0  0  0
 49 50  1  0  0  0  0
 50 51  2  0  0  0  0
 51 52  1  0  0  0  0
 52 53  1  0  0  0  0
 51 54  1  0  0  0  0
 54 55  2  0  0  0  0
 39 56  1  0  0  0  0
 56 57  1  0  0  0  0
 38 58  1  0  0  0  0
 58 59  2  0  0  0  0
 59 60  1  0  0  0  0
 60 61  2  0  0  0  0
 61 62  1  0  0  0  0
 62 63  1  0  0  0  0
 63 64  2  0  0  0  0
 62 65  1  0  0  0  0
 65 66  2  0  0  0  0
 66 67  1  0  0  0  0
 67 68  2  0  0  0  0
 68 69  1  0  0  0  0
 69 70  1  0  0  0  0
 68 71  1  0  0  0  0
 71 72  2  0  0  0  0
 62 73  1  0  0  0  0
 73 74  2  0  0  0  0
 74 75  1  0  0  0  0
 75 76  2  0  0  0  0
 76 77  1  0  0  0  0
 77 78  1  0  0  0  0
 76 79  1  0  0  0  0
 79 80  2  0  0  0  0
 61 81  1  0  0  0  0
 81 82  2  0  0  0  0
 82 83  1  0  0  0  0
 82 84  1  0  0  0  0
 84 85  2  0  0  0  0
 85 86  1  0  0  0  0
 85 87  1  0  0  0  0
 87 88  1  0  0  0  0
 87 89  2  0  0  0  0
 89 90  1  0  0  0  0
 90 91  2  0  0  0  0
 91 92  1  0  0  0  0
 92 93  1  0  0  0  0
 93 94  1  0  0  0  0
 92 95  2  0  0  0  0
 95 96  1  0  0  0  0
 96 97  2  0  0  0  0
 95 98  1  0  0  0  0
 98 99  1  0  0  0  0
 89100  1  0  0  0  0
100101  2  0  0  0  0
101102  1  0  0  0  0
102103  2  0  0  0  0
102104  1  0  0  0  0
104105  2  0  0  0  0
105106  1  0  0  0  0
105107  1  0  0  0  0
107108  2  0  0  0  0
108109  1  0  0  0  0
109110  2  0  0  0  0
110111  1  0  0  0  0
111112  2  0  0  0  0
112113  1  0  0  0  0
113114  3  0  0  0  0
112115  1  0  0  0  0
115116  3  0  0  0  0
 12  2  1  0  0  0  0
 31 18  1  0  0  0  0
 57 34  2  0  0  0  0
 63 59  1  0  0  0  0
 72 65  1  0  0  0  0
 80 73  1  0  0  0  0
 97 84  1  0  0  0  0
111101  1  0  0  0  0
 11  5  1  0  0  0  0
 31 24  1  0  0  0  0
 56 36  2  0  0  0  0
 83 60  1  0  0  0  0
 97 90  1  0  0  0  0
110104  1  0  0  0  0
 64 37  1  0  0  0  0
 47 40  1  0  0  0  0
 55 48  1  0  0  0  0
  1117  1  0  0  0  0
  6118  1  0  0  0  0
  7119  1  0  0  0  0
 10120  1  0  0  0  0
 27121  1  0  0  0  0
 27122  1  0  0  0  0
 28123  1  0  0  0  0
 28124  1  0  0  0  0
 28125  1  0  0  0  0
 32126  1  0  0  0  0
 32127  1  0  0  0  0
 33128  1  0  0  0  0
 33129  1  0  0  0  0
 33130  1  0  0  0  0
 41131  1  0  0  0  0
 42132  1  0  0  0  0
 44133  1  0  0  0  0
 44134  1  0  0  0  0
 45135  1  0  0  0  0
 45136  1  0  0  0  0
 45137  1  0  0  0  0
 46138  1  0  0  0  0
 47139  1  0  0  0  0
 49140  1  0  0  0  0
 50141  1  0  0  0  0
 52142  1  0  0  0  0
 52143  1  0  0  0  0
 53144  1  0  0  0  0
 53145  1  0  0  0  0
 53146  1  0  0  0  0
 54147  1  0  0  0  0
 55148  1  0  0  0  0
 57149  1  0  0  0  0
 58150  1  0  0  0  0
 64151  1  0  0  0  0
 66152  1  0  0  0  0
 67153  1  0  0  0  0
 69154  1  0  0  0  0
 69155  1  0  0  0  0
 70156  1  0  0  0  0
 70157  1  0  0  0  0
 70158  1  0  0  0  0
 71159  1  0  0  0  0
 72160  1  0  0  0  0
 74161  1  0  0  0  0
 75162  1  0  0  0  0
 77163  1  0  0  0  0
 77164  1  0  0  0  0
 78165  1  0  0  0  0
 78166  1  0  0  0  0
 78167  1  0  0  0  0
 79168  1  0  0  0  0
 80169  1  0  0  0  0
 81170  1  0  0  0  0
 93171  1  0  0  0  0
 93172  1  0  0  0  0
 94173  1  0  0  0  0
 94174  1  0  0  0  0
 94175  1  0  0  0  0
 98176  1  0  0  0  0
 98177  1  0  0  0  0
 99178  1  0  0  0  0
 99179  1  0  0  0  0
 99180  1  0  0  0  0
100181  1  0  0  0  0
107182  1  0  0  0  0
108183  1  0  0  0  0
109184  1  0  0  0  0
M  END
