
  xtb     02052213353D
 energy: -290.342975506834 gnorm: 0.000438862336 xtb: 6.4.1 (unknown)
156173  0     0  0            999 V2000
   -6.5609   -0.2242    8.9022 C   0  0  0  0  0  0  0  0  0  0  0  0
   -6.7807   -0.5231   10.2062 C   0  0  0  0  0  0  0  0  0  0  0  0
   -5.7499   -1.0067   11.1687 C   0  0  0  0  0  0  0  0  0  0  0  0
   -4.6167   -1.3459   10.9193 O   0  0  0  0  0  0  0  0  0  0  0  0
   -6.4505   -1.1201   12.4628 C   0  0  0  0  0  0  0  0  0  0  0  0
   -5.9333   -1.4557   13.6999 C   0  0  0  0  0  0  0  0  0  0  0  0
   -6.7888   -1.4941   14.7887 C   0  0  0  0  0  0  0  0  0  0  0  0
   -8.1394   -1.2076   14.6179 C   0  0  0  0  0  0  0  0  0  0  0  0
   -9.1868   -1.2599   15.9842 Cl  0  0  0  0  0  0  0  0  0  0  0  0
   -8.6753   -0.8799   13.3769 C   0  0  0  0  0  0  0  0  0  0  0  0
   -7.8171   -0.8368   12.2899 C   0  0  0  0  0  0  0  0  0  0  0  0
   -8.0678   -0.5297   10.8826 C   0  0  0  0  0  0  0  0  0  0  0  0
   -9.2934   -0.2917   10.3224 C   0  0  0  0  0  0  0  0  0  0  0  0
   -9.5377   -0.0334    8.9557 C   0  0  0  0  0  0  0  0  0  0  0  0
   -9.8314    0.1744    7.8651 N   0  0  0  0  0  0  0  0  0  0  0  0
  -10.5096   -0.3015   11.0402 C   0  0  0  0  0  0  0  0  0  0  0  0
  -11.5331   -0.2928   11.5593 N   0  0  0  0  0  0  0  0  0  0  0  0
   -5.2963   -0.0426    8.2515 C   0  0  0  0  0  0  0  0  0  0  0  0
   -4.1779    0.5624    8.8076 C   0  0  0  0  0  0  0  0  0  0  0  0
   -4.2262    1.0622   10.0481 F   0  0  0  0  0  0  0  0  0  0  0  0
   -2.9974    0.7756    8.0890 C   0  0  0  0  0  0  0  0  0  0  0  0
   -1.9683    1.2893    8.7803 F   0  0  0  0  0  0  0  0  0  0  0  0
   -2.8699    0.4560    6.7392 C   0  0  0  0  0  0  0  0  0  0  0  0
   -3.9865   -0.2324    6.1668 C   0  0  0  0  0  0  0  0  0  0  0  0
   -3.8816   -0.7050    4.9213 N   0  0  0  0  0  0  0  0  0  0  0  0
   -4.8886   -1.3252    4.3534 C   0  0  0  0  0  0  0  0  0  0  0  0
   -4.6467   -1.8289    2.9641 C   0  0  0  0  0  0  0  0  0  0  0  0
   -5.1871   -0.8433    1.9256 C   0  0  0  0  0  0  0  0  0  0  0  0
   -6.1176   -1.4654    5.0565 C   0  0  0  0  0  0  0  0  0  0  0  0
   -6.2210   -1.0485    6.2962 N   0  0  0  0  0  0  0  0  0  0  0  0
   -5.1828   -0.4428    6.8882 C   0  0  0  0  0  0  0  0  0  0  0  0
   -7.3592   -2.0702    4.4752 C   0  0  0  0  0  0  0  0  0  0  0  0
   -8.4715   -1.0220    4.3894 C   0  0  0  0  0  0  0  0  0  0  0  0
   -1.7308    0.7275    5.9209 C   0  0  0  0  0  0  0  0  0  0  0  0
   -0.7010    1.6464    6.1108 C   0  0  0  0  0  0  0  0  0  0  0  0
   -0.7037    2.7792    7.0350 C   0  0  0  0  0  0  0  0  0  0  0  0
    0.4400    3.1198    7.7496 C   0  0  0  0  0  0  0  0  0  0  0  0
    0.4305    4.2321    8.5693 C   0  0  0  0  0  0  0  0  0  0  0  0
   -0.7047    5.0162    8.6712 C   0  0  0  0  0  0  0  0  0  0  0  0
   -1.8517    4.6983    7.9534 C   0  0  0  0  0  0  0  0  0  0  0  0
   -3.0672    5.5782    8.0165 C   0  0  0  0  0  0  0  0  0  0  0  0
   -3.0012    6.6565    6.9331 C   0  0  0  0  0  0  0  0  0  0  0  0
   -1.8383    3.5806    7.1360 C   0  0  0  0  0  0  0  0  0  0  0  0
    0.3035    1.4899    5.1422 C   0  0  0  0  0  0  0  0  0  0  0  0
    1.8127    2.3312    4.8661 S   0  0  0  0  0  0  0  0  0  0  0  0
    2.0405    1.3940    3.4302 C   0  0  0  0  0  0  0  0  0  0  0  0
    2.9623    1.2670    2.3770 C   0  0  0  0  0  0  0  0  0  0  0  0
    4.2558    1.7907    2.1462 C   0  0  0  0  0  0  0  0  0  0  0  0
    4.9903    1.3648    0.9820 C   0  0  0  0  0  0  0  0  0  0  0  0
    6.2086    1.8789    0.9404 N   0  0  0  0  0  0  0  0  0  0  0  0
    6.4175    2.8198    2.2411 S   0  0  0  0  0  0  0  0  0  0  0  0
    4.9595    2.6095    2.9108 N   0  0  0  0  0  0  0  0  0  0  0  0
    4.3394    0.5690    0.0102 C   0  0  0  0  0  0  0  0  0  0  0  0
    4.6773    0.1888   -1.2999 C   0  0  0  0  0  0  0  0  0  0  0  0
    6.0156    0.2932   -2.3917 S   0  0  0  0  0  0  0  0  0  0  0  0
    5.0204   -0.4040   -3.6480 C   0  0  0  0  0  0  0  0  0  0  0  0
    5.2514   -0.6965   -5.0025 C   0  0  0  0  0  0  0  0  0  0  0  0
    6.5452   -0.5813   -5.6710 C   0  0  0  0  0  0  0  0  0  0  0  0
    7.3662    0.5205   -5.4498 C   0  0  0  0  0  0  0  0  0  0  0  0
    8.5689    0.6262   -6.1213 C   0  0  0  0  0  0  0  0  0  0  0  0
    8.9628   -0.3555   -7.0144 C   0  0  0  0  0  0  0  0  0  0  0  0
    8.1693   -1.4761   -7.2262 C   0  0  0  0  0  0  0  0  0  0  0  0
    8.5566   -2.5305   -8.2235 C   0  0  0  0  0  0  0  0  0  0  0  0
    7.7788   -2.3425   -9.5281 C   0  0  0  0  0  0  0  0  0  0  0  0
    6.9713   -1.5836   -6.5382 C   0  0  0  0  0  0  0  0  0  0  0  0
    4.1082   -1.2054   -5.6055 C   0  0  0  0  0  0  0  0  0  0  0  0
    2.7705   -1.3844   -4.4834 S   0  0  0  0  0  0  0  0  0  0  0  0
    3.7255   -0.7140   -3.2143 C   0  0  0  0  0  0  0  0  0  0  0  0
    3.5343   -0.3889   -1.8692 C   0  0  0  0  0  0  0  0  0  0  0  0
    2.5163   -0.4296   -0.9498 N   0  0  0  0  0  0  0  0  0  0  0  0
    3.0022    0.1369    0.2134 C   0  0  0  0  0  0  0  0  0  0  0  0
    2.3948    0.3319    1.4712 C   0  0  0  0  0  0  0  0  0  0  0  0
    1.2200   -0.1687    1.9974 N   0  0  0  0  0  0  0  0  0  0  0  0
    0.9997    0.4870    3.1829 C   0  0  0  0  0  0  0  0  0  0  0  0
    0.0181    0.5198    4.1778 C   0  0  0  0  0  0  0  0  0  0  0  0
   -1.5197   -0.2270    4.4600 S   0  0  0  0  0  0  0  0  0  0  0  0
    0.6616   -1.4835    1.7549 C   0  0  0  0  0  0  0  0  0  0  0  0
    1.0145   -2.4515    2.8834 C   0  0  0  0  0  0  0  0  0  0  0  0
    1.1369   -0.4475   -1.3930 C   0  0  0  0  0  0  0  0  0  0  0  0
    0.8059    0.7994   -2.2127 C   0  0  0  0  0  0  0  0  0  0  0  0
    3.9048   -1.4615   -7.0025 C   0  0  0  0  0  0  0  0  0  0  0  0
    3.1312   -2.5172   -7.4930 C   0  0  0  0  0  0  0  0  0  0  0  0
    2.5591   -3.4688   -6.6177 C   0  0  0  0  0  0  0  0  0  0  0  0
    2.1118   -4.2718   -5.9320 N   0  0  0  0  0  0  0  0  0  0  0  0
    2.9227   -2.7185   -8.8824 C   0  0  0  0  0  0  0  0  0  0  0  0
    2.0957   -3.7914   -9.2918 C   0  0  0  0  0  0  0  0  0  0  0  0
    1.4252   -4.6504   -9.6460 N   0  0  0  0  0  0  0  0  0  0  0  0
    3.4435   -1.8645   -9.8498 C   0  0  0  0  0  0  0  0  0  0  0  0
    4.2582   -0.8052   -9.3826 C   0  0  0  0  0  0  0  0  0  0  0  0
    4.4673   -0.5939   -7.9780 C   0  0  0  0  0  0  0  0  0  0  0  0
    5.2087    0.4872   -7.7491 N   0  0  0  0  0  0  0  0  0  0  0  0
    5.6482    1.1270   -9.1497 S   0  0  0  0  0  0  0  0  0  0  0  0
    4.9099    0.0871  -10.1250 N   0  0  0  0  0  0  0  0  0  0  0  0
    3.1830   -2.0419  -11.2566 C   0  0  0  0  0  0  0  0  0  0  0  0
    2.8428   -1.0212  -12.0783 C   0  0  0  0  0  0  0  0  0  0  0  0
    2.3383    0.2992  -11.5979 C   0  0  0  0  0  0  0  0  0  0  0  0
    2.2260    0.6768  -10.4529 O   0  0  0  0  0  0  0  0  0  0  0  0
    1.8766    1.0012  -12.8074 C   0  0  0  0  0  0  0  0  0  0  0  0
    1.2987    2.2539  -12.9089 C   0  0  0  0  0  0  0  0  0  0  0  0
    0.9119    2.7074  -14.1587 C   0  0  0  0  0  0  0  0  0  0  0  0
    1.0991    1.9005  -15.2773 C   0  0  0  0  0  0  0  0  0  0  0  0
    0.6006    2.4783  -16.8195 Cl  0  0  0  0  0  0  0  0  0  0  0  0
    1.6753    0.6369  -15.1892 C   0  0  0  0  0  0  0  0  0  0  0  0
    2.0694    0.1884  -13.9393 C   0  0  0  0  0  0  0  0  0  0  0  0
    2.7044   -1.0598  -13.5252 C   0  0  0  0  0  0  0  0  0  0  0  0
    3.1753   -2.0398  -14.3525 C   0  0  0  0  0  0  0  0  0  0  0  0
    3.8905   -3.1777  -13.9163 C   0  0  0  0  0  0  0  0  0  0  0  0
    4.5046   -4.1048  -13.6334 N   0  0  0  0  0  0  0  0  0  0  0  0
    3.0460   -2.0212  -15.7587 C   0  0  0  0  0  0  0  0  0  0  0  0
    2.9664   -2.0617  -16.9023 N   0  0  0  0  0  0  0  0  0  0  0  0
   -7.4028   -0.1342    8.2289 H   0  0  0  0  0  0  0  0  0  0  0  0
   -4.8817   -1.6725   13.8048 H   0  0  0  0  0  0  0  0  0  0  0  0
   -6.4186   -1.7428   15.7707 H   0  0  0  0  0  0  0  0  0  0  0  0
   -9.7278   -0.6672   13.2877 H   0  0  0  0  0  0  0  0  0  0  0  0
   -5.1104   -2.8070    2.8291 H   0  0  0  0  0  0  0  0  0  0  0  0
   -3.5683   -1.9300    2.8350 H   0  0  0  0  0  0  0  0  0  0  0  0
   -6.2599   -0.7077    2.0367 H   0  0  0  0  0  0  0  0  0  0  0  0
   -4.7025    0.1228    2.0438 H   0  0  0  0  0  0  0  0  0  0  0  0
   -4.9875   -1.2125    0.9228 H   0  0  0  0  0  0  0  0  0  0  0  0
   -7.1656   -2.4935    3.4911 H   0  0  0  0  0  0  0  0  0  0  0  0
   -7.6886   -2.8703    5.1414 H   0  0  0  0  0  0  0  0  0  0  0  0
   -9.3727   -1.4689    3.9783 H   0  0  0  0  0  0  0  0  0  0  0  0
   -8.1717   -0.1943    3.7498 H   0  0  0  0  0  0  0  0  0  0  0  0
   -8.6952   -0.6324    5.3786 H   0  0  0  0  0  0  0  0  0  0  0  0
    1.3201    2.4990    7.6814 H   0  0  0  0  0  0  0  0  0  0  0  0
    1.3144    4.4880    9.1342 H   0  0  0  0  0  0  0  0  0  0  0  0
   -0.7048    5.8834    9.3158 H   0  0  0  0  0  0  0  0  0  0  0  0
   -3.9683    4.9777    7.8733 H   0  0  0  0  0  0  0  0  0  0  0  0
   -3.1276    6.0547    8.9966 H   0  0  0  0  0  0  0  0  0  0  0  0
   -2.9534    6.2001    5.9467 H   0  0  0  0  0  0  0  0  0  0  0  0
   -2.1149    7.2727    7.0668 H   0  0  0  0  0  0  0  0  0  0  0  0
   -3.8796    7.2961    6.9780 H   0  0  0  0  0  0  0  0  0  0  0  0
   -2.7197    3.3272    6.5612 H   0  0  0  0  0  0  0  0  0  0  0  0
    7.0476    1.3006   -4.7764 H   0  0  0  0  0  0  0  0  0  0  0  0
    9.2012    1.4854   -5.9541 H   0  0  0  0  0  0  0  0  0  0  0  0
    9.8981   -0.2568   -7.5463 H   0  0  0  0  0  0  0  0  0  0  0  0
    8.3397   -3.5210   -7.8178 H   0  0  0  0  0  0  0  0  0  0  0  0
    9.6263   -2.4726   -8.4303 H   0  0  0  0  0  0  0  0  0  0  0  0
    7.9800   -1.3613   -9.9542 H   0  0  0  0  0  0  0  0  0  0  0  0
    8.0626   -3.0999  -10.2543 H   0  0  0  0  0  0  0  0  0  0  0  0
    6.7078   -2.4244   -9.3505 H   0  0  0  0  0  0  0  0  0  0  0  0
    6.3583   -2.4643   -6.6760 H   0  0  0  0  0  0  0  0  0  0  0  0
    1.0727   -1.8751    0.8250 H   0  0  0  0  0  0  0  0  0  0  0  0
   -0.4268   -1.3954    1.6725 H   0  0  0  0  0  0  0  0  0  0  0  0
    0.6350   -3.4408    2.6437 H   0  0  0  0  0  0  0  0  0  0  0  0
    2.0940   -2.5109    3.0037 H   0  0  0  0  0  0  0  0  0  0  0  0
    0.5736   -2.1309    3.8227 H   0  0  0  0  0  0  0  0  0  0  0  0
    0.9825   -1.3454   -1.9991 H   0  0  0  0  0  0  0  0  0  0  0  0
    0.4784   -0.4754   -0.5283 H   0  0  0  0  0  0  0  0  0  0  0  0
    0.9919    1.6952   -1.6238 H   0  0  0  0  0  0  0  0  0  0  0  0
    1.4074    0.8445   -3.1161 H   0  0  0  0  0  0  0  0  0  0  0  0
   -0.2422    0.7790   -2.4976 H   0  0  0  0  0  0  0  0  0  0  0  0
    3.2461   -3.0544  -11.6360 H   0  0  0  0  0  0  0  0  0  0  0  0
    1.1592    2.8578  -12.0257 H   0  0  0  0  0  0  0  0  0  0  0  0
    0.4624    3.6807  -14.2755 H   0  0  0  0  0  0  0  0  0  0  0  0
    1.7959    0.0394  -16.0778 H   0  0  0  0  0  0  0  0  0  0  0  0
  1  2  2  0  0  0  0
  2  3  1  0  0  0  0
  3  4  2  0  0  0  0
  3  5  1  0  0  0  0
  5  6  2  0  0  0  0
  6  7  1  0  0  0  0
  7  8  2  0  0  0  0
  8  9  1  0  0  0  0
  8 10  1  0  0  0  0
 10 11  2  0  0  0  0
 11 12  1  0  0  0  0
 12 13  2  0  0  0  0
 13 14  1  0  0  0  0
 14 15  3  0  0  0  0
 13 16  1  0  0  0  0
 16 17  3  0  0  0  0
  1 18  1  0  0  0  0
 18 19  2  0  0  0  0
 19 20  1  0  0  0  0
 19 21  1  0  0  0  0
 21 22  1  0  0  0  0
 21 23  2  0  0  0  0
 23 24  1  0  0  0  0
 24 25  2  0  0  0  0
 25 26  1  0  0  0  0
 26 27  1  0  0  0  0
 27 28  1  0  0  0  0
 26 29  2  0  0  0  0
 29 30  1  0  0  0  0
 30 31  2  0  0  0  0
 29 32  1  0  0  0  0
 32 33  1  0  0  0  0
 23 34  1  0  0  0  0
 34 35  2  0  0  0  0
 35 36  1  0  0  0  0
 36 37  2  0  0  0  0
 37 38  1  0  0  0  0
 38 39  2  0  0  0  0
 39 40  1  0  0  0  0
 40 41  1  0  0  0  0
 41 42  1  0  0  0  0
 40 43  2  0  0  0  0
 35 44  1  0  0  0  0
 44 45  1  0  0  0  0
 45 46  1  0  0  0  0
 46 47  1  0  0  0  0
 47 48  1  0  0  0  0
 48 49  1  0  0  0  0
 49 50  2  0  0  0  0
 50 51  1  0  0  0  0
 51 52  1  0  0  0  0
 49 53  1  0  0  0  0
 53 54  1  0  0  0  0
 54 55  1  0  0  0  0
 55 56  1  0  0  0  0
 56 57  1  0  0  0  0
 57 58  1  0  0  0  0
 58 59  2  0  0  0  0
 59 60  1  0  0  0  0
 60 61  2  0  0  0  0
 61 62  1  0  0  0  0
 62 63  1  0  0  0  0
 63 64  1  0  0  0  0
 62 65  2  0  0  0  0
 57 66  2  0  0  0  0
 66 67  1  0  0  0  0
 67 68  1  0  0  0  0
 68 69  1  0  0  0  0
 69 70  1  0  0  0  0
 70 71  1  0  0  0  0
 71 72  1  0  0  0  0
 72 73  1  0  0  0  0
 73 74  1  0  0  0  0
 74 75  1  0  0  0  0
 75 76  1  0  0  0  0
 73 77  1  0  0  0  0
 77 78  1  0  0  0  0
 70 79  1  0  0  0  0
 79 80  1  0  0  0  0
 66 81  1  0  0  0  0
 81 82  2  0  0  0  0
 82 83  1  0  0  0  0
 83 84  3  0  0  0  0
 82 85  1  0  0  0  0
 85 86  1  0  0  0  0
 86 87  3  0  0  0  0
 85 88  2  0  0  0  0
 88 89  1  0  0  0  0
 89 90  1  0  0  0  0
 90 91  2  0  0  0  0
 91 92  1  0  0  0  0
 92 93  1  0  0  0  0
 88 94  1  0  0  0  0
 94 95  2  0  0  0  0
 95 96  1  0  0  0  0
 96 97  2  0  0  0  0
 96 98  1  0  0  0  0
 98 99  2  0  0  0  0
 99100  1  0  0  0  0
100101  2  0  0  0  0
101102  1  0  0  0  0
101103  1  0  0  0  0
103104  2  0  0  0  0
104105  1  0  0  0  0
105106  2  0  0  0  0
106107  1  0  0  0  0
107108  3  0  0  0  0
106109  1  0  0  0  0
109110  3  0  0  0  0
 12  2  1  0  0  0  0
 31 18  1  0  0  0  0
 76 34  1  0  0  0  0
 90 81  1  0  0  0  0
105 95  1  0  0  0  0
 11  5  1  0  0  0  0
 31 24  1  0  0  0  0
 43 36  1  0  0  0  0
 75 44  2  0  0  0  0
 93 89  2  0  0  0  0
104 98  1  0  0  0  0
 74 46  2  0  0  0  0
 72 47  2  0  0  0  0
 52 48  2  0  0  0  0
 71 53  2  0  0  0  0
 69 54  2  0  0  0  0
 68 56  2  0  0  0  0
 65 58  1  0  0  0  0
  1111  1  0  0  0  0
  6112  1  0  0  0  0
  7113  1  0  0  0  0
 10114  1  0  0  0  0
 27115  1  0  0  0  0
 27116  1  0  0  0  0
 28117  1  0  0  0  0
 28118  1  0  0  0  0
 28119  1  0  0  0  0
 32120  1  0  0  0  0
 32121  1  0  0  0  0
 33122  1  0  0  0  0
 33123  1  0  0  0  0
 33124  1  0  0  0  0
 37125  1  0  0  0  0
 38126  1  0  0  0  0
 39127  1  0  0  0  0
 41128  1  0  0  0  0
 41129  1  0  0  0  0
 42130  1  0  0  0  0
 42131  1  0  0  0  0
 42132  1  0  0  0  0
 43133  1  0  0  0  0
 59134  1  0  0  0  0
 60135  1  0  0  0  0
 61136  1  0  0  0  0
 63137  1  0  0  0  0
 63138  1  0  0  0  0
 64139  1  0  0  0  0
 64140  1  0  0  0  0
 64141  1  0  0  0  0
 65142  1  0  0  0  0
 77143  1  0  0  0  0
 77144  1  0  0  0  0
 78145  1  0  0  0  0
 78146  1  0  0  0  0
 78147  1  0  0  0  0
 79148  1  0  0  0  0
 79149  1  0  0  0  0
 80150  1  0  0  0  0
 80151  1  0  0  0  0
 80152  1  0  0  0  0
 94153  1  0  0  0  0
 99154  1  0  0  0  0
100155  1  0  0  0  0
103156  1  0  0  0  0
M  END
