173

C          7.22040       -5.25670        7.02490
C          6.43320       -5.97250        7.87000
C          4.99550       -6.25850        7.64460
O          4.28490       -5.85060        6.75190
C          4.63090       -7.26460        8.66310
C          3.41120       -7.87980        8.87400
C          3.30660       -8.81900        9.88720
C          4.42100       -9.13070       10.65830
Cl         4.27310      -10.30970       11.90610
C          5.65580       -8.52310       10.45450
C          5.75520       -7.57850        9.44650
C          6.88440       -6.76730        8.99590
C          8.11450       -6.70090        9.59190
C          9.14800       -5.81820        9.20920
N         10.02590       -5.11020        8.99410
C          8.50250       -7.48300       10.70020
N          8.88040       -8.09420       11.59530
C          6.79210       -4.35910        5.98980
C          5.78120       -3.39870        6.17180
O          5.23330       -3.37470        7.39490
C          4.03300       -2.68580        7.72270
C          2.82700       -3.13200        6.90700
C          5.53290       -2.46160        5.13680
O          4.66240       -1.40790        5.35050
C          5.29900       -0.15040        5.54820
C          4.21780        0.91030        5.65640
C          6.15220       -2.55660        3.89500
C          7.11350       -3.58400        3.67510
C          7.50370       -4.40410        4.76160
N          8.51470       -5.28230        4.61400
C          9.06110       -5.38790        3.43110
C          8.56520       -4.68070        2.32190
N          7.61920       -3.78720        2.45010
C          5.80980       -1.65340        2.82660
C          6.61800       -1.14700        1.82380
C          8.07570       -1.25400        1.80390
C          8.75270       -1.45510        0.60450
C         10.12880       -1.57730        0.60160
C         10.84220       -1.49900        1.78470
C         10.18610       -1.28000        2.98980
C         10.95380       -1.15240        4.27470
C         11.26940        0.31520        4.56970
C          8.80770       -1.14320        2.98360
C          5.85550       -0.44520        0.86760
S          6.27460        0.37050       -0.62110
C          4.60190        0.73970       -0.86660
C          3.76930        1.28320       -1.85910
C          4.02960        1.69020       -3.18710
C          2.92210        1.93160       -4.07300
N          3.31460        2.20940       -5.30590
S          4.93270        2.18160       -5.35020
N          5.19800        1.80630       -3.79740
C          1.60830        1.89330       -3.55560
C          0.34840        2.11640       -4.14100
S         -0.34640        2.40050       -5.70090
C         -1.93530        2.42160       -4.97050
C         -3.23520        2.58780       -5.49520
C         -3.52760        2.86070       -6.90140
C         -2.80920        2.21030       -7.90140
C         -3.09660        2.45890       -9.22900
C         -4.09330        3.35550       -9.57360
C         -4.81230        4.02450       -8.59110
C         -5.87730        5.02040       -8.94900
C         -5.37260        6.45160       -8.75810
C         -4.51210        3.77660       -7.26060
C         -4.18260        2.52600       -4.49110
S         -3.48420        2.30450       -2.89760
C         -1.90220        2.24270       -3.58650
C         -0.59740        2.05790       -3.11460
N          0.01900        1.79450       -1.91690
C          1.37190        1.64830       -2.17650
C          2.43980        1.19620       -1.36420
N          2.46480        0.58020       -0.12750
C          3.77230        0.29300        0.16670
C          4.48850       -0.39640        1.15350
S          4.12620       -1.20970        2.63290
C          1.39060       -0.05700        0.60100
C          1.16760        0.57620        1.97430
C         -0.59300        2.23840       -0.68290
C         -0.88130        3.73960       -0.71300
C         -5.62070        2.51750       -4.59980
C         -6.41830        3.14490       -3.65050
O         -5.85140        3.82310       -2.59930
C         -5.28960        5.08690       -2.93310
C         -6.32730        6.07310       -3.45200
C         -7.82970        3.11230       -3.73700
O         -8.55510        3.79740       -2.79790
C         -9.07060        3.02350       -1.71810
C         -7.98300        2.46680       -0.80890
C         -8.45870        2.53250       -4.83170
C         -7.66440        1.84920       -5.79790
C         -6.25430        1.80810       -5.65910
N         -5.50680        1.08410       -6.50830
C         -6.10990        0.48790       -7.50050
C         -7.50550        0.54860       -7.65570
N         -8.26300        1.18730       -6.80460
C         -9.88990        2.57810       -5.00490
C        -10.48210        2.79150       -6.20000
C         -9.77230        3.31170       -7.41340
O         -8.67690        3.82810       -7.46510
C        -10.76980        3.20320       -8.46710
S        -10.82730        3.50530      -10.14830
C        -12.51880        3.07640      -10.18530
C        -13.26220        3.11410      -11.46900
C        -12.99980        2.73240       -8.95350
C        -12.00190        2.80410       -7.96260
C        -11.88390        2.58180       -6.53840
C        -12.90610        2.20690       -5.70870
C        -12.78870        1.98590       -4.32220
N        -12.75700        1.78640       -3.19160
C        -14.21800        2.01040       -6.18880
N        -15.29140        1.84780       -6.56060
H          8.29290       -5.40790        7.05530
H          2.56220       -7.62580        8.25830
H          2.36900       -9.31470       10.08330
H          6.49740       -8.79770       11.06900
H          3.89060       -2.94850        8.77600
H          4.17160       -1.60290        7.65170
H          1.91890       -2.77770        7.38730
H          2.87170       -2.73090        5.89900
H          2.80850       -4.21710        6.85240
H          5.96850        0.07330        4.70640
H          5.90450       -0.18420        6.46640
H          3.54120        0.67550        6.47370
H          3.64470        0.94630        4.73430
H          4.67230        1.88040        5.83500
H          9.89550       -6.07000        3.34360
H          8.94300       -4.84480        1.32270
H          8.19800       -1.54520       -0.31610
H         10.64930       -1.74300       -0.33030
H         11.91720       -1.60910        1.77600
H         11.88720       -1.71380        4.20360
H         10.36900       -1.56950        5.09790
H         11.82410        0.40460        5.50070
H         10.35040        0.89100        4.65520
H         11.86570        0.74190        3.76630
H          8.29230       -0.95870        3.91700
H         -2.04840        1.49290       -7.63610
H         -2.54270        1.94620      -10.00210
H         -4.31710        3.53810      -10.61510
H         -6.17500        4.88020       -9.99000
H         -6.75410        4.85590       -8.32060
H         -6.15060        7.16540       -9.01860
H         -4.50580        6.63570       -9.39000
H         -5.08210        6.61940       -7.72360
H         -5.06240        4.30010       -6.49100
H          1.66300       -1.10870        0.74650
H          0.48640       -0.02970       -0.00730
H          1.04360        1.65480        1.90610
H          2.01850        0.37560        2.61920
H          0.28090        0.14970        2.43430
H         -1.52700        1.68670       -0.53490
H          0.08570        2.03670        0.13910
H         -1.28420        4.05070        0.24700
H         -1.60610        3.98220       -1.48440
H          0.03460        4.29450       -0.90620
H         -4.85370        5.43920       -1.99540
H         -4.48600        4.96320       -3.67310
H         -7.16730        6.12560       -2.76420
H         -6.70280        5.75970       -4.42460
H         -5.87860        7.05800       -3.54910
H         -9.70520        3.72570       -1.17280
H         -9.69580        2.20350       -2.09470
H         -7.38380        1.72600       -1.33430
H         -7.32440        3.26560       -0.47990
H         -8.44260        1.99790        0.05690
H         -5.48560       -0.07990       -8.17600
H         -8.01070        0.03470       -8.46240
H        -10.50030        2.39280       -4.13250
H        -14.30120        2.83950      -11.30690
H        -13.22380        4.11140      -11.90580
H        -12.82210        2.42200      -12.18630
H        -14.02010        2.44470       -8.77810
