
  xtb     02052211063D
 energy: -304.476220009764 gnorm: 0.000218036250 xtb: 6.4.1 (unknown)
169186  0     0  0            999 V2000
   -9.2972   -3.9525   -2.5173 C   0  0  0  0  0  0  0  0  0  0  0  0
  -10.5210   -3.4392   -2.2400 C   0  0  0  0  0  0  0  0  0  0  0  0
  -10.9531   -2.0649   -2.6326 C   0  0  0  0  0  0  0  0  0  0  0  0
  -10.5023   -1.3730   -3.5200 O   0  0  0  0  0  0  0  0  0  0  0  0
  -12.1886   -1.8184   -1.8634 C   0  0  0  0  0  0  0  0  0  0  0  0
  -12.9325   -0.6577   -1.7598 C   0  0  0  0  0  0  0  0  0  0  0  0
  -14.0762   -0.6686   -0.9785 C   0  0  0  0  0  0  0  0  0  0  0  0
  -14.4613   -1.8390   -0.3319 C   0  0  0  0  0  0  0  0  0  0  0  0
  -15.8862   -1.8315    0.6359 Cl  0  0  0  0  0  0  0  0  0  0  0  0
  -13.7326   -3.0185   -0.4421 C   0  0  0  0  0  0  0  0  0  0  0  0
  -12.5835   -3.0031   -1.2166 C   0  0  0  0  0  0  0  0  0  0  0  0
  -11.6098   -4.0566   -1.5040 C   0  0  0  0  0  0  0  0  0  0  0  0
  -11.7009   -5.3615   -1.1064 C   0  0  0  0  0  0  0  0  0  0  0  0
  -10.7435   -6.3606   -1.3889 C   0  0  0  0  0  0  0  0  0  0  0  0
  -10.0081   -7.2226   -1.5705 N   0  0  0  0  0  0  0  0  0  0  0  0
  -12.7791   -5.8953   -0.3675 C   0  0  0  0  0  0  0  0  0  0  0  0
  -13.6230   -6.3909    0.2316 N   0  0  0  0  0  0  0  0  0  0  0  0
   -8.1846   -3.1150   -2.8670 C   0  0  0  0  0  0  0  0  0  0  0  0
   -7.1350   -3.5587   -3.6543 C   0  0  0  0  0  0  0  0  0  0  0  0
   -7.1937   -4.7810   -4.2004 F   0  0  0  0  0  0  0  0  0  0  0  0
   -6.0296   -2.7538   -3.9426 C   0  0  0  0  0  0  0  0  0  0  0  0
   -5.0732   -3.2532   -4.7460 F   0  0  0  0  0  0  0  0  0  0  0  0
   -5.9223   -1.4550   -3.4728 C   0  0  0  0  0  0  0  0  0  0  0  0
   -6.9506   -0.9920   -2.5994 C   0  0  0  0  0  0  0  0  0  0  0  0
   -6.8524    0.2302   -2.0531 N   0  0  0  0  0  0  0  0  0  0  0  0
   -7.7604    0.6387   -1.2058 C   0  0  0  0  0  0  0  0  0  0  0  0
   -7.6235    2.0407   -0.6998 C   0  0  0  0  0  0  0  0  0  0  0  0
   -8.6273    2.9648   -1.3930 C   0  0  0  0  0  0  0  0  0  0  0  0
   -8.8067   -0.2389   -0.7958 C   0  0  0  0  0  0  0  0  0  0  0  0
   -8.9261   -1.4193   -1.3452 N   0  0  0  0  0  0  0  0  0  0  0  0
   -8.0501   -1.8201   -2.2793 C   0  0  0  0  0  0  0  0  0  0  0  0
   -9.7420    0.0589    0.3369 C   0  0  0  0  0  0  0  0  0  0  0  0
   -9.1262   -0.4231    1.6537 C   0  0  0  0  0  0  0  0  0  0  0  0
   -4.7876   -0.6131   -3.7649 C   0  0  0  0  0  0  0  0  0  0  0  0
   -4.7653    0.7382   -4.0644 C   0  0  0  0  0  0  0  0  0  0  0  0
   -5.9447    1.5196   -4.4265 C   0  0  0  0  0  0  0  0  0  0  0  0
   -5.9870    2.8917   -4.1854 C   0  0  0  0  0  0  0  0  0  0  0  0
   -7.0979    3.6260   -4.5522 C   0  0  0  0  0  0  0  0  0  0  0  0
   -8.1883    3.0047   -5.1384 C   0  0  0  0  0  0  0  0  0  0  0  0
   -8.1736    1.6361   -5.3764 C   0  0  0  0  0  0  0  0  0  0  0  0
   -9.3467    0.9408   -6.0051 C   0  0  0  0  0  0  0  0  0  0  0  0
   -9.0562    0.5712   -7.4601 C   0  0  0  0  0  0  0  0  0  0  0  0
   -7.0389    0.9142   -5.0401 C   0  0  0  0  0  0  0  0  0  0  0  0
   -3.4398    1.2299   -4.0419 C   0  0  0  0  0  0  0  0  0  0  0  0
   -2.7418    2.8247   -4.2305 S   0  0  0  0  0  0  0  0  0  0  0  0
   -1.1861    2.1822   -3.8247 C   0  0  0  0  0  0  0  0  0  0  0  0
    0.0910    2.6400   -3.4605 C   0  0  0  0  0  0  0  0  0  0  0  0
    0.5933    3.9430   -3.2371 C   0  0  0  0  0  0  0  0  0  0  0  0
    1.8121    4.1019   -2.4886 C   0  0  0  0  0  0  0  0  0  0  0  0
    2.0995    5.3728   -2.2597 N   0  0  0  0  0  0  0  0  0  0  0  0
    0.9506    6.2921   -2.9350 S   0  0  0  0  0  0  0  0  0  0  0  0
    0.0315    5.1025   -3.5370 N   0  0  0  0  0  0  0  0  0  0  0  0
    2.5451    2.9527   -2.1149 C   0  0  0  0  0  0  0  0  0  0  0  0
    3.6997    2.7646   -1.3356 C   0  0  0  0  0  0  0  0  0  0  0  0
    4.7417    3.6689   -0.2892 S   0  0  0  0  0  0  0  0  0  0  0  0
    5.5564    2.1796    0.1456 C   0  0  0  0  0  0  0  0  0  0  0  0
    6.5054    1.8744    1.1333 C   0  0  0  0  0  0  0  0  0  0  0  0
    6.9436    2.8713    2.1087 C   0  0  0  0  0  0  0  0  0  0  0  0
    6.8940    2.5899    3.4729 C   0  0  0  0  0  0  0  0  0  0  0  0
    7.2510    3.5599    4.3877 C   0  0  0  0  0  0  0  0  0  0  0  0
    7.6476    4.8139    3.9564 C   0  0  0  0  0  0  0  0  0  0  0  0
    7.6834    5.1177    2.6013 C   0  0  0  0  0  0  0  0  0  0  0  0
    8.1495    6.4639    2.1276 C   0  0  0  0  0  0  0  0  0  0  0  0
    9.6640    6.4536    1.9113 C   0  0  0  0  0  0  0  0  0  0  0  0
    7.3273    4.1394    1.6863 C   0  0  0  0  0  0  0  0  0  0  0  0
    6.7839    0.5074    1.1587 C   0  0  0  0  0  0  0  0  0  0  0  0
    5.7936   -0.4050    0.0303 S   0  0  0  0  0  0  0  0  0  0  0  0
    5.0716    1.0615   -0.5392 C   0  0  0  0  0  0  0  0  0  0  0  0
    3.9983    1.3966   -1.3670 C   0  0  0  0  0  0  0  0  0  0  0  0
    3.0735    0.7287   -2.1291 N   0  0  0  0  0  0  0  0  0  0  0  0
    2.1369    1.6586   -2.5417 C   0  0  0  0  0  0  0  0  0  0  0  0
    0.8404    1.4917   -3.0825 C   0  0  0  0  0  0  0  0  0  0  0  0
    0.0330    0.3774   -3.1958 N   0  0  0  0  0  0  0  0  0  0  0  0
   -1.1964    0.7988   -3.6223 C   0  0  0  0  0  0  0  0  0  0  0  0
   -2.4819    0.2584   -3.7431 C   0  0  0  0  0  0  0  0  0  0  0  0
   -3.1939   -1.2957   -3.5277 S   0  0  0  0  0  0  0  0  0  0  0  0
    0.1972   -0.9544   -2.6594 C   0  0  0  0  0  0  0  0  0  0  0  0
    0.2976   -2.0062   -3.7630 C   0  0  0  0  0  0  0  0  0  0  0  0
    3.4183   -0.5202   -2.7748 C   0  0  0  0  0  0  0  0  0  0  0  0
    4.7258   -0.3996   -3.5564 C   0  0  0  0  0  0  0  0  0  0  0  0
    7.6959   -0.2113    1.9837 C   0  0  0  0  0  0  0  0  0  0  0  0
    8.8042    0.3293    2.6373 C   0  0  0  0  0  0  0  0  0  0  0  0
    9.2523    1.5561    2.3260 F   0  0  0  0  0  0  0  0  0  0  0  0
    9.5090   -0.3808    3.6065 C   0  0  0  0  0  0  0  0  0  0  0  0
   10.5612    0.2222    4.1727 F   0  0  0  0  0  0  0  0  0  0  0  0
    9.2186   -1.7033    3.9297 C   0  0  0  0  0  0  0  0  0  0  0  0
    8.2630   -2.3594    3.1032 C   0  0  0  0  0  0  0  0  0  0  0  0
    8.0544   -3.6782    3.2359 N   0  0  0  0  0  0  0  0  0  0  0  0
    7.1718   -4.2759    2.4703 C   0  0  0  0  0  0  0  0  0  0  0  0
    7.0035   -5.7487    2.6852 C   0  0  0  0  0  0  0  0  0  0  0  0
    5.8732   -6.0158    3.6827 C   0  0  0  0  0  0  0  0  0  0  0  0
    6.4095   -3.5348    1.5276 C   0  0  0  0  0  0  0  0  0  0  0  0
    6.5990   -2.2420    1.4116 N   0  0  0  0  0  0  0  0  0  0  0  0
    7.5097   -1.6186    2.1632 C   0  0  0  0  0  0  0  0  0  0  0  0
    5.4149   -4.1363    0.5827 C   0  0  0  0  0  0  0  0  0  0  0  0
    6.0875   -4.4233   -0.7623 C   0  0  0  0  0  0  0  0  0  0  0  0
    9.8397   -2.4271    4.9973 C   0  0  0  0  0  0  0  0  0  0  0  0
   10.1174   -1.9060    6.2218 C   0  0  0  0  0  0  0  0  0  0  0  0
    9.5408   -0.6329    6.7393 C   0  0  0  0  0  0  0  0  0  0  0  0
    8.8098    0.1414    6.1623 O   0  0  0  0  0  0  0  0  0  0  0  0
    9.9302   -0.5794    8.1611 C   0  0  0  0  0  0  0  0  0  0  0  0
    9.6376    0.3941    9.0980 C   0  0  0  0  0  0  0  0  0  0  0  0
   10.0984    0.2281   10.3936 C   0  0  0  0  0  0  0  0  0  0  0  0
   10.8305   -0.9067   10.7267 C   0  0  0  0  0  0  0  0  0  0  0  0
   11.3857   -1.1001   12.3455 Cl  0  0  0  0  0  0  0  0  0  0  0  0
   11.1280   -1.8963    9.7950 C   0  0  0  0  0  0  0  0  0  0  0  0
   10.6719   -1.7250    8.4982 C   0  0  0  0  0  0  0  0  0  0  0  0
   10.8126   -2.5660    7.3109 C   0  0  0  0  0  0  0  0  0  0  0  0
   11.5171   -3.7368    7.2363 C   0  0  0  0  0  0  0  0  0  0  0  0
   11.6794   -4.5130    6.0680 C   0  0  0  0  0  0  0  0  0  0  0  0
   11.8670   -5.1990    5.1668 N   0  0  0  0  0  0  0  0  0  0  0  0
   12.1877   -4.3306    8.3270 C   0  0  0  0  0  0  0  0  0  0  0  0
   12.7456   -4.8691    9.1732 N   0  0  0  0  0  0  0  0  0  0  0  0
   -9.0914   -5.0082   -2.4014 H   0  0  0  0  0  0  0  0  0  0  0  0
  -12.6139    0.2356   -2.2745 H   0  0  0  0  0  0  0  0  0  0  0  0
  -14.6747    0.2215   -0.8663 H   0  0  0  0  0  0  0  0  0  0  0  0
  -14.0684   -3.9050    0.0700 H   0  0  0  0  0  0  0  0  0  0  0  0
   -6.6122    2.3782   -0.9281 H   0  0  0  0  0  0  0  0  0  0  0  0
   -7.7730    2.0718    0.3805 H   0  0  0  0  0  0  0  0  0  0  0  0
   -8.4608    2.9524   -2.4666 H   0  0  0  0  0  0  0  0  0  0  0  0
   -9.6513    2.6524   -1.2017 H   0  0  0  0  0  0  0  0  0  0  0  0
   -8.5018    3.9824   -1.0321 H   0  0  0  0  0  0  0  0  0  0  0  0
   -9.9544    1.1247    0.3986 H   0  0  0  0  0  0  0  0  0  0  0  0
  -10.6752   -0.4787    0.1625 H   0  0  0  0  0  0  0  0  0  0  0  0
   -9.8044   -0.2213    2.4787 H   0  0  0  0  0  0  0  0  0  0  0  0
   -8.9407   -1.4935    1.6089 H   0  0  0  0  0  0  0  0  0  0  0  0
   -8.1822    0.0814    1.8485 H   0  0  0  0  0  0  0  0  0  0  0  0
   -5.1604    3.3813   -3.6958 H   0  0  0  0  0  0  0  0  0  0  0  0
   -7.1191    4.6904   -4.3688 H   0  0  0  0  0  0  0  0  0  0  0  0
   -9.0588    3.5856   -5.4085 H   0  0  0  0  0  0  0  0  0  0  0  0
   -9.5782    0.0366   -5.4374 H   0  0  0  0  0  0  0  0  0  0  0  0
  -10.2207    1.5941   -5.9687 H   0  0  0  0  0  0  0  0  0  0  0  0
   -9.9133    0.0672   -7.8998 H   0  0  0  0  0  0  0  0  0  0  0  0
   -8.1964   -0.0915   -7.5236 H   0  0  0  0  0  0  0  0  0  0  0  0
   -8.8419    1.4652   -8.0426 H   0  0  0  0  0  0  0  0  0  0  0  0
   -7.0101   -0.1417   -5.2652 H   0  0  0  0  0  0  0  0  0  0  0  0
    6.5704    1.6170    3.8138 H   0  0  0  0  0  0  0  0  0  0  0  0
    7.2210    3.3318    5.4425 H   0  0  0  0  0  0  0  0  0  0  0  0
    7.9284    5.5672    4.6786 H   0  0  0  0  0  0  0  0  0  0  0  0
    7.8957    7.2254    2.8678 H   0  0  0  0  0  0  0  0  0  0  0  0
    7.6516    6.7182    1.1899 H   0  0  0  0  0  0  0  0  0  0  0  0
   10.1768    6.2149    2.8402 H   0  0  0  0  0  0  0  0  0  0  0  0
    9.9341    5.7031    1.1721 H   0  0  0  0  0  0  0  0  0  0  0  0
   10.0062    7.4257    1.5637 H   0  0  0  0  0  0  0  0  0  0  0  0
    7.3673    4.3570    0.6288 H   0  0  0  0  0  0  0  0  0  0  0  0
    1.0664   -0.9712   -2.0034 H   0  0  0  0  0  0  0  0  0  0  0  0
   -0.6859   -1.1762   -2.0493 H   0  0  0  0  0  0  0  0  0  0  0  0
    1.0988   -1.7794   -4.4628 H   0  0  0  0  0  0  0  0  0  0  0  0
   -0.6335   -2.0521   -4.3212 H   0  0  0  0  0  0  0  0  0  0  0  0
    0.4826   -2.9823   -3.3240 H   0  0  0  0  0  0  0  0  0  0  0  0
    2.6248   -0.7807   -3.4699 H   0  0  0  0  0  0  0  0  0  0  0  0
    3.5199   -1.3015   -2.0138 H   0  0  0  0  0  0  0  0  0  0  0  0
    4.6594    0.4096   -4.2805 H   0  0  0  0  0  0  0  0  0  0  0  0
    4.9168   -1.3286   -4.0868 H   0  0  0  0  0  0  0  0  0  0  0  0
    5.5606   -0.2054   -2.8896 H   0  0  0  0  0  0  0  0  0  0  0  0
    7.9366   -6.1363    3.0949 H   0  0  0  0  0  0  0  0  0  0  0  0
    6.7957   -6.2520    1.7408 H   0  0  0  0  0  0  0  0  0  0  0  0
    4.9271   -5.6192    3.3199 H   0  0  0  0  0  0  0  0  0  0  0  0
    5.7630   -7.0851    3.8427 H   0  0  0  0  0  0  0  0  0  0  0  0
    6.1000   -5.5434    4.6352 H   0  0  0  0  0  0  0  0  0  0  0  0
    4.6154   -3.4103    0.4295 H   0  0  0  0  0  0  0  0  0  0  0  0
    4.9908   -5.0518    0.9919 H   0  0  0  0  0  0  0  0  0  0  0  0
    6.9096   -5.1253   -0.6414 H   0  0  0  0  0  0  0  0  0  0  0  0
    5.3684   -4.8481   -1.4582 H   0  0  0  0  0  0  0  0  0  0  0  0
    6.4793   -3.5001   -1.1815 H   0  0  0  0  0  0  0  0  0  0  0  0
   10.0010   -3.4785    4.8001 H   0  0  0  0  0  0  0  0  0  0  0  0
    9.0653    1.2633    8.8135 H   0  0  0  0  0  0  0  0  0  0  0  0
    9.8943    0.9698   11.1495 H   0  0  0  0  0  0  0  0  0  0  0  0
   11.6931   -2.7628   10.0958 H   0  0  0  0  0  0  0  0  0  0  0  0
  1  2  2  0  0  0  0
  2  3  1  0  0  0  0
  3  4  2  0  0  0  0
  3  5  1  0  0  0  0
  5  6  2  0  0  0  0
  6  7  1  0  0  0  0
  7  8  2  0  0  0  0
  8  9  1  0  0  0  0
  8 10  1  0  0  0  0
 10 11  2  0  0  0  0
 11 12  1  0  0  0  0
 12 13  2  0  0  0  0
 13 14  1  0  0  0  0
 14 15  3  0  0  0  0
 13 16  1  0  0  0  0
 16 17  3  0  0  0  0
  1 18  1  0  0  0  0
 18 19  2  0  0  0  0
 19 20  1  0  0  0  0
 19 21  1  0  0  0  0
 21 22  1  0  0  0  0
 21 23  2  0  0  0  0
 23 24  1  0  0  0  0
 24 25  2  0  0  0  0
 25 26  1  0  0  0  0
 26 27  1  0  0  0  0
 27 28  1  0  0  0  0
 26 29  2  0  0  0  0
 29 30  1  0  0  0  0
 30 31  2  0  0  0  0
 29 32  1  0  0  0  0
 32 33  1  0  0  0  0
 23 34  1  0  0  0  0
 34 35  2  0  0  0  0
 35 36  1  0  0  0  0
 36 37  2  0  0  0  0
 37 38  1  0  0  0  0
 38 39  2  0  0  0  0
 39 40  1  0  0  0  0
 40 41  1  0  0  0  0
 41 42  1  0  0  0  0
 40 43  2  0  0  0  0
 35 44  1  0  0  0  0
 44 45  1  0  0  0  0
 45 46  1  0  0  0  0
 46 47  1  0  0  0  0
 47 48  1  0  0  0  0
 48 49  1  0  0  0  0
 49 50  2  0  0  0  0
 50 51  1  0  0  0  0
 51 52  1  0  0  0  0
 49 53  1  0  0  0  0
 53 54  1  0  0  0  0
 54 55  1  0  0  0  0
 55 56  1  0  0  0  0
 56 57  1  0  0  0  0
 57 58  1  0  0  0  0
 58 59  2  0  0  0  0
 59 60  1  0  0  0  0
 60 61  2  0  0  0  0
 61 62  1  0  0  0  0
 62 63  1  0  0  0  0
 63 64  1  0  0  0  0
 62 65  2  0  0  0  0
 57 66  2  0  0  0  0
 66 67  1  0  0  0  0
 67 68  1  0  0  0  0
 68 69  1  0  0  0  0
 69 70  1  0  0  0  0
 70 71  1  0  0  0  0
 71 72  1  0  0  0  0
 72 73  1  0  0  0  0
 73 74  1  0  0  0  0
 74 75  1  0  0  0  0
 75 76  1  0  0  0  0
 73 77  1  0  0  0  0
 77 78  1  0  0  0  0
 70 79  1  0  0  0  0
 79 80  1  0  0  0  0
 66 81  1  0  0  0  0
 81 82  2  0  0  0  0
 82 83  1  0  0  0  0
 82 84  1  0  0  0  0
 84 85  1  0  0  0  0
 84 86  2  0  0  0  0
 86 87  1  0  0  0  0
 87 88  2  0  0  0  0
 88 89  1  0  0  0  0
 89 90  1  0  0  0  0
 90 91  1  0  0  0  0
 89 92  2  0  0  0  0
 92 93  1  0  0  0  0
 93 94  2  0  0  0  0
 92 95  1  0  0  0  0
 95 96  1  0  0  0  0
 86 97  1  0  0  0  0
 97 98  2  0  0  0  0
 98 99  1  0  0  0  0
 99100  2  0  0  0  0
 99101  1  0  0  0  0
101102  2  0  0  0  0
102103  1  0  0  0  0
103104  2  0  0  0  0
104105  1  0  0  0  0
104106  1  0  0  0  0
106107  2  0  0  0  0
107108  1  0  0  0  0
108109  2  0  0  0  0
109110  1  0  0  0  0
110111  3  0  0  0  0
109112  1  0  0  0  0
112113  3  0  0  0  0
 12  2  1  0  0  0  0
 31 18  1  0  0  0  0
 76 34  1  0  0  0  0
 94 81  1  0  0  0  0
108 98  1  0  0  0  0
 11  5  1  0  0  0  0
 31 24  1  0  0  0  0
 43 36  1  0  0  0  0
 75 44  2  0  0  0  0
 94 87  1  0  0  0  0
107101  1  0  0  0  0
 74 46  2  0  0  0  0
 72 47  2  0  0  0  0
 52 48  2  0  0  0  0
 71 53  2  0  0  0  0
 69 54  2  0  0  0  0
 68 56  2  0  0  0  0
 65 58  1  0  0  0  0
  1114  1  0  0  0  0
  6115  1  0  0  0  0
  7116  1  0  0  0  0
 10117  1  0  0  0  0
 27118  1  0  0  0  0
 27119  1  0  0  0  0
 28120  1  0  0  0  0
 28121  1  0  0  0  0
 28122  1  0  0  0  0
 32123  1  0  0  0  0
 32124  1  0  0  0  0
 33125  1  0  0  0  0
 33126  1  0  0  0  0
 33127  1  0  0  0  0
 37128  1  0  0  0  0
 38129  1  0  0  0  0
 39130  1  0  0  0  0
 41131  1  0  0  0  0
 41132  1  0  0  0  0
 42133  1  0  0  0  0
 42134  1  0  0  0  0
 42135  1  0  0  0  0
 43136  1  0  0  0  0
 59137  1  0  0  0  0
 60138  1  0  0  0  0
 61139  1  0  0  0  0
 63140  1  0  0  0  0
 63141  1  0  0  0  0
 64142  1  0  0  0  0
 64143  1  0  0  0  0
 64144  1  0  0  0  0
 65145  1  0  0  0  0
 77146  1  0  0  0  0
 77147  1  0  0  0  0
 78148  1  0  0  0  0
 78149  1  0  0  0  0
 78150  1  0  0  0  0
 79151  1  0  0  0  0
 79152  1  0  0  0  0
 80153  1  0  0  0  0
 80154  1  0  0  0  0
 80155  1  0  0  0  0
 90156  1  0  0  0  0
 90157  1  0  0  0  0
 91158  1  0  0  0  0
 91159  1  0  0  0  0
 91160  1  0  0  0  0
 95161  1  0  0  0  0
 95162  1  0  0  0  0
 96163  1  0  0  0  0
 96164  1  0  0  0  0
 96165  1  0  0  0  0
 97166  1  0  0  0  0
102167  1  0  0  0  0
103168  1  0  0  0  0
106169  1  0  0  0  0
M  END
