169

C         -9.29720       -3.95250       -2.51730
C        -10.52100       -3.43920       -2.24000
C        -10.95310       -2.06490       -2.63260
O        -10.50230       -1.37300       -3.52000
C        -12.18860       -1.81840       -1.86340
C        -12.93250       -0.65770       -1.75980
C        -14.07620       -0.66860       -0.97850
C        -14.46130       -1.83900       -0.33190
Cl       -15.88620       -1.83150        0.63590
C        -13.73260       -3.01850       -0.44210
C        -12.58350       -3.00310       -1.21660
C        -11.60980       -4.05660       -1.50400
C        -11.70090       -5.36150       -1.10640
C        -10.74350       -6.36060       -1.38890
N        -10.00810       -7.22260       -1.57050
C        -12.77910       -5.89530       -0.36750
N        -13.62300       -6.39090        0.23160
C         -8.18460       -3.11500       -2.86700
C         -7.13500       -3.55870       -3.65430
F         -7.19370       -4.78100       -4.20040
C         -6.02960       -2.75380       -3.94260
F         -5.07320       -3.25320       -4.74600
C         -5.92230       -1.45500       -3.47280
C         -6.95060       -0.99200       -2.59940
N         -6.85240        0.23020       -2.05310
C         -7.76040        0.63870       -1.20580
C         -7.62350        2.04070       -0.69980
C         -8.62730        2.96480       -1.39300
C         -8.80670       -0.23890       -0.79580
N         -8.92610       -1.41930       -1.34520
C         -8.05010       -1.82010       -2.27930
C         -9.74200        0.05890        0.33690
C         -9.12620       -0.42310        1.65370
C         -4.78760       -0.61310       -3.76490
C         -4.76530        0.73820       -4.06440
C         -5.94470        1.51960       -4.42650
C         -5.98700        2.89170       -4.18540
C         -7.09790        3.62600       -4.55220
C         -8.18830        3.00470       -5.13840
C         -8.17360        1.63610       -5.37640
C         -9.34670        0.94080       -6.00510
C         -9.05620        0.57120       -7.46010
C         -7.03890        0.91420       -5.04010
C         -3.43980        1.22990       -4.04190
S         -2.74180        2.82470       -4.23050
C         -1.18610        2.18220       -3.82470
C          0.09100        2.64000       -3.46050
C          0.59330        3.94300       -3.23710
C          1.81210        4.10190       -2.48860
N          2.09950        5.37280       -2.25970
S          0.95060        6.29210       -2.93500
N          0.03150        5.10250       -3.53700
C          2.54510        2.95270       -2.11490
C          3.69970        2.76460       -1.33560
S          4.74170        3.66890       -0.28920
C          5.55640        2.17960        0.14560
C          6.50540        1.87440        1.13330
C          6.94360        2.87130        2.10870
C          6.89400        2.58990        3.47290
C          7.25100        3.55990        4.38770
C          7.64760        4.81390        3.95640
C          7.68340        5.11770        2.60130
C          8.14950        6.46390        2.12760
C          9.66400        6.45360        1.91130
C          7.32730        4.13940        1.68630
C          6.78390        0.50740        1.15870
S          5.79360       -0.40500        0.03030
C          5.07160        1.06150       -0.53920
C          3.99830        1.39660       -1.36700
N          3.07350        0.72870       -2.12910
C          2.13690        1.65860       -2.54170
C          0.84040        1.49170       -3.08250
N          0.03300        0.37740       -3.19580
C         -1.19640        0.79880       -3.62230
C         -2.48190        0.25840       -3.74310
S         -3.19390       -1.29570       -3.52770
C          0.19720       -0.95440       -2.65940
C          0.29760       -2.00620       -3.76300
C          3.41830       -0.52020       -2.77480
C          4.72580       -0.39960       -3.55640
C          7.69590       -0.21130        1.98370
C          8.80420        0.32930        2.63730
F          9.25230        1.55610        2.32600
C          9.50900       -0.38080        3.60650
F         10.56120        0.22220        4.17270
C          9.21860       -1.70330        3.92970
C          8.26300       -2.35940        3.10320
N          8.05440       -3.67820        3.23590
C          7.17180       -4.27590        2.47030
C          7.00350       -5.74870        2.68520
C          5.87320       -6.01580        3.68270
C          6.40950       -3.53480        1.52760
N          6.59900       -2.24200        1.41160
C          7.50970       -1.61860        2.16320
C          5.41490       -4.13630        0.58270
C          6.08750       -4.42330       -0.76230
C          9.83970       -2.42710        4.99730
C         10.11740       -1.90600        6.22180
C          9.54080       -0.63290        6.73930
O          8.80980        0.14140        6.16230
C          9.93020       -0.57940        8.16110
C          9.63760        0.39410        9.09800
C         10.09840        0.22810       10.39360
C         10.83050       -0.90670       10.72670
Cl        11.38570       -1.10010       12.34550
C         11.12800       -1.89630        9.79500
C         10.67190       -1.72500        8.49820
C         10.81260       -2.56600        7.31090
C         11.51710       -3.73680        7.23630
C         11.67940       -4.51300        6.06800
N         11.86700       -5.19900        5.16680
C         12.18770       -4.33060        8.32700
N         12.74560       -4.86910        9.17320
H         -9.09140       -5.00820       -2.40140
H        -12.61390        0.23560       -2.27450
H        -14.67470        0.22150       -0.86630
H        -14.06840       -3.90500        0.07000
H         -6.61220        2.37820       -0.92810
H         -7.77300        2.07180        0.38050
H         -8.46080        2.95240       -2.46660
H         -9.65130        2.65240       -1.20170
H         -8.50180        3.98240       -1.03210
H         -9.95440        1.12470        0.39860
H        -10.67520       -0.47870        0.16250
H         -9.80440       -0.22130        2.47870
H         -8.94070       -1.49350        1.60890
H         -8.18220        0.08140        1.84850
H         -5.16040        3.38130       -3.69580
H         -7.11910        4.69040       -4.36880
H         -9.05880        3.58560       -5.40850
H         -9.57820        0.03660       -5.43740
H        -10.22070        1.59410       -5.96870
H         -9.91330        0.06720       -7.89980
H         -8.19640       -0.09150       -7.52360
H         -8.84190        1.46520       -8.04260
H         -7.01010       -0.14170       -5.26520
H          6.57040        1.61700        3.81380
H          7.22100        3.33180        5.44250
H          7.92840        5.56720        4.67860
H          7.89570        7.22540        2.86780
H          7.65160        6.71820        1.18990
H         10.17680        6.21490        2.84020
H          9.93410        5.70310        1.17210
H         10.00620        7.42570        1.56370
H          7.36730        4.35700        0.62880
H          1.06640       -0.97120       -2.00340
H         -0.68590       -1.17620       -2.04930
H          1.09880       -1.77940       -4.46280
H         -0.63350       -2.05210       -4.32120
H          0.48260       -2.98230       -3.32400
H          2.62480       -0.78070       -3.46990
H          3.51990       -1.30150       -2.01380
H          4.65940        0.40960       -4.28050
H          4.91680       -1.32860       -4.08680
H          5.56060       -0.20540       -2.88960
H          7.93660       -6.13630        3.09490
H          6.79570       -6.25200        1.74080
H          4.92710       -5.61920        3.31990
H          5.76300       -7.08510        3.84270
H          6.10000       -5.54340        4.63520
H          4.61540       -3.41030        0.42950
H          4.99080       -5.05180        0.99190
H          6.90960       -5.12530       -0.64140
H          5.36840       -4.84810       -1.45820
H          6.47930       -3.50010       -1.18150
H         10.00100       -3.47850        4.80010
H          9.06530        1.26330        8.81350
H          9.89430        0.96980       11.14950
H         11.69310       -2.76280       10.09580
