166

C         -5.33020       -0.41080       -9.31920
C         -6.42110       -1.15880       -9.61610
C         -7.20510       -0.88080      -10.85330
O         -7.11820        0.08970      -11.56870
C         -8.05480       -2.07520      -11.04480
C         -8.89790       -2.38760      -12.09500
C         -9.58080       -3.59290      -12.06310
C         -9.40610       -4.46090      -10.99030
Cl       -10.25390       -5.96050      -10.97900
C         -8.56810       -4.15690       -9.92220
C         -7.89150       -2.94980       -9.95420
C         -6.98700       -2.33300       -8.98660
C         -6.87540       -2.67610       -7.66730
C         -7.45890       -3.82350       -7.09320
N         -7.88150       -4.75870       -6.57890
C         -6.20370       -1.89250       -6.70890
N         -5.71210       -1.28480       -5.86760
C         -4.24050       -0.70600       -8.43590
C         -3.74680       -1.99600       -8.22190
O         -4.38950       -3.03480       -8.81840
C         -3.62710       -3.92060       -9.63570
C         -3.24210       -3.25090      -10.94880
C         -2.64490       -2.22910       -7.35640
O         -2.32470       -3.54290       -7.13520
C         -2.35610       -4.02010       -5.79450
C         -3.75890       -4.00360       -5.20390
C         -1.95140       -1.16750       -6.78230
C         -2.47290        0.14920       -6.94990
C         -3.59140        0.38190       -7.78720
N         -4.06230        1.62800       -7.96290
C         -3.46800        2.60190       -7.32240
C         -2.37520        2.36980       -6.47190
N         -1.88390        1.16860       -6.30640
C         -0.75230       -1.33470       -6.00160
C          0.27870       -2.23930       -6.20130
C          0.40520       -3.11350       -7.36730
C          0.16660       -2.62310       -8.64890
C          0.29150       -3.46030       -9.73990
C          0.65250       -4.78540       -9.56650
C          0.91340       -5.28550       -8.29750
C          1.26940       -6.73030       -8.09660
C          0.00900       -7.55710       -7.83470
C          0.79130       -4.43910       -7.20630
C          1.22410       -2.16520       -5.16040
S          2.70240       -3.03860       -4.82480
C          2.89660       -2.11270       -3.37350
C          3.77890       -2.00670       -2.28150
C          5.03760       -2.57750       -1.98260
C          5.74620       -2.14800       -0.80200
N          6.93740       -2.71460       -0.69760
S          7.15150       -3.70610       -1.95910
N          5.73200       -3.45130       -2.69340
C          5.10430       -1.28210        0.11360
C          5.42540       -0.83180        1.40850
S          6.73090       -0.90710        2.54460
C          5.75580       -0.02410        3.69710
C          5.97740        0.37520        5.02940
C          7.19790        0.03330        5.76300
C          7.12890       -0.57910        7.01200
C          8.29120       -0.93520        7.66800
C          9.52370       -0.68700        7.08880
C          9.61030       -0.09010        5.83740
C         10.94520        0.21510        5.22260
C         11.41060        1.61440        5.63090
C          8.44000        0.26270        5.18190
C          4.87370        1.04220        5.53860
S          3.55390        1.14800        4.37940
C          4.49010        0.30370        3.20370
C          4.30290       -0.15300        1.89680
N          3.30630       -0.13670        0.95250
C          3.79620       -0.80370       -0.15490
C          3.21690       -1.02990       -1.42000
N          2.07780       -0.50060       -1.99600
C          1.87880       -1.17320       -3.17540
C          0.92280       -1.19860       -4.19760
S         -0.51730       -0.32920       -4.59080
C          1.57730        0.84820       -1.82030
C          2.05000        1.76530       -2.94800
C          1.91840       -0.06150        1.36480
C          1.55520       -1.21700        2.29700
C          4.69360        1.67950        6.79780
S          3.06780        2.10970        7.29850
C          3.66830        2.80280        8.75860
C          2.96360        3.41890        9.79840
C          3.68910        3.90880       10.89100
O          5.02920        3.81100       10.98090
C          5.78830        3.22030        9.99540
O          6.97980        3.17250       10.14790
C          5.05910        2.70100        8.84560
C          5.62850        2.06830        7.72910
C          2.88040        4.50210       11.86030
C          1.53560        4.47590       11.52650
S          1.27250        3.69760        9.97950
C          0.47820        4.99680       12.29860
C         -0.84660        4.98870       12.00010
S         -1.59860        4.32750       10.56960
C         -3.18990        4.79070       11.15200
C         -4.30390        4.48650       10.41510
C         -4.15130        3.84230        9.16890
N         -4.03190        3.32310        8.15320
C         -5.64000        4.71490       10.78640
N         -6.75340        4.83880       11.03720
N         -3.12010        5.42200       12.35210
C         -4.24930        6.04650       13.01060
C         -4.78570        7.23160       12.24360
C         -6.12840        7.56830       12.35270
C         -6.63220        8.65910       11.66880
C         -5.80090        9.42200       10.86600
C         -4.46080        9.09540       10.75890
C         -3.95380        8.00760       11.44840
C         -1.84850        5.57240       12.89040
O         -1.63390        6.11250       13.95120
H         -5.23900        0.52680       -9.85790
H         -9.01690       -1.69960      -12.91760
H        -10.24800       -3.86730      -12.86480
H         -8.45480       -4.85440       -9.10830
H         -4.29960       -4.76310       -9.81430
H         -2.73490       -4.27080       -9.11150
H         -2.58150       -2.40730      -10.75950
H         -4.12810       -2.88990      -11.46710
H         -2.72620       -3.96570      -11.58340
H         -1.98330       -5.04330       -5.88110
H         -1.67460       -3.44850       -5.15640
H         -4.11530       -2.98180       -5.08930
H         -3.74700       -4.48190       -4.22860
H         -4.44960       -4.54120       -5.85010
H         -3.85950        3.59660       -7.48460
H         -1.89120        3.17050       -5.93000
H         -0.10320       -1.58530       -8.78380
H          0.11160       -3.07760      -10.73420
H          0.74230       -5.43500      -10.42550
H          1.94800       -6.82820       -7.24720
H          1.77440       -7.11480       -8.98470
H         -0.49860       -7.20080       -6.94100
H          0.26330       -8.60500       -7.69440
H         -0.67920       -7.47530       -8.67330
H          0.98350       -4.81910       -6.21320
H          6.16580       -0.78510        7.45490
H          8.23570       -1.41060        8.63580
H         10.42780       -0.96560        7.61000
H         10.87200        0.16100        4.13470
H         11.68110       -0.52000        5.55370
H         12.38200        1.83420        5.19440
H         10.69940        2.36430        5.29170
H         11.49120        1.68590        6.71320
H          8.49260        0.73310        4.21050
H          1.95100        1.24390       -0.87710
H          0.48300        0.81910       -1.80280
H          3.13650        1.75830       -3.00680
H          1.64460        1.44850       -3.90450
H          1.71710        2.78060       -2.75190
H          1.27800       -0.11530        0.48740
H          1.76050        0.89340        1.87590
H          0.50270       -1.15510        2.55830
H          1.73870       -2.16870        1.80260
H          2.13980       -1.18090        3.21190
H          6.68630        1.92220        7.61840
H          3.25840        4.93400       12.76780
H          0.74460        5.45860       13.24180
H         -3.86760        6.37760       13.98470
H         -5.03890        5.30840       13.17530
H         -6.78130        6.96650       12.96610
H         -7.67830        8.90880       11.75750
H         -6.19590       10.26890       10.32550
H         -3.80460        9.68750       10.13850
H         -2.90140        7.77180       11.36560
