
  xtb     02052210393D
 energy: -304.010759572503 gnorm: 0.000230419533 xtb: 6.4.1 (unknown)
169186  0     0  0            999 V2000
   -6.4909    7.3219   -4.1126 C   0  0  0  0  0  0  0  0  0  0  0  0
   -6.4104    8.6691   -4.2394 C   0  0  0  0  0  0  0  0  0  0  0  0
   -6.1056    9.5959   -3.1096 C   0  0  0  0  0  0  0  0  0  0  0  0
   -6.2477    9.3893   -1.9236 O   0  0  0  0  0  0  0  0  0  0  0  0
   -5.8069   10.8926   -3.7484 C   0  0  0  0  0  0  0  0  0  0  0  0
   -5.3458   12.0614   -3.1719 C   0  0  0  0  0  0  0  0  0  0  0  0
   -5.1511   13.1695   -3.9799 C   0  0  0  0  0  0  0  0  0  0  0  0
   -5.4356   13.0929   -5.3398 C   0  0  0  0  0  0  0  0  0  0  0  0
   -5.1877   14.4822   -6.3273 Cl  0  0  0  0  0  0  0  0  0  0  0  0
   -5.9162   11.9287   -5.9299 C   0  0  0  0  0  0  0  0  0  0  0  0
   -6.1006   10.8182   -5.1217 C   0  0  0  0  0  0  0  0  0  0  0  0
   -6.5615    9.4675   -5.4432 C   0  0  0  0  0  0  0  0  0  0  0  0
   -7.0066    9.0428   -6.6639 C   0  0  0  0  0  0  0  0  0  0  0  0
   -7.4382    7.7301   -6.9564 C   0  0  0  0  0  0  0  0  0  0  0  0
   -7.7938    6.6863   -7.2741 N   0  0  0  0  0  0  0  0  0  0  0  0
   -7.1119    9.8687   -7.8044 C   0  0  0  0  0  0  0  0  0  0  0  0
   -7.2220   10.4846   -8.7663 N   0  0  0  0  0  0  0  0  0  0  0  0
   -5.9360    6.6261   -2.9860 C   0  0  0  0  0  0  0  0  0  0  0  0
   -6.4419    5.4176   -2.5370 C   0  0  0  0  0  0  0  0  0  0  0  0
   -7.5460    4.9145   -3.1057 F   0  0  0  0  0  0  0  0  0  0  0  0
   -5.8691    4.7233   -1.4685 C   0  0  0  0  0  0  0  0  0  0  0  0
   -6.4530    3.5777   -1.0739 F   0  0  0  0  0  0  0  0  0  0  0  0
   -4.7690    5.2079   -0.7789 C   0  0  0  0  0  0  0  0  0  0  0  0
   -4.1798    6.4135   -1.2607 C   0  0  0  0  0  0  0  0  0  0  0  0
   -3.0720    6.8908   -0.6712 N   0  0  0  0  0  0  0  0  0  0  0  0
   -2.4957    7.9646   -1.1445 C   0  0  0  0  0  0  0  0  0  0  0  0
   -1.3175    8.4860   -0.3829 C   0  0  0  0  0  0  0  0  0  0  0  0
   -1.7108    9.7147    0.4404 C   0  0  0  0  0  0  0  0  0  0  0  0
   -2.9849    8.5772   -2.3358 C   0  0  0  0  0  0  0  0  0  0  0  0
   -4.0821    8.1394   -2.8958 N   0  0  0  0  0  0  0  0  0  0  0  0
   -4.7369    7.0943   -2.3677 C   0  0  0  0  0  0  0  0  0  0  0  0
   -2.2489    9.6505   -3.0790 C   0  0  0  0  0  0  0  0  0  0  0  0
   -1.2573    9.0139   -4.0572 C   0  0  0  0  0  0  0  0  0  0  0  0
   -4.1928    4.5001    0.3393 C   0  0  0  0  0  0  0  0  0  0  0  0
   -3.7337    5.0006    1.5448 C   0  0  0  0  0  0  0  0  0  0  0  0
   -3.9442    6.3681    2.0129 C   0  0  0  0  0  0  0  0  0  0  0  0
   -3.0240    6.9636    2.8738 C   0  0  0  0  0  0  0  0  0  0  0  0
   -3.2394    8.2462    3.3382 C   0  0  0  0  0  0  0  0  0  0  0  0
   -4.3567    8.9592    2.9359 C   0  0  0  0  0  0  0  0  0  0  0  0
   -5.2800    8.3902    2.0675 C   0  0  0  0  0  0  0  0  0  0  0  0
   -6.4963    9.1471    1.6179 C   0  0  0  0  0  0  0  0  0  0  0  0
   -7.7525    8.6443    2.3305 C   0  0  0  0  0  0  0  0  0  0  0  0
   -5.0731    7.0896    1.6341 C   0  0  0  0  0  0  0  0  0  0  0  0
   -3.1067    3.9825    2.2995 C   0  0  0  0  0  0  0  0  0  0  0  0
   -2.3200    3.9448    3.8629 S   0  0  0  0  0  0  0  0  0  0  0  0
   -1.9394    2.2721    3.6252 C   0  0  0  0  0  0  0  0  0  0  0  0
   -1.2404    1.2265    4.2605 C   0  0  0  0  0  0  0  0  0  0  0  0
   -0.6487    1.0676    5.5356 C   0  0  0  0  0  0  0  0  0  0  0  0
   -0.0733   -0.2059    5.8966 C   0  0  0  0  0  0  0  0  0  0  0  0
    0.3761   -0.2170    7.1408 N   0  0  0  0  0  0  0  0  0  0  0  0
    0.1120    1.2359    7.8020 S   0  0  0  0  0  0  0  0  0  0  0  0
   -0.5885    1.9431    6.5258 N   0  0  0  0  0  0  0  0  0  0  0  0
    0.0339   -1.2221    4.9175 C   0  0  0  0  0  0  0  0  0  0  0  0
    0.7162   -2.4524    4.8637 C   0  0  0  0  0  0  0  0  0  0  0  0
    1.6405   -3.5011    5.8887 S   0  0  0  0  0  0  0  0  0  0  0  0
    1.9471   -4.5446    4.5154 C   0  0  0  0  0  0  0  0  0  0  0  0
    2.7274   -5.7000    4.3428 C   0  0  0  0  0  0  0  0  0  0  0  0
    3.5795   -6.2659    5.3859 C   0  0  0  0  0  0  0  0  0  0  0  0
    3.1038   -6.4312    6.6833 C   0  0  0  0  0  0  0  0  0  0  0  0
    3.9273   -6.9744    7.6501 C   0  0  0  0  0  0  0  0  0  0  0  0
    5.2210   -7.3544    7.3365 C   0  0  0  0  0  0  0  0  0  0  0  0
    5.7201   -7.1743    6.0526 C   0  0  0  0  0  0  0  0  0  0  0  0
    7.1083   -7.6140    5.6832 C   0  0  0  0  0  0  0  0  0  0  0  0
    7.0618   -8.8704    4.8111 C   0  0  0  0  0  0  0  0  0  0  0  0
    4.8934   -6.6175    5.0900 C   0  0  0  0  0  0  0  0  0  0  0  0
    2.6952   -6.1326    3.0197 C   0  0  0  0  0  0  0  0  0  0  0  0
    1.7837   -5.0589    1.9763 S   0  0  0  0  0  0  0  0  0  0  0  0
    1.3436   -4.0930    3.3367 C   0  0  0  0  0  0  0  0  0  0  0  0
    0.6403   -2.9043    3.5400 C   0  0  0  0  0  0  0  0  0  0  0  0
   -0.0922   -2.0304    2.7776 N   0  0  0  0  0  0  0  0  0  0  0  0
   -0.4861   -1.0055    3.6145 C   0  0  0  0  0  0  0  0  0  0  0  0
   -1.2691    0.1358    3.3550 C   0  0  0  0  0  0  0  0  0  0  0  0
   -2.0318    0.4622    2.2492 N   0  0  0  0  0  0  0  0  0  0  0  0
   -2.4186    1.7689    2.4109 C   0  0  0  0  0  0  0  0  0  0  0  0
   -3.0963    2.7382    1.6662 C   0  0  0  0  0  0  0  0  0  0  0  0
   -3.8931    2.7860    0.1411 S   0  0  0  0  0  0  0  0  0  0  0  0
   -2.8368   -0.4611    1.4729 C   0  0  0  0  0  0  0  0  0  0  0  0
   -4.2891   -0.4647    1.9488 C   0  0  0  0  0  0  0  0  0  0  0  0
    0.1414   -1.9425    1.3508 C   0  0  0  0  0  0  0  0  0  0  0  0
    1.5871   -1.5472    1.0506 C   0  0  0  0  0  0  0  0  0  0  0  0
    3.2697   -7.2988    2.4241 C   0  0  0  0  0  0  0  0  0  0  0  0
    3.4775   -8.5116    3.0759 C   0  0  0  0  0  0  0  0  0  0  0  0
    3.0602   -8.6939    4.3389 F   0  0  0  0  0  0  0  0  0  0  0  0
    4.0503   -9.6067    2.4301 C   0  0  0  0  0  0  0  0  0  0  0  0
    4.1883  -10.7454    3.1260 F   0  0  0  0  0  0  0  0  0  0  0  0
    4.4064   -9.5961    1.0870 C   0  0  0  0  0  0  0  0  0  0  0  0
    4.2139   -8.3699    0.3848 C   0  0  0  0  0  0  0  0  0  0  0  0
    4.6595   -8.2285   -0.8712 N   0  0  0  0  0  0  0  0  0  0  0  0
    4.4179   -7.1231   -1.5307 C   0  0  0  0  0  0  0  0  0  0  0  0
    4.9590   -7.0491   -2.9259 C   0  0  0  0  0  0  0  0  0  0  0  0
    3.9165   -7.5512   -3.9281 C   0  0  0  0  0  0  0  0  0  0  0  0
    3.6670   -6.0760   -0.9286 C   0  0  0  0  0  0  0  0  0  0  0  0
    3.3393   -6.1634    0.3355 N   0  0  0  0  0  0  0  0  0  0  0  0
    3.6111   -7.2694    1.0353 C   0  0  0  0  0  0  0  0  0  0  0  0
    3.2936   -4.7975   -1.6140 C   0  0  0  0  0  0  0  0  0  0  0  0
    4.3203   -3.7090   -1.2900 C   0  0  0  0  0  0  0  0  0  0  0  0
    4.9844  -10.7366    0.4446 C   0  0  0  0  0  0  0  0  0  0  0  0
    4.7295  -11.0755   -0.8482 C   0  0  0  0  0  0  0  0  0  0  0  0
    3.5257  -10.6327   -1.6020 C   0  0  0  0  0  0  0  0  0  0  0  0
    2.6101   -9.9386   -1.2173 O   0  0  0  0  0  0  0  0  0  0  0  0
    3.5906  -11.3481   -2.8935 C   0  0  0  0  0  0  0  0  0  0  0  0
    2.7100  -11.2851   -3.9577 C   0  0  0  0  0  0  0  0  0  0  0  0
    2.9638  -12.0626   -5.0759 C   0  0  0  0  0  0  0  0  0  0  0  0
    4.0788  -12.8909   -5.0951 C   0  0  0  0  0  0  0  0  0  0  0  0
    4.4017  -13.9532   -6.6370 Br  0  0  0  0  0  0  0  0  0  0  0  0
    4.9668  -12.9762   -4.0298 C   0  0  0  0  0  0  0  0  0  0  0  0
    4.7162  -12.1894   -2.9171 C   0  0  0  0  0  0  0  0  0  0  0  0
    5.4486  -12.0362   -1.6608 C   0  0  0  0  0  0  0  0  0  0  0  0
    6.6474  -12.6226   -1.3571 C   0  0  0  0  0  0  0  0  0  0  0  0
    7.3861  -12.3814   -0.1782 C   0  0  0  0  0  0  0  0  0  0  0  0
    8.0566  -12.2182    0.7389 N   0  0  0  0  0  0  0  0  0  0  0  0
    7.3230  -13.5294   -2.2015 C   0  0  0  0  0  0  0  0  0  0  0  0
    7.9139  -14.2736   -2.8449 N   0  0  0  0  0  0  0  0  0  0  0  0
   -6.9097    6.7095   -4.8999 H   0  0  0  0  0  0  0  0  0  0  0  0
   -5.1368   12.0958   -2.1138 H   0  0  0  0  0  0  0  0  0  0  0  0
   -4.7823   14.0946   -3.5660 H   0  0  0  0  0  0  0  0  0  0  0  0
   -6.1298   11.9126   -6.9858 H   0  0  0  0  0  0  0  0  0  0  0  0
   -0.5046    8.7396   -1.0650 H   0  0  0  0  0  0  0  0  0  0  0  0
   -0.9828    7.6973    0.2913 H   0  0  0  0  0  0  0  0  0  0  0  0
   -2.0654   10.5214   -0.1968 H   0  0  0  0  0  0  0  0  0  0  0  0
   -2.5036    9.4549    1.1364 H   0  0  0  0  0  0  0  0  0  0  0  0
   -0.8529   10.0704    1.0054 H   0  0  0  0  0  0  0  0  0  0  0  0
   -2.9761   10.2385   -3.6411 H   0  0  0  0  0  0  0  0  0  0  0  0
   -1.7180   10.3079   -2.3926 H   0  0  0  0  0  0  0  0  0  0  0  0
   -1.7862    8.3802   -4.7650 H   0  0  0  0  0  0  0  0  0  0  0  0
   -0.5277    8.4040   -3.5287 H   0  0  0  0  0  0  0  0  0  0  0  0
   -0.7291    9.7869   -4.6092 H   0  0  0  0  0  0  0  0  0  0  0  0
   -2.1333    6.4301    3.1659 H   0  0  0  0  0  0  0  0  0  0  0  0
   -2.5252    8.6988    4.0106 H   0  0  0  0  0  0  0  0  0  0  0  0
   -4.5110    9.9669    3.2952 H   0  0  0  0  0  0  0  0  0  0  0  0
   -6.6176    9.0312    0.5386 H   0  0  0  0  0  0  0  0  0  0  0  0
   -6.3647   10.2099    1.8307 H   0  0  0  0  0  0  0  0  0  0  0  0
   -7.6541    8.7710    3.4069 H   0  0  0  0  0  0  0  0  0  0  0  0
   -8.6250    9.1987    1.9936 H   0  0  0  0  0  0  0  0  0  0  0  0
   -7.9136    7.5889    2.1245 H   0  0  0  0  0  0  0  0  0  0  0  0
   -5.8113    6.6314    0.9924 H   0  0  0  0  0  0  0  0  0  0  0  0
    2.0868   -6.1590    6.9203 H   0  0  0  0  0  0  0  0  0  0  0  0
    3.5548   -7.1124    8.6542 H   0  0  0  0  0  0  0  0  0  0  0  0
    5.8516   -7.7927    8.0964 H   0  0  0  0  0  0  0  0  0  0  0  0
    7.6152   -6.8155    5.1354 H   0  0  0  0  0  0  0  0  0  0  0  0
    7.6820   -7.8229    6.5876 H   0  0  0  0  0  0  0  0  0  0  0  0
    6.5204   -9.6645    5.3201 H   0  0  0  0  0  0  0  0  0  0  0  0
    6.5583   -8.6638    3.8685 H   0  0  0  0  0  0  0  0  0  0  0  0
    8.0676   -9.2205    4.5919 H   0  0  0  0  0  0  0  0  0  0  0  0
    5.2756   -6.4490    4.0918 H   0  0  0  0  0  0  0  0  0  0  0  0
   -2.4330   -1.4657    1.5931 H   0  0  0  0  0  0  0  0  0  0  0  0
   -2.7946   -0.1682    0.4186 H   0  0  0  0  0  0  0  0  0  0  0  0
   -4.3365   -0.7074    3.0082 H   0  0  0  0  0  0  0  0  0  0  0  0
   -4.8504   -1.2111    1.3938 H   0  0  0  0  0  0  0  0  0  0  0  0
   -4.7556    0.5033    1.7900 H   0  0  0  0  0  0  0  0  0  0  0  0
   -0.5174   -1.1923    0.9200 H   0  0  0  0  0  0  0  0  0  0  0  0
   -0.0758   -2.9196    0.9087 H   0  0  0  0  0  0  0  0  0  0  0  0
    1.8214   -0.5965    1.5249 H   0  0  0  0  0  0  0  0  0  0  0  0
    1.7204   -1.4448   -0.0227 H   0  0  0  0  0  0  0  0  0  0  0  0
    2.2791   -2.3009    1.4147 H   0  0  0  0  0  0  0  0  0  0  0  0
    5.8406   -7.6895   -2.9804 H   0  0  0  0  0  0  0  0  0  0  0  0
    5.2493   -6.0269   -3.1701 H   0  0  0  0  0  0  0  0  0  0  0  0
    3.6334   -8.5720   -3.6866 H   0  0  0  0  0  0  0  0  0  0  0  0
    3.0207   -6.9349   -3.9032 H   0  0  0  0  0  0  0  0  0  0  0  0
    4.3260   -7.5306   -4.9351 H   0  0  0  0  0  0  0  0  0  0  0  0
    2.3198   -4.4862   -1.2329 H   0  0  0  0  0  0  0  0  0  0  0  0
    3.2262   -4.9389   -2.6914 H   0  0  0  0  0  0  0  0  0  0  0  0
    4.3666   -3.5533   -0.2154 H   0  0  0  0  0  0  0  0  0  0  0  0
    5.3106   -3.9925   -1.6399 H   0  0  0  0  0  0  0  0  0  0  0  0
    4.0392   -2.7740   -1.7677 H   0  0  0  0  0  0  0  0  0  0  0  0
    5.6560  -11.3374    1.0445 H   0  0  0  0  0  0  0  0  0  0  0  0
    1.8465  -10.6394   -3.9112 H   0  0  0  0  0  0  0  0  0  0  0  0
    2.3033  -12.0331   -5.9285 H   0  0  0  0  0  0  0  0  0  0  0  0
    5.8133  -13.6411   -4.0849 H   0  0  0  0  0  0  0  0  0  0  0  0
  1  2  2  0  0  0  0
  2  3  1  0  0  0  0
  3  4  2  0  0  0  0
  3  5  1  0  0  0  0
  5  6  2  0  0  0  0
  6  7  1  0  0  0  0
  7  8  2  0  0  0  0
  8  9  1  0  0  0  0
  8 10  1  0  0  0  0
 10 11  2  0  0  0  0
 11 12  1  0  0  0  0
 12 13  2  0  0  0  0
 13 14  1  0  0  0  0
 14 15  3  0  0  0  0
 13 16  1  0  0  0  0
 16 17  3  0  0  0  0
  1 18  1  0  0  0  0
 18 19  2  0  0  0  0
 19 20  1  0  0  0  0
 19 21  1  0  0  0  0
 21 22  1  0  0  0  0
 21 23  2  0  0  0  0
 23 24  1  0  0  0  0
 24 25  2  0  0  0  0
 25 26  1  0  0  0  0
 26 27  1  0  0  0  0
 27 28  1  0  0  0  0
 26 29  2  0  0  0  0
 29 30  1  0  0  0  0
 30 31  2  0  0  0  0
 29 32  1  0  0  0  0
 32 33  1  0  0  0  0
 23 34  1  0  0  0  0
 34 35  2  0  0  0  0
 35 36  1  0  0  0  0
 36 37  2  0  0  0  0
 37 38  1  0  0  0  0
 38 39  2  0  0  0  0
 39 40  1  0  0  0  0
 40 41  1  0  0  0  0
 41 42  1  0  0  0  0
 40 43  2  0  0  0  0
 35 44  1  0  0  0  0
 44 45  1  0  0  0  0
 45 46  1  0  0  0  0
 46 47  1  0  0  0  0
 47 48  1  0  0  0  0
 48 49  1  0  0  0  0
 49 50  2  0  0  0  0
 50 51  1  0  0  0  0
 51 52  1  0  0  0  0
 49 53  1  0  0  0  0
 53 54  1  0  0  0  0
 54 55  1  0  0  0  0
 55 56  1  0  0  0  0
 56 57  1  0  0  0  0
 57 58  1  0  0  0  0
 58 59  2  0  0  0  0
 59 60  1  0  0  0  0
 60 61  2  0  0  0  0
 61 62  1  0  0  0  0
 62 63  1  0  0  0  0
 63 64  1  0  0  0  0
 62 65  2  0  0  0  0
 57 66  2  0  0  0  0
 66 67  1  0  0  0  0
 67 68  1  0  0  0  0
 68 69  1  0  0  0  0
 69 70  1  0  0  0  0
 70 71  1  0  0  0  0
 71 72  1  0  0  0  0
 72 73  1  0  0  0  0
 73 74  1  0  0  0  0
 74 75  1  0  0  0  0
 75 76  1  0  0  0  0
 73 77  1  0  0  0  0
 77 78  1  0  0  0  0
 70 79  1  0  0  0  0
 79 80  1  0  0  0  0
 66 81  1  0  0  0  0
 81 82  2  0  0  0  0
 82 83  1  0  0  0  0
 82 84  1  0  0  0  0
 84 85  1  0  0  0  0
 84 86  2  0  0  0  0
 86 87  1  0  0  0  0
 87 88  2  0  0  0  0
 88 89  1  0  0  0  0
 89 90  1  0  0  0  0
 90 91  1  0  0  0  0
 89 92  2  0  0  0  0
 92 93  1  0  0  0  0
 93 94  2  0  0  0  0
 92 95  1  0  0  0  0
 95 96  1  0  0  0  0
 86 97  1  0  0  0  0
 97 98  2  0  0  0  0
 98 99  1  0  0  0  0
 99100  2  0  0  0  0
 99101  1  0  0  0  0
101102  2  0  0  0  0
102103  1  0  0  0  0
103104  2  0  0  0  0
104105  1  0  0  0  0
104106  1  0  0  0  0
106107  2  0  0  0  0
107108  1  0  0  0  0
108109  2  0  0  0  0
109110  1  0  0  0  0
110111  3  0  0  0  0
109112  1  0  0  0  0
112113  3  0  0  0  0
 12  2  1  0  0  0  0
 31 18  1  0  0  0  0
 76 34  1  0  0  0  0
 94 81  1  0  0  0  0
108 98  1  0  0  0  0
 11  5  1  0  0  0  0
 31 24  1  0  0  0  0
 43 36  1  0  0  0  0
 75 44  2  0  0  0  0
 94 87  1  0  0  0  0
107101  1  0  0  0  0
 74 46  2  0  0  0  0
 72 47  2  0  0  0  0
 52 48  2  0  0  0  0
 71 53  2  0  0  0  0
 69 54  2  0  0  0  0
 68 56  2  0  0  0  0
 65 58  1  0  0  0  0
  1114  1  0  0  0  0
  6115  1  0  0  0  0
  7116  1  0  0  0  0
 10117  1  0  0  0  0
 27118  1  0  0  0  0
 27119  1  0  0  0  0
 28120  1  0  0  0  0
 28121  1  0  0  0  0
 28122  1  0  0  0  0
 32123  1  0  0  0  0
 32124  1  0  0  0  0
 33125  1  0  0  0  0
 33126  1  0  0  0  0
 33127  1  0  0  0  0
 37128  1  0  0  0  0
 38129  1  0  0  0  0
 39130  1  0  0  0  0
 41131  1  0  0  0  0
 41132  1  0  0  0  0
 42133  1  0  0  0  0
 42134  1  0  0  0  0
 42135  1  0  0  0  0
 43136  1  0  0  0  0
 59137  1  0  0  0  0
 60138  1  0  0  0  0
 61139  1  0  0  0  0
 63140  1  0  0  0  0
 63141  1  0  0  0  0
 64142  1  0  0  0  0
 64143  1  0  0  0  0
 64144  1  0  0  0  0
 65145  1  0  0  0  0
 77146  1  0  0  0  0
 77147  1  0  0  0  0
 78148  1  0  0  0  0
 78149  1  0  0  0  0
 78150  1  0  0  0  0
 79151  1  0  0  0  0
 79152  1  0  0  0  0
 80153  1  0  0  0  0
 80154  1  0  0  0  0
 80155  1  0  0  0  0
 90156  1  0  0  0  0
 90157  1  0  0  0  0
 91158  1  0  0  0  0
 91159  1  0  0  0  0
 91160  1  0  0  0  0
 95161  1  0  0  0  0
 95162  1  0  0  0  0
 96163  1  0  0  0  0
 96164  1  0  0  0  0
 96165  1  0  0  0  0
 97166  1  0  0  0  0
102167  1  0  0  0  0
103168  1  0  0  0  0
106169  1  0  0  0  0
M  END
