
  xtb     02052213313D
 energy: -339.525009494329 gnorm: 0.000569593406 xtb: 6.4.1 (unknown)
198219  0     0  0            999 V2000
    8.1501   -0.9129   -9.8315 C   0  0  0  0  0  0  0  0  0  0  0  0
    7.7971    0.1394  -10.6356 C   0  0  0  0  0  0  0  0  0  0  0  0
    7.0719    1.3409  -10.1716 C   0  0  0  0  0  0  0  0  0  0  0  0
    6.4923    1.5093   -9.1151 O   0  0  0  0  0  0  0  0  0  0  0  0
    7.2639    2.3477  -11.2356 C   0  0  0  0  0  0  0  0  0  0  0  0
    6.8332    3.6600  -11.2749 C   0  0  0  0  0  0  0  0  0  0  0  0
    7.1380    4.4253  -12.3896 C   0  0  0  0  0  0  0  0  0  0  0  0
    7.8680    3.8686  -13.4335 C   0  0  0  0  0  0  0  0  0  0  0  0
    8.2434    4.8402  -14.8057 Cl  0  0  0  0  0  0  0  0  0  0  0  0
    8.3084    2.5483  -13.4072 C   0  0  0  0  0  0  0  0  0  0  0  0
    7.9986    1.7857  -12.2950 C   0  0  0  0  0  0  0  0  0  0  0  0
    8.2911    0.3913  -11.9706 C   0  0  0  0  0  0  0  0  0  0  0  0
    8.8208   -0.5466  -12.8170 C   0  0  0  0  0  0  0  0  0  0  0  0
    8.9033   -1.9205  -12.5057 C   0  0  0  0  0  0  0  0  0  0  0  0
    8.9424   -3.0554  -12.3361 N   0  0  0  0  0  0  0  0  0  0  0  0
    9.2769   -0.2675  -14.1210 C   0  0  0  0  0  0  0  0  0  0  0  0
    9.6686   -0.0904  -15.1856 N   0  0  0  0  0  0  0  0  0  0  0  0
    7.6440   -1.1552   -8.5258 C   0  0  0  0  0  0  0  0  0  0  0  0
    6.3250   -0.9248   -8.1020 C   0  0  0  0  0  0  0  0  0  0  0  0
    5.2409   -0.9168   -8.8936 O   0  0  0  0  0  0  0  0  0  0  0  0
    5.2697   -1.3830  -10.2253 C   0  0  0  0  0  0  0  0  0  0  0  0
    3.8948   -1.9530  -10.5428 C   0  0  0  0  0  0  0  0  0  0  0  0
    6.0387   -0.7893   -6.7130 C   0  0  0  0  0  0  0  0  0  0  0  0
    4.8103   -0.4334   -6.2700 O   0  0  0  0  0  0  0  0  0  0  0  0
    4.0571    0.5629   -6.9611 C   0  0  0  0  0  0  0  0  0  0  0  0
    3.3564    1.4222   -5.9186 C   0  0  0  0  0  0  0  0  0  0  0  0
    7.0008   -1.0708   -5.7459 C   0  0  0  0  0  0  0  0  0  0  0  0
    8.2280   -1.6706   -6.1789 C   0  0  0  0  0  0  0  0  0  0  0  0
    8.5765   -1.6391   -7.5505 C   0  0  0  0  0  0  0  0  0  0  0  0
    9.7966   -2.0349   -7.9442 N   0  0  0  0  0  0  0  0  0  0  0  0
   10.5942   -2.5540   -7.0430 C   0  0  0  0  0  0  0  0  0  0  0  0
   10.1800   -2.7369   -5.7171 C   0  0  0  0  0  0  0  0  0  0  0  0
    9.0290   -2.2757   -5.2943 N   0  0  0  0  0  0  0  0  0  0  0  0
    6.7529   -0.8390   -4.3536 C   0  0  0  0  0  0  0  0  0  0  0  0
    7.6776   -0.6116   -3.3420 C   0  0  0  0  0  0  0  0  0  0  0  0
    9.1037   -0.3552   -3.5408 C   0  0  0  0  0  0  0  0  0  0  0  0
   10.0484   -0.8986   -2.6759 C   0  0  0  0  0  0  0  0  0  0  0  0
   11.3917   -0.6436   -2.8749 C   0  0  0  0  0  0  0  0  0  0  0  0
   11.8048    0.1538   -3.9275 C   0  0  0  0  0  0  0  0  0  0  0  0
   10.8738    0.7249   -4.7870 C   0  0  0  0  0  0  0  0  0  0  0  0
   11.3099    1.6279   -5.9058 C   0  0  0  0  0  0  0  0  0  0  0  0
   11.3215    3.0868   -5.4461 C   0  0  0  0  0  0  0  0  0  0  0  0
    9.5279    0.4787   -4.5730 C   0  0  0  0  0  0  0  0  0  0  0  0
    7.0481   -0.5211   -2.0876 C   0  0  0  0  0  0  0  0  0  0  0  0
    7.6577   -0.2398   -0.4710 S   0  0  0  0  0  0  0  0  0  0  0  0
    6.0313   -0.2763    0.1236 C   0  0  0  0  0  0  0  0  0  0  0  0
    5.3301   -0.1110    1.3284 C   0  0  0  0  0  0  0  0  0  0  0  0
    5.7840    0.2257    2.6218 C   0  0  0  0  0  0  0  0  0  0  0  0
    4.8185    0.4655    3.6551 C   0  0  0  0  0  0  0  0  0  0  0  0
    5.3796    0.8213    4.8004 N   0  0  0  0  0  0  0  0  0  0  0  0
    6.9863    0.8453    4.5969 S   0  0  0  0  0  0  0  0  0  0  0  0
    7.0273    0.4069    3.0388 N   0  0  0  0  0  0  0  0  0  0  0  0
    3.4504    0.2710    3.3689 C   0  0  0  0  0  0  0  0  0  0  0  0
    2.3152    0.3687    4.1906 C   0  0  0  0  0  0  0  0  0  0  0  0
    1.8933    0.8107    5.8116 S   0  0  0  0  0  0  0  0  0  0  0  0
    0.2142    0.4872    5.4420 C   0  0  0  0  0  0  0  0  0  0  0  0
   -0.9754    0.5778    6.2023 C   0  0  0  0  0  0  0  0  0  0  0  0
   -0.9863    0.9106    7.6283 C   0  0  0  0  0  0  0  0  0  0  0  0
   -1.7637    0.1753    8.5211 C   0  0  0  0  0  0  0  0  0  0  0  0
   -1.7321    0.4737    9.8690 C   0  0  0  0  0  0  0  0  0  0  0  0
   -0.9263    1.4962   10.3407 C   0  0  0  0  0  0  0  0  0  0  0  0
   -0.1355    2.2311    9.4671 C   0  0  0  0  0  0  0  0  0  0  0  0
    0.7180    3.3614    9.9659 C   0  0  0  0  0  0  0  0  0  0  0  0
   -0.0553    4.6806    9.9161 C   0  0  0  0  0  0  0  0  0  0  0  0
   -0.1756    1.9309    8.1136 C   0  0  0  0  0  0  0  0  0  0  0  0
   -2.0782    0.2290    5.4512 C   0  0  0  0  0  0  0  0  0  0  0  0
   -1.6502   -0.2576    3.8178 S   0  0  0  0  0  0  0  0  0  0  0  0
    0.0191    0.0480    4.1340 C   0  0  0  0  0  0  0  0  0  0  0  0
    1.2217   -0.0186    3.4172 C   0  0  0  0  0  0  0  0  0  0  0  0
    1.6268   -0.3354    2.1486 N   0  0  0  0  0  0  0  0  0  0  0  0
    3.0009   -0.1526    2.0858 C   0  0  0  0  0  0  0  0  0  0  0  0
    3.9445   -0.2573    1.0289 C   0  0  0  0  0  0  0  0  0  0  0  0
    3.8208   -0.4918   -0.3317 N   0  0  0  0  0  0  0  0  0  0  0  0
    5.0784   -0.4929   -0.8732 C   0  0  0  0  0  0  0  0  0  0  0  0
    5.6563   -0.6388   -2.1404 C   0  0  0  0  0  0  0  0  0  0  0  0
    5.1055   -0.8504   -3.7633 S   0  0  0  0  0  0  0  0  0  0  0  0
    2.6826   -0.3529   -1.2109 C   0  0  0  0  0  0  0  0  0  0  0  0
    2.1033    1.0590   -1.1566 C   0  0  0  0  0  0  0  0  0  0  0  0
    0.7487   -1.1136    1.3041 C   0  0  0  0  0  0  0  0  0  0  0  0
    1.2372   -2.5534    1.1648 C   0  0  0  0  0  0  0  0  0  0  0  0
   -3.4899    0.3148    5.7560 C   0  0  0  0  0  0  0  0  0  0  0  0
   -4.3854   -0.5427    5.1046 C   0  0  0  0  0  0  0  0  0  0  0  0
   -5.7322   -0.3842    5.3099 C   0  0  0  0  0  0  0  0  0  0  0  0
   -6.8633   -1.1578    4.6807 C   0  0  0  0  0  0  0  0  0  0  0  0
   -6.7786   -1.1829    3.1732 C   0  0  0  0  0  0  0  0  0  0  0  0
   -6.7653   -0.1240    2.2970 C   0  0  0  0  0  0  0  0  0  0  0  0
   -6.6469   -0.3732    0.9349 C   0  0  0  0  0  0  0  0  0  0  0  0
   -6.5387   -1.6777    0.4587 C   0  0  0  0  0  0  0  0  0  0  0  0
   -6.4084   -2.0150   -0.8529 O   0  0  0  0  0  0  0  0  0  0  0  0
   -6.3768   -0.9943   -1.8295 C   0  0  0  0  0  0  0  0  0  0  0  0
   -6.2162   -1.6607   -3.1871 C   0  0  0  0  0  0  0  0  0  0  0  0
   -6.5569   -2.7537    1.3511 C   0  0  0  0  0  0  0  0  0  0  0  0
   -6.6769   -2.5011    2.7014 C   0  0  0  0  0  0  0  0  0  0  0  0
   -6.7218   -3.4022    3.8431 C   0  0  0  0  0  0  0  0  0  0  0  0
   -6.6805   -4.7786    3.9138 C   0  0  0  0  0  0  0  0  0  0  0  0
   -6.7589   -5.4003    5.1641 C   0  0  0  0  0  0  0  0  0  0  0  0
   -6.7346   -6.7602    5.1261 O   0  0  0  0  0  0  0  0  0  0  0  0
   -6.7558   -7.5076    6.3253 C   0  0  0  0  0  0  0  0  0  0  0  0
   -5.3976   -7.5444    7.0205 C   0  0  0  0  0  0  0  0  0  0  0  0
   -6.8727   -4.6267    6.3174 C   0  0  0  0  0  0  0  0  0  0  0  0
   -6.9117   -3.2400    6.2414 C   0  0  0  0  0  0  0  0  0  0  0  0
   -6.8363   -2.6325    5.0108 C   0  0  0  0  0  0  0  0  0  0  0  0
   -8.0679   -0.4400    5.2333 C   0  0  0  0  0  0  0  0  0  0  0  0
   -7.6720    0.5879    6.1115 C   0  0  0  0  0  0  0  0  0  0  0  0
   -6.2268    0.6209    6.1578 C   0  0  0  0  0  0  0  0  0  0  0  0
   -5.3414    1.4596    6.8229 C   0  0  0  0  0  0  0  0  0  0  0  0
   -3.9860    1.3046    6.6154 C   0  0  0  0  0  0  0  0  0  0  0  0
   -8.6316    1.3643    6.7482 C   0  0  0  0  0  0  0  0  0  0  0  0
   -9.9644    1.1442    6.4692 C   0  0  0  0  0  0  0  0  0  0  0  0
  -10.3654    0.1449    5.5695 C   0  0  0  0  0  0  0  0  0  0  0  0
   -9.3914   -0.6829    4.9799 C   0  0  0  0  0  0  0  0  0  0  0  0
  -11.7428   -0.1088    5.2545 C   0  0  0  0  0  0  0  0  0  0  0  0
  -12.7668    0.7829    5.1628 C   0  0  0  0  0  0  0  0  0  0  0  0
  -12.6378    2.2614    5.0442 C   0  0  0  0  0  0  0  0  0  0  0  0
  -11.6564    2.9517    5.2043 O   0  0  0  0  0  0  0  0  0  0  0  0
  -13.9654    2.7323    4.5982 C   0  0  0  0  0  0  0  0  0  0  0  0
  -14.3588    4.0203    4.2862 C   0  0  0  0  0  0  0  0  0  0  0  0
  -15.6655    4.2345    3.8799 C   0  0  0  0  0  0  0  0  0  0  0  0
  -16.5458    3.1613    3.7878 C   0  0  0  0  0  0  0  0  0  0  0  0
  -18.1641    3.4475    3.2715 Cl  0  0  0  0  0  0  0  0  0  0  0  0
  -16.1626    1.8603    4.0974 C   0  0  0  0  0  0  0  0  0  0  0  0
  -14.8567    1.6500    4.5090 C   0  0  0  0  0  0  0  0  0  0  0  0
  -14.1544    0.4319    4.9042 C   0  0  0  0  0  0  0  0  0  0  0  0
  -14.7280   -0.7975    5.0833 C   0  0  0  0  0  0  0  0  0  0  0  0
  -14.0573   -1.9419    5.5680 C   0  0  0  0  0  0  0  0  0  0  0  0
  -13.5918   -2.9074    5.9793 N   0  0  0  0  0  0  0  0  0  0  0  0
  -16.0895   -1.0789    4.8400 C   0  0  0  0  0  0  0  0  0  0  0  0
  -17.1839   -1.3707    4.6556 N   0  0  0  0  0  0  0  0  0  0  0  0
    8.9972   -1.5260  -10.1135 H   0  0  0  0  0  0  0  0  0  0  0  0
    6.2698    4.0713  -10.4517 H   0  0  0  0  0  0  0  0  0  0  0  0
    6.8147    5.4521  -12.4554 H   0  0  0  0  0  0  0  0  0  0  0  0
    8.8770    2.1529  -14.2329 H   0  0  0  0  0  0  0  0  0  0  0  0
    5.4976   -0.5519  -10.9078 H   0  0  0  0  0  0  0  0  0  0  0  0
    6.0477   -2.1477  -10.3470 H   0  0  0  0  0  0  0  0  0  0  0  0
    3.8785   -2.3132  -11.5671 H   0  0  0  0  0  0  0  0  0  0  0  0
    3.1360   -1.1843  -10.4233 H   0  0  0  0  0  0  0  0  0  0  0  0
    3.6660   -2.7770   -9.8723 H   0  0  0  0  0  0  0  0  0  0  0  0
    4.7188    1.1713   -7.5821 H   0  0  0  0  0  0  0  0  0  0  0  0
    3.3208    0.0671   -7.6029 H   0  0  0  0  0  0  0  0  0  0  0  0
    4.0883    1.9199   -5.2879 H   0  0  0  0  0  0  0  0  0  0  0  0
    2.7457    2.1718   -6.4137 H   0  0  0  0  0  0  0  0  0  0  0  0
    2.7236    0.8011   -5.2904 H   0  0  0  0  0  0  0  0  0  0  0  0
   11.5756   -2.8525   -7.3839 H   0  0  0  0  0  0  0  0  0  0  0  0
   10.7907   -3.2514   -4.9893 H   0  0  0  0  0  0  0  0  0  0  0  0
    9.7294   -1.5411   -1.8701 H   0  0  0  0  0  0  0  0  0  0  0  0
   12.1237   -1.0751   -2.2078 H   0  0  0  0  0  0  0  0  0  0  0  0
   12.8580    0.3380   -4.0851 H   0  0  0  0  0  0  0  0  0  0  0  0
   10.6277    1.5207   -6.7528 H   0  0  0  0  0  0  0  0  0  0  0  0
   12.3112    1.3460   -6.2379 H   0  0  0  0  0  0  0  0  0  0  0  0
   12.0008    3.2121   -4.6058 H   0  0  0  0  0  0  0  0  0  0  0  0
   11.6437    3.7388   -6.2548 H   0  0  0  0  0  0  0  0  0  0  0  0
   10.3265    3.3909   -5.1292 H   0  0  0  0  0  0  0  0  0  0  0  0
    8.7941    0.9299   -5.2274 H   0  0  0  0  0  0  0  0  0  0  0  0
   -2.3799   -0.6323    8.1543 H   0  0  0  0  0  0  0  0  0  0  0  0
   -2.3344   -0.0995   10.5587 H   0  0  0  0  0  0  0  0  0  0  0  0
   -0.9042    1.7201   11.3976 H   0  0  0  0  0  0  0  0  0  0  0  0
    1.0276    3.1644   10.9941 H   0  0  0  0  0  0  0  0  0  0  0  0
    1.6143    3.4453    9.3484 H   0  0  0  0  0  0  0  0  0  0  0  0
   -0.9482    4.6202   10.5347 H   0  0  0  0  0  0  0  0  0  0  0  0
   -0.3603    4.9025    8.8958 H   0  0  0  0  0  0  0  0  0  0  0  0
    0.5636    5.4980   10.2787 H   0  0  0  0  0  0  0  0  0  0  0  0
    0.4276    2.5043    7.4248 H   0  0  0  0  0  0  0  0  0  0  0  0
    3.0488   -0.5530   -2.2209 H   0  0  0  0  0  0  0  0  0  0  0  0
    1.9281   -1.1070   -0.9883 H   0  0  0  0  0  0  0  0  0  0  0  0
    2.8497    1.7769   -1.4883 H   0  0  0  0  0  0  0  0  0  0  0  0
    1.8055    1.3230   -0.1444 H   0  0  0  0  0  0  0  0  0  0  0  0
    1.2379    1.1326   -1.8098 H   0  0  0  0  0  0  0  0  0  0  0  0
    0.6207   -0.6346    0.3331 H   0  0  0  0  0  0  0  0  0  0  0  0
   -0.2298   -1.1125    1.7908 H   0  0  0  0  0  0  0  0  0  0  0  0
    0.5654   -3.1128    0.5192 H   0  0  0  0  0  0  0  0  0  0  0  0
    1.2580   -3.0324    2.1410 H   0  0  0  0  0  0  0  0  0  0  0  0
    2.2412   -2.5909    0.7487 H   0  0  0  0  0  0  0  0  0  0  0  0
   -4.0178   -1.3109    4.4390 H   0  0  0  0  0  0  0  0  0  0  0  0
   -6.8449    0.8923    2.6546 H   0  0  0  0  0  0  0  0  0  0  0  0
   -6.6386    0.4634    0.2545 H   0  0  0  0  0  0  0  0  0  0  0  0
   -7.3094   -0.4136   -1.8007 H   0  0  0  0  0  0  0  0  0  0  0  0
   -5.5339   -0.3148   -1.6387 H   0  0  0  0  0  0  0  0  0  0  0  0
   -5.2975   -2.2406   -3.2086 H   0  0  0  0  0  0  0  0  0  0  0  0
   -6.1823   -0.9067   -3.9683 H   0  0  0  0  0  0  0  0  0  0  0  0
   -7.0516   -2.3301   -3.3721 H   0  0  0  0  0  0  0  0  0  0  0  0
   -6.4747   -3.7556    0.9620 H   0  0  0  0  0  0  0  0  0  0  0  0
   -6.5973   -5.3934    3.0321 H   0  0  0  0  0  0  0  0  0  0  0  0
   -7.0354   -8.5166    6.0088 H   0  0  0  0  0  0  0  0  0  0  0  0
   -7.5330   -7.1331    7.0026 H   0  0  0  0  0  0  0  0  0  0  0  0
   -5.4552   -8.1751    7.9034 H   0  0  0  0  0  0  0  0  0  0  0  0
   -4.6496   -7.9507    6.3442 H   0  0  0  0  0  0  0  0  0  0  0  0
   -5.0842   -6.5467    7.3180 H   0  0  0  0  0  0  0  0  0  0  0  0
   -6.9406   -5.0883    7.2895 H   0  0  0  0  0  0  0  0  0  0  0  0
   -7.0029   -2.6538    7.1444 H   0  0  0  0  0  0  0  0  0  0  0  0
   -5.7051    2.2398    7.4744 H   0  0  0  0  0  0  0  0  0  0  0  0
   -3.2917    1.9746    7.0985 H   0  0  0  0  0  0  0  0  0  0  0  0
   -8.3413    2.1336    7.4473 H   0  0  0  0  0  0  0  0  0  0  0  0
  -10.7146    1.7294    6.9743 H   0  0  0  0  0  0  0  0  0  0  0  0
   -9.6878   -1.4738    4.3059 H   0  0  0  0  0  0  0  0  0  0  0  0
  -11.9619   -1.1424    5.0095 H   0  0  0  0  0  0  0  0  0  0  0  0
  -13.6544    4.8340    4.3633 H   0  0  0  0  0  0  0  0  0  0  0  0
  -16.0091    5.2263    3.6321 H   0  0  0  0  0  0  0  0  0  0  0  0
  -16.8736    1.0559    4.0068 H   0  0  0  0  0  0  0  0  0  0  0  0
  1  2  2  0  0  0  0
  2  3  1  0  0  0  0
  3  4  2  0  0  0  0
  3  5  1  0  0  0  0
  5  6  2  0  0  0  0
  6  7  1  0  0  0  0
  7  8  2  0  0  0  0
  8  9  1  0  0  0  0
  8 10  1  0  0  0  0
 10 11  2  0  0  0  0
 11 12  1  0  0  0  0
 12 13  2  0  0  0  0
 13 14  1  0  0  0  0
 14 15  3  0  0  0  0
 13 16  1  0  0  0  0
 16 17  3  0  0  0  0
  1 18  1  0  0  0  0
 18 19  2  0  0  0  0
 19 20  1  0  0  0  0
 20 21  1  0  0  0  0
 21 22  1  0  0  0  0
 19 23  1  0  0  0  0
 23 24  1  0  0  0  0
 24 25  1  0  0  0  0
 25 26  1  0  0  0  0
 23 27  2  0  0  0  0
 27 28  1  0  0  0  0
 28 29  2  0  0  0  0
 29 30  1  0  0  0  0
 30 31  2  0  0  0  0
 31 32  1  0  0  0  0
 32 33  2  0  0  0  0
 27 34  1  0  0  0  0
 34 35  2  0  0  0  0
 35 36  1  0  0  0  0
 36 37  2  0  0  0  0
 37 38  1  0  0  0  0
 38 39  2  0  0  0  0
 39 40  1  0  0  0  0
 40 41  1  0  0  0  0
 41 42  1  0  0  0  0
 40 43  2  0  0  0  0
 35 44  1  0  0  0  0
 44 45  1  0  0  0  0
 45 46  1  0  0  0  0
 46 47  1  0  0  0  0
 47 48  1  0  0  0  0
 48 49  1  0  0  0  0
 49 50  2  0  0  0  0
 50 51  1  0  0  0  0
 51 52  1  0  0  0  0
 49 53  1  0  0  0  0
 53 54  1  0  0  0  0
 54 55  1  0  0  0  0
 55 56  1  0  0  0  0
 56 57  1  0  0  0  0
 57 58  1  0  0  0  0
 58 59  2  0  0  0  0
 59 60  1  0  0  0  0
 60 61  2  0  0  0  0
 61 62  1  0  0  0  0
 62 63  1  0  0  0  0
 63 64  1  0  0  0  0
 62 65  2  0  0  0  0
 57 66  2  0  0  0  0
 66 67  1  0  0  0  0
 67 68  1  0  0  0  0
 68 69  1  0  0  0  0
 69 70  1  0  0  0  0
 70 71  1  0  0  0  0
 71 72  1  0  0  0  0
 72 73  1  0  0  0  0
 73 74  1  0  0  0  0
 74 75  1  0  0  0  0
 75 76  1  0  0  0  0
 73 77  1  0  0  0  0
 77 78  1  0  0  0  0
 70 79  1  0  0  0  0
 79 80  1  0  0  0  0
 66 81  1  0  0  0  0
 81 82  2  0  0  0  0
 82 83  1  0  0  0  0
 83 84  1  0  0  0  0
 84 85  1  0  0  0  0
 85 86  2  0  0  0  0
 86 87  1  0  0  0  0
 87 88  2  0  0  0  0
 88 89  1  0  0  0  0
 89 90  1  0  0  0  0
 90 91  1  0  0  0  0
 88 92  1  0  0  0  0
 92 93  2  0  0  0  0
 93 94  1  0  0  0  0
 94 95  2  0  0  0  0
 95 96  1  0  0  0  0
 96 97  1  0  0  0  0
 97 98  1  0  0  0  0
 98 99  1  0  0  0  0
 96100  2  0  0  0  0
100101  1  0  0  0  0
101102  2  0  0  0  0
 84103  1  0  0  0  0
103104  2  0  0  0  0
104105  1  0  0  0  0
105106  1  0  0  0  0
106107  2  0  0  0  0
104108  1  0  0  0  0
108109  2  0  0  0  0
109110  1  0  0  0  0
110111  2  0  0  0  0
110112  1  0  0  0  0
112113  2  0  0  0  0
113114  1  0  0  0  0
114115  2  0  0  0  0
114116  1  0  0  0  0
116117  2  0  0  0  0
117118  1  0  0  0  0
118119  2  0  0  0  0
119120  1  0  0  0  0
119121  1  0  0  0  0
121122  2  0  0  0  0
122123  1  0  0  0  0
123124  2  0  0  0  0
124125  1  0  0  0  0
125126  3  0  0  0  0
124127  1  0  0  0  0
127128  3  0  0  0  0
 12  2  1  0  0  0  0
 29 18  1  0  0  0  0
 76 34  1  0  0  0  0
107 81  1  0  0  0  0
123113  1  0  0  0  0
 11  5  1  0  0  0  0
 33 28  1  0  0  0  0
 43 36  1  0  0  0  0
 75 44  2  0  0  0  0
105 83  2  0  0  0  0
122116  1  0  0  0  0
 74 46  2  0  0  0  0
102 84  1  0  0  0  0
111103  1  0  0  0  0
 72 47  2  0  0  0  0
 93 85  1  0  0  0  0
102 94  1  0  0  0  0
 52 48  2  0  0  0  0
 71 53  2  0  0  0  0
 69 54  2  0  0  0  0
 68 56  2  0  0  0  0
 65 58  1  0  0  0  0
  1129  1  0  0  0  0
  6130  1  0  0  0  0
  7131  1  0  0  0  0
 10132  1  0  0  0  0
 21133  1  0  0  0  0
 21134  1  0  0  0  0
 22135  1  0  0  0  0
 22136  1  0  0  0  0
 22137  1  0  0  0  0
 25138  1  0  0  0  0
 25139  1  0  0  0  0
 26140  1  0  0  0  0
 26141  1  0  0  0  0
 26142  1  0  0  0  0
 31143  1  0  0  0  0
 32144  1  0  0  0  0
 37145  1  0  0  0  0
 38146  1  0  0  0  0
 39147  1  0  0  0  0
 41148  1  0  0  0  0
 41149  1  0  0  0  0
 42150  1  0  0  0  0
 42151  1  0  0  0  0
 42152  1  0  0  0  0
 43153  1  0  0  0  0
 59154  1  0  0  0  0
 60155  1  0  0  0  0
 61156  1  0  0  0  0
 63157  1  0  0  0  0
 63158  1  0  0  0  0
 64159  1  0  0  0  0
 64160  1  0  0  0  0
 64161  1  0  0  0  0
 65162  1  0  0  0  0
 77163  1  0  0  0  0
 77164  1  0  0  0  0
 78165  1  0  0  0  0
 78166  1  0  0  0  0
 78167  1  0  0  0  0
 79168  1  0  0  0  0
 79169  1  0  0  0  0
 80170  1  0  0  0  0
 80171  1  0  0  0  0
 80172  1  0  0  0  0
 82173  1  0  0  0  0
 86174  1  0  0  0  0
 87175  1  0  0  0  0
 90176  1  0  0  0  0
 90177  1  0  0  0  0
 91178  1  0  0  0  0
 91179  1  0  0  0  0
 91180  1  0  0  0  0
 92181  1  0  0  0  0
 95182  1  0  0  0  0
 98183  1  0  0  0  0
 98184  1  0  0  0  0
 99185  1  0  0  0  0
 99186  1  0  0  0  0
 99187  1  0  0  0  0
100188  1  0  0  0  0
101189  1  0  0  0  0
106190  1  0  0  0  0
107191  1  0  0  0  0
108192  1  0  0  0  0
109193  1  0  0  0  0
111194  1  0  0  0  0
112195  1  0  0  0  0
117196  1  0  0  0  0
118197  1  0  0  0  0
121198  1  0  0  0  0
M  END
