
  xtb     02052211093D
 energy: -313.598661795806 gnorm: 0.000427154448 xtb: 6.4.1 (unknown)
179197  0     0  0            999 V2000
    6.1609    9.4020    5.6718 C   0  0  0  0  0  0  0  0  0  0  0  0
    7.2472    9.1953    6.4523 C   0  0  0  0  0  0  0  0  0  0  0  0
    7.9933    7.9099    6.4978 C   0  0  0  0  0  0  0  0  0  0  0  0
    7.6368    6.8355    6.0659 O   0  0  0  0  0  0  0  0  0  0  0  0
    9.2235    8.2029    7.2559 C   0  0  0  0  0  0  0  0  0  0  0  0
   10.3055    7.3808    7.5116 C   0  0  0  0  0  0  0  0  0  0  0  0
   11.3632    7.8850    8.2502 C   0  0  0  0  0  0  0  0  0  0  0  0
   11.3181    9.1929    8.7224 C   0  0  0  0  0  0  0  0  0  0  0  0
   12.6457    9.8011    9.6348 Cl  0  0  0  0  0  0  0  0  0  0  0  0
   10.2316   10.0279    8.4828 C   0  0  0  0  0  0  0  0  0  0  0  0
    9.1752    9.5222    7.7428 C   0  0  0  0  0  0  0  0  0  0  0  0
    7.9125   10.1357    7.3375 C   0  0  0  0  0  0  0  0  0  0  0  0
    7.4313   11.3426    7.7636 C   0  0  0  0  0  0  0  0  0  0  0  0
    6.1572   11.8504    7.4339 C   0  0  0  0  0  0  0  0  0  0  0  0
    5.1203   12.2973    7.2244 N   0  0  0  0  0  0  0  0  0  0  0  0
    8.1209   12.2124    8.6359 C   0  0  0  0  0  0  0  0  0  0  0  0
    8.6283   12.9616    9.3415 N   0  0  0  0  0  0  0  0  0  0  0  0
    5.7765    8.4359    4.6527 C   0  0  0  0  0  0  0  0  0  0  0  0
    4.5474    7.8051    4.5295 C   0  0  0  0  0  0  0  0  0  0  0  0
    3.4790    7.9572    5.3500 O   0  0  0  0  0  0  0  0  0  0  0  0
    3.3555    9.0615    6.2210 C   0  0  0  0  0  0  0  0  0  0  0  0
    2.9860   10.3445    5.4865 C   0  0  0  0  0  0  0  0  0  0  0  0
    4.3563    6.7909    3.5401 C   0  0  0  0  0  0  0  0  0  0  0  0
    3.1788    6.1223    3.4299 O   0  0  0  0  0  0  0  0  0  0  0  0
    2.5453    5.5688    4.5806 C   0  0  0  0  0  0  0  0  0  0  0  0
    1.9176    4.2426    4.1762 C   0  0  0  0  0  0  0  0  0  0  0  0
    5.3457    6.4754    2.6173 C   0  0  0  0  0  0  0  0  0  0  0  0
    6.5331    7.2635    2.6124 C   0  0  0  0  0  0  0  0  0  0  0  0
    6.7878    8.1542    3.6833 C   0  0  0  0  0  0  0  0  0  0  0  0
    7.9733    8.7837    3.7656 N   0  0  0  0  0  0  0  0  0  0  0  0
    8.8405    8.5940    2.8049 C   0  0  0  0  0  0  0  0  0  0  0  0
    8.5252    7.8270    1.6736 C   0  0  0  0  0  0  0  0  0  0  0  0
    7.3967    7.1714    1.5922 N   0  0  0  0  0  0  0  0  0  0  0  0
    5.1976    5.3756    1.6993 C   0  0  0  0  0  0  0  0  0  0  0  0
    6.1864    4.5749    1.1502 C   0  0  0  0  0  0  0  0  0  0  0  0
    7.6104    4.5912    1.4913 C   0  0  0  0  0  0  0  0  0  0  0  0
    8.5633    4.4886    0.4819 C   0  0  0  0  0  0  0  0  0  0  0  0
    9.9081    4.4994    0.7977 C   0  0  0  0  0  0  0  0  0  0  0  0
   10.3145    4.6073    2.1157 C   0  0  0  0  0  0  0  0  0  0  0  0
    9.3770    4.6874    3.1383 C   0  0  0  0  0  0  0  0  0  0  0  0
    9.8116    4.7694    4.5735 C   0  0  0  0  0  0  0  0  0  0  0  0
    9.9873    3.3697    5.1651 C   0  0  0  0  0  0  0  0  0  0  0  0
    8.0296    4.6611    2.8172 C   0  0  0  0  0  0  0  0  0  0  0  0
    5.6387    3.6330    0.2572 C   0  0  0  0  0  0  0  0  0  0  0  0
    6.3499    2.3453   -0.6902 S   0  0  0  0  0  0  0  0  0  0  0  0
    4.7660    1.8932   -1.2256 C   0  0  0  0  0  0  0  0  0  0  0  0
    4.1475    0.9354   -2.0498 C   0  0  0  0  0  0  0  0  0  0  0  0
    4.6696   -0.0616   -2.9028 C   0  0  0  0  0  0  0  0  0  0  0  0
    3.7606   -0.8737   -3.6658 C   0  0  0  0  0  0  0  0  0  0  0  0
    4.3891   -1.7303   -4.4549 N   0  0  0  0  0  0  0  0  0  0  0  0
    5.9850   -1.5365   -4.2558 S   0  0  0  0  0  0  0  0  0  0  0  0
    5.9363   -0.3531   -3.1517 N   0  0  0  0  0  0  0  0  0  0  0  0
    2.3722   -0.7422   -3.4416 C   0  0  0  0  0  0  0  0  0  0  0  0
    1.2829   -1.5323   -3.8450 C   0  0  0  0  0  0  0  0  0  0  0  0
    0.9691   -2.9235   -4.8276 S   0  0  0  0  0  0  0  0  0  0  0  0
   -0.6875   -2.9073   -4.2735 C   0  0  0  0  0  0  0  0  0  0  0  0
   -1.7921   -3.7410   -4.5344 C   0  0  0  0  0  0  0  0  0  0  0  0
   -1.8298   -4.8457   -5.4976 C   0  0  0  0  0  0  0  0  0  0  0  0
   -0.8671   -5.8489   -5.4891 C   0  0  0  0  0  0  0  0  0  0  0  0
   -0.9703   -6.9019   -6.3788 C   0  0  0  0  0  0  0  0  0  0  0  0
   -2.0146   -6.9549   -7.2865 C   0  0  0  0  0  0  0  0  0  0  0  0
   -2.9617   -5.9391   -7.3374 C   0  0  0  0  0  0  0  0  0  0  0  0
   -4.0773   -5.9555   -8.3453 C   0  0  0  0  0  0  0  0  0  0  0  0
   -5.4524   -6.0813   -7.6882 C   0  0  0  0  0  0  0  0  0  0  0  0
   -2.8568   -4.8919   -6.4346 C   0  0  0  0  0  0  0  0  0  0  0  0
   -2.8997   -3.3425   -3.8126 C   0  0  0  0  0  0  0  0  0  0  0  0
   -2.6214   -1.9008   -2.8719 S   0  0  0  0  0  0  0  0  0  0  0  0
   -0.9694   -1.8649   -3.3873 C   0  0  0  0  0  0  0  0  0  0  0  0
    0.1602   -1.0674   -3.1552 C   0  0  0  0  0  0  0  0  0  0  0  0
    0.5051    0.0017   -2.3717 N   0  0  0  0  0  0  0  0  0  0  0  0
    1.8578    0.2291   -2.5397 C   0  0  0  0  0  0  0  0  0  0  0  0
    2.7478    1.1629   -1.9536 C   0  0  0  0  0  0  0  0  0  0  0  0
    2.5274    2.2694   -1.1489 N   0  0  0  0  0  0  0  0  0  0  0  0
    3.7523    2.6963   -0.7000 C   0  0  0  0  0  0  0  0  0  0  0  0
    4.2493    3.6995    0.1416 C   0  0  0  0  0  0  0  0  0  0  0  0
    3.5939    4.9302    1.1584 S   0  0  0  0  0  0  0  0  0  0  0  0
    1.4435    3.2248   -1.2273 C   0  0  0  0  0  0  0  0  0  0  0  0
    1.8114    4.4059   -2.1258 C   0  0  0  0  0  0  0  0  0  0  0  0
   -0.3937    0.4683   -1.3408 C   0  0  0  0  0  0  0  0  0  0  0  0
   -1.5313    1.3168   -1.9098 C   0  0  0  0  0  0  0  0  0  0  0  0
   -4.1847   -4.0060   -3.8154 C   0  0  0  0  0  0  0  0  0  0  0  0
   -4.2863   -5.3925   -3.7539 C   0  0  0  0  0  0  0  0  0  0  0  0
   -3.2585   -6.1869   -3.3435 O   0  0  0  0  0  0  0  0  0  0  0  0
   -2.4263   -5.7404   -2.2795 C   0  0  0  0  0  0  0  0  0  0  0  0
   -2.1702   -6.9085   -1.3382 C   0  0  0  0  0  0  0  0  0  0  0  0
   -5.5119   -6.0379   -4.1103 C   0  0  0  0  0  0  0  0  0  0  0  0
   -5.6499   -7.3219   -4.4406 O   0  0  0  0  0  0  0  0  0  0  0  0
   -4.5776   -8.2452   -4.5629 C   0  0  0  0  0  0  0  0  0  0  0  0
   -4.4448   -9.0959   -3.3072 C   0  0  0  0  0  0  0  0  0  0  0  0
   -6.6821   -5.2692   -4.2299 C   0  0  0  0  0  0  0  0  0  0  0  0
   -6.6098   -3.8512   -4.1670 C   0  0  0  0  0  0  0  0  0  0  0  0
   -5.3562   -3.2158   -3.9839 C   0  0  0  0  0  0  0  0  0  0  0  0
   -5.2590   -1.8782   -3.9719 N   0  0  0  0  0  0  0  0  0  0  0  0
   -6.3639   -1.1868   -4.1094 C   0  0  0  0  0  0  0  0  0  0  0  0
   -7.6093   -1.8144   -4.2603 C   0  0  0  0  0  0  0  0  0  0  0  0
   -7.7308   -3.1189   -4.2863 N   0  0  0  0  0  0  0  0  0  0  0  0
   -7.9652   -5.8645   -4.4511 C   0  0  0  0  0  0  0  0  0  0  0  0
   -8.4278   -6.9912   -3.8448 C   0  0  0  0  0  0  0  0  0  0  0  0
   -7.8572   -7.5686   -2.6027 C   0  0  0  0  0  0  0  0  0  0  0  0
   -6.8282   -7.2670   -2.0361 O   0  0  0  0  0  0  0  0  0  0  0  0
   -8.8724   -8.5252   -2.1161 C   0  0  0  0  0  0  0  0  0  0  0  0
   -8.8518   -9.2821   -0.9807 C   0  0  0  0  0  0  0  0  0  0  0  0
   -9.9480  -10.1262   -0.6935 C   0  0  0  0  0  0  0  0  0  0  0  0
   -9.9763  -10.9307    0.4637 C   0  0  0  0  0  0  0  0  0  0  0  0
  -11.0469  -11.7362    0.7362 C   0  0  0  0  0  0  0  0  0  0  0  0
  -12.1259  -11.7542   -0.1576 C   0  0  0  0  0  0  0  0  0  0  0  0
  -13.1711  -12.5531    0.1278 F   0  0  0  0  0  0  0  0  0  0  0  0
  -12.1490  -10.9956   -1.2946 C   0  0  0  0  0  0  0  0  0  0  0  0
  -11.0543  -10.1604   -1.5913 C   0  0  0  0  0  0  0  0  0  0  0  0
  -11.0475   -9.3653   -2.7612 C   0  0  0  0  0  0  0  0  0  0  0  0
   -9.9694   -8.5628   -3.0227 C   0  0  0  0  0  0  0  0  0  0  0  0
   -9.6809   -7.6584   -4.1295 C   0  0  0  0  0  0  0  0  0  0  0  0
  -10.4026   -7.5411   -5.2882 C   0  0  0  0  0  0  0  0  0  0  0  0
  -10.0017   -6.7628   -6.3950 C   0  0  0  0  0  0  0  0  0  0  0  0
   -9.7219   -6.1871   -7.3483 N   0  0  0  0  0  0  0  0  0  0  0  0
  -11.6061   -8.2301   -5.5390 C   0  0  0  0  0  0  0  0  0  0  0  0
  -12.5930   -8.7619   -5.7877 N   0  0  0  0  0  0  0  0  0  0  0  0
    5.6678   10.3644    5.6828 H   0  0  0  0  0  0  0  0  0  0  0  0
   10.3187    6.3699    7.1354 H   0  0  0  0  0  0  0  0  0  0  0  0
   12.2252    7.2729    8.4639 H   0  0  0  0  0  0  0  0  0  0  0  0
   10.2341   11.0349    8.8662 H   0  0  0  0  0  0  0  0  0  0  0  0
    2.5529    8.7740    6.9062 H   0  0  0  0  0  0  0  0  0  0  0  0
    4.2780    9.1878    6.8026 H   0  0  0  0  0  0  0  0  0  0  0  0
    3.6665   10.5230    4.6566 H   0  0  0  0  0  0  0  0  0  0  0  0
    1.9783   10.2690    5.0856 H   0  0  0  0  0  0  0  0  0  0  0  0
    3.0378   11.1867    6.1703 H   0  0  0  0  0  0  0  0  0  0  0  0
    3.2777    5.4170    5.3790 H   0  0  0  0  0  0  0  0  0  0  0  0
    1.7732    6.2599    4.9357 H   0  0  0  0  0  0  0  0  0  0  0  0
    2.6844    3.5446    3.8508 H   0  0  0  0  0  0  0  0  0  0  0  0
    1.2233    4.4006    3.3559 H   0  0  0  0  0  0  0  0  0  0  0  0
    1.3839    3.8177    5.0217 H   0  0  0  0  0  0  0  0  0  0  0  0
    9.7963    9.0882    2.9143 H   0  0  0  0  0  0  0  0  0  0  0  0
    9.1935    7.7491    0.8283 H   0  0  0  0  0  0  0  0  0  0  0  0
    8.2478    4.4304   -0.5483 H   0  0  0  0  0  0  0  0  0  0  0  0
   10.6448    4.4300    0.0104 H   0  0  0  0  0  0  0  0  0  0  0  0
   11.3683    4.6298    2.3559 H   0  0  0  0  0  0  0  0  0  0  0  0
    9.0592    5.3147    5.1460 H   0  0  0  0  0  0  0  0  0  0  0  0
   10.7593    5.3108    4.6368 H   0  0  0  0  0  0  0  0  0  0  0  0
   10.2933    3.4283    6.2076 H   0  0  0  0  0  0  0  0  0  0  0  0
   10.7428    2.8153    4.6121 H   0  0  0  0  0  0  0  0  0  0  0  0
    9.0514    2.8189    5.1104 H   0  0  0  0  0  0  0  0  0  0  0  0
    7.2954    4.7191    3.6088 H   0  0  0  0  0  0  0  0  0  0  0  0
   -0.0509   -5.8080   -4.7832 H   0  0  0  0  0  0  0  0  0  0  0  0
   -0.2303   -7.6885   -6.3647 H   0  0  0  0  0  0  0  0  0  0  0  0
   -2.0857   -7.7857   -7.9739 H   0  0  0  0  0  0  0  0  0  0  0  0
   -4.0462   -5.0274   -8.9226 H   0  0  0  0  0  0  0  0  0  0  0  0
   -3.9306   -6.7863   -9.0382 H   0  0  0  0  0  0  0  0  0  0  0  0
   -5.5245   -7.0050   -7.1192 H   0  0  0  0  0  0  0  0  0  0  0  0
   -6.2344   -6.0835   -8.4433 H   0  0  0  0  0  0  0  0  0  0  0  0
   -5.6370   -5.2505   -7.0106 H   0  0  0  0  0  0  0  0  0  0  0  0
   -3.5754   -4.0850   -6.4673 H   0  0  0  0  0  0  0  0  0  0  0  0
    1.2287    3.5837   -0.2157 H   0  0  0  0  0  0  0  0  0  0  0  0
    0.5645    2.7414   -1.6378 H   0  0  0  0  0  0  0  0  0  0  0  0
    0.9660    5.0845   -2.1999 H   0  0  0  0  0  0  0  0  0  0  0  0
    2.0674    4.0536   -3.1229 H   0  0  0  0  0  0  0  0  0  0  0  0
    2.6582    4.9523   -1.7208 H   0  0  0  0  0  0  0  0  0  0  0  0
    0.1804    1.0092   -0.5879 H   0  0  0  0  0  0  0  0  0  0  0  0
   -0.8304   -0.4131   -0.8570 H   0  0  0  0  0  0  0  0  0  0  0  0
   -2.1879    0.7010   -2.5180 H   0  0  0  0  0  0  0  0  0  0  0  0
   -2.1137    1.7423   -1.0974 H   0  0  0  0  0  0  0  0  0  0  0  0
   -1.1570    2.1245   -2.5352 H   0  0  0  0  0  0  0  0  0  0  0  0
   -1.4758   -5.3804   -2.6895 H   0  0  0  0  0  0  0  0  0  0  0  0
   -2.9111   -4.9197   -1.7404 H   0  0  0  0  0  0  0  0  0  0  0  0
   -1.7532   -7.7450   -1.8920 H   0  0  0  0  0  0  0  0  0  0  0  0
   -1.4655   -6.6039   -0.5694 H   0  0  0  0  0  0  0  0  0  0  0  0
   -3.0954   -7.2239   -0.8629 H   0  0  0  0  0  0  0  0  0  0  0  0
   -4.8631   -8.8785   -5.4108 H   0  0  0  0  0  0  0  0  0  0  0  0
   -3.6416   -7.7376   -4.8011 H   0  0  0  0  0  0  0  0  0  0  0  0
   -4.3007   -8.4539   -2.4449 H   0  0  0  0  0  0  0  0  0  0  0  0
   -5.3490   -9.6796   -3.1532 H   0  0  0  0  0  0  0  0  0  0  0  0
   -3.5970   -9.7675   -3.4057 H   0  0  0  0  0  0  0  0  0  0  0  0
   -6.2650   -0.1103   -4.0964 H   0  0  0  0  0  0  0  0  0  0  0  0
   -8.5221   -1.2439   -4.3636 H   0  0  0  0  0  0  0  0  0  0  0  0
   -8.6309   -5.2916   -5.0843 H   0  0  0  0  0  0  0  0  0  0  0  0
   -8.0086   -9.2382   -0.3073 H   0  0  0  0  0  0  0  0  0  0  0  0
   -9.1334  -10.8991    1.1379 H   0  0  0  0  0  0  0  0  0  0  0  0
  -11.0849  -12.3562    1.6179 H   0  0  0  0  0  0  0  0  0  0  0  0
  -12.9963  -11.0357   -1.9612 H   0  0  0  0  0  0  0  0  0  0  0  0
  -11.9015   -9.4057   -3.4185 H   0  0  0  0  0  0  0  0  0  0  0  0
  1  2  2  0  0  0  0
  2  3  1  0  0  0  0
  3  4  2  0  0  0  0
  3  5  1  0  0  0  0
  5  6  2  0  0  0  0
  6  7  1  0  0  0  0
  7  8  2  0  0  0  0
  8  9  1  0  0  0  0
  8 10  1  0  0  0  0
 10 11  2  0  0  0  0
 11 12  1  0  0  0  0
 12 13  2  0  0  0  0
 13 14  1  0  0  0  0
 14 15  3  0  0  0  0
 13 16  1  0  0  0  0
 16 17  3  0  0  0  0
  1 18  1  0  0  0  0
 18 19  2  0  0  0  0
 19 20  1  0  0  0  0
 20 21  1  0  0  0  0
 21 22  1  0  0  0  0
 19 23  1  0  0  0  0
 23 24  1  0  0  0  0
 24 25  1  0  0  0  0
 25 26  1  0  0  0  0
 23 27  2  0  0  0  0
 27 28  1  0  0  0  0
 28 29  2  0  0  0  0
 29 30  1  0  0  0  0
 30 31  2  0  0  0  0
 31 32  1  0  0  0  0
 32 33  2  0  0  0  0
 27 34  1  0  0  0  0
 34 35  2  0  0  0  0
 35 36  1  0  0  0  0
 36 37  2  0  0  0  0
 37 38  1  0  0  0  0
 38 39  2  0  0  0  0
 39 40  1  0  0  0  0
 40 41  1  0  0  0  0
 41 42  1  0  0  0  0
 40 43  2  0  0  0  0
 35 44  1  0  0  0  0
 44 45  1  0  0  0  0
 45 46  1  0  0  0  0
 46 47  1  0  0  0  0
 47 48  1  0  0  0  0
 48 49  1  0  0  0  0
 49 50  2  0  0  0  0
 50 51  1  0  0  0  0
 51 52  1  0  0  0  0
 49 53  1  0  0  0  0
 53 54  1  0  0  0  0
 54 55  1  0  0  0  0
 55 56  1  0  0  0  0
 56 57  1  0  0  0  0
 57 58  1  0  0  0  0
 58 59  2  0  0  0  0
 59 60  1  0  0  0  0
 60 61  2  0  0  0  0
 61 62  1  0  0  0  0
 62 63  1  0  0  0  0
 63 64  1  0  0  0  0
 62 65  2  0  0  0  0
 57 66  2  0  0  0  0
 66 67  1  0  0  0  0
 67 68  1  0  0  0  0
 68 69  1  0  0  0  0
 69 70  1  0  0  0  0
 70 71  1  0  0  0  0
 71 72  1  0  0  0  0
 72 73  1  0  0  0  0
 73 74  1  0  0  0  0
 74 75  1  0  0  0  0
 75 76  1  0  0  0  0
 73 77  1  0  0  0  0
 77 78  1  0  0  0  0
 70 79  1  0  0  0  0
 79 80  1  0  0  0  0
 66 81  1  0  0  0  0
 81 82  2  0  0  0  0
 82 83  1  0  0  0  0
 83 84  1  0  0  0  0
 84 85  1  0  0  0  0
 82 86  1  0  0  0  0
 86 87  1  0  0  0  0
 87 88  1  0  0  0  0
 88 89  1  0  0  0  0
 86 90  2  0  0  0  0
 90 91  1  0  0  0  0
 91 92  2  0  0  0  0
 92 93  1  0  0  0  0
 93 94  2  0  0  0  0
 94 95  1  0  0  0  0
 95 96  2  0  0  0  0
 90 97  1  0  0  0  0
 97 98  2  0  0  0  0
 98 99  1  0  0  0  0
 99100  2  0  0  0  0
 99101  1  0  0  0  0
101102  2  0  0  0  0
102103  1  0  0  0  0
103104  2  0  0  0  0
104105  1  0  0  0  0
105106  2  0  0  0  0
106107  1  0  0  0  0
106108  1  0  0  0  0
108109  2  0  0  0  0
109110  1  0  0  0  0
110111  2  0  0  0  0
111112  1  0  0  0  0
112113  2  0  0  0  0
113114  1  0  0  0  0
114115  3  0  0  0  0
113116  1  0  0  0  0
116117  3  0  0  0  0
 12  2  1  0  0  0  0
 29 18  1  0  0  0  0
 76 34  1  0  0  0  0
 92 81  1  0  0  0  0
112 98  1  0  0  0  0
 11  5  1  0  0  0  0
 33 28  1  0  0  0  0
 43 36  1  0  0  0  0
 75 44  2  0  0  0  0
 96 91  1  0  0  0  0
111101  1  0  0  0  0
 74 46  2  0  0  0  0
109103  1  0  0  0  0
 72 47  2  0  0  0  0
 52 48  2  0  0  0  0
 71 53  2  0  0  0  0
 69 54  2  0  0  0  0
 68 56  2  0  0  0  0
 65 58  1  0  0  0  0
  1118  1  0  0  0  0
  6119  1  0  0  0  0
  7120  1  0  0  0  0
 10121  1  0  0  0  0
 21122  1  0  0  0  0
 21123  1  0  0  0  0
 22124  1  0  0  0  0
 22125  1  0  0  0  0
 22126  1  0  0  0  0
 25127  1  0  0  0  0
 25128  1  0  0  0  0
 26129  1  0  0  0  0
 26130  1  0  0  0  0
 26131  1  0  0  0  0
 31132  1  0  0  0  0
 32133  1  0  0  0  0
 37134  1  0  0  0  0
 38135  1  0  0  0  0
 39136  1  0  0  0  0
 41137  1  0  0  0  0
 41138  1  0  0  0  0
 42139  1  0  0  0  0
 42140  1  0  0  0  0
 42141  1  0  0  0  0
 43142  1  0  0  0  0
 59143  1  0  0  0  0
 60144  1  0  0  0  0
 61145  1  0  0  0  0
 63146  1  0  0  0  0
 63147  1  0  0  0  0
 64148  1  0  0  0  0
 64149  1  0  0  0  0
 64150  1  0  0  0  0
 65151  1  0  0  0  0
 77152  1  0  0  0  0
 77153  1  0  0  0  0
 78154  1  0  0  0  0
 78155  1  0  0  0  0
 78156  1  0  0  0  0
 79157  1  0  0  0  0
 79158  1  0  0  0  0
 80159  1  0  0  0  0
 80160  1  0  0  0  0
 80161  1  0  0  0  0
 84162  1  0  0  0  0
 84163  1  0  0  0  0
 85164  1  0  0  0  0
 85165  1  0  0  0  0
 85166  1  0  0  0  0
 88167  1  0  0  0  0
 88168  1  0  0  0  0
 89169  1  0  0  0  0
 89170  1  0  0  0  0
 89171  1  0  0  0  0
 94172  1  0  0  0  0
 95173  1  0  0  0  0
 97174  1  0  0  0  0
102175  1  0  0  0  0
104176  1  0  0  0  0
105177  1  0  0  0  0
108178  1  0  0  0  0
110179  1  0  0  0  0
M  END
