
  xtb     02052216063D
 energy: -297.439481359105 gnorm: 0.000375992470 xtb: 6.4.1 (unknown)
168184  0     0  0            999 V2000
   -5.6435    9.3766    1.5136 C   0  0  0  0  0  0  0  0  0  0  0  0
   -5.8603   10.3930    0.6452 C   0  0  0  0  0  0  0  0  0  0  0  0
   -6.3321   11.7112    1.1680 C   0  0  0  0  0  0  0  0  0  0  0  0
   -6.3474   12.0649    2.3233 O   0  0  0  0  0  0  0  0  0  0  0  0
   -6.8106   12.4456   -0.0184 C   0  0  0  0  0  0  0  0  0  0  0  0
   -7.4593   13.6650   -0.0877 C   0  0  0  0  0  0  0  0  0  0  0  0
   -7.8377   14.1457   -1.3305 C   0  0  0  0  0  0  0  0  0  0  0  0
   -7.5686   13.4010   -2.4748 C   0  0  0  0  0  0  0  0  0  0  0  0
   -8.0619   14.0116   -4.0066 Cl  0  0  0  0  0  0  0  0  0  0  0  0
   -6.9113   12.1757   -2.4216 C   0  0  0  0  0  0  0  0  0  0  0  0
   -6.5273   11.7019   -1.1793 C   0  0  0  0  0  0  0  0  0  0  0  0
   -5.8024   10.4901   -0.8006 C   0  0  0  0  0  0  0  0  0  0  0  0
   -5.0197    9.7432   -1.6372 C   0  0  0  0  0  0  0  0  0  0  0  0
   -4.9265    9.9535   -3.0299 C   0  0  0  0  0  0  0  0  0  0  0  0
   -4.8106   10.0764   -4.1646 N   0  0  0  0  0  0  0  0  0  0  0  0
   -4.1427    8.7309   -1.1977 C   0  0  0  0  0  0  0  0  0  0  0  0
   -3.3879    7.9245   -0.8846 N   0  0  0  0  0  0  0  0  0  0  0  0
   -5.5077    7.9698    1.2713 C   0  0  0  0  0  0  0  0  0  0  0  0
   -6.1572    7.2719    0.2626 C   0  0  0  0  0  0  0  0  0  0  0  0
   -6.9852    7.9234   -0.5743 F   0  0  0  0  0  0  0  0  0  0  0  0
   -6.0173    5.8962    0.0728 C   0  0  0  0  0  0  0  0  0  0  0  0
   -6.6552    5.3629   -0.9814 F   0  0  0  0  0  0  0  0  0  0  0  0
   -5.2040    5.1169    0.8854 C   0  0  0  0  0  0  0  0  0  0  0  0
   -4.4904    5.8151    1.9078 C   0  0  0  0  0  0  0  0  0  0  0  0
   -3.6380    5.1281    2.6769 N   0  0  0  0  0  0  0  0  0  0  0  0
   -2.9640    5.7336    3.6242 C   0  0  0  0  0  0  0  0  0  0  0  0
   -2.0037    4.8703    4.3841 C   0  0  0  0  0  0  0  0  0  0  0  0
   -0.5783    5.0524    3.8593 C   0  0  0  0  0  0  0  0  0  0  0  0
   -3.1670    7.1214    3.8627 C   0  0  0  0  0  0  0  0  0  0  0  0
   -4.0059    7.8074    3.1223 N   0  0  0  0  0  0  0  0  0  0  0  0
   -4.6698    7.1997    2.1289 C   0  0  0  0  0  0  0  0  0  0  0  0
   -2.4614    7.9039    4.9290 C   0  0  0  0  0  0  0  0  0  0  0  0
   -1.5241    8.9340    4.2949 C   0  0  0  0  0  0  0  0  0  0  0  0
   -4.9884    3.7112    0.7185 C   0  0  0  0  0  0  0  0  0  0  0  0
   -5.8377    2.7344    0.2129 C   0  0  0  0  0  0  0  0  0  0  0  0
   -7.2672    2.9032   -0.0382 C   0  0  0  0  0  0  0  0  0  0  0  0
   -7.8624    2.3207   -1.1530 C   0  0  0  0  0  0  0  0  0  0  0  0
   -9.2185    2.4746   -1.3673 C   0  0  0  0  0  0  0  0  0  0  0  0
   -9.9896    3.1990   -0.4759 C   0  0  0  0  0  0  0  0  0  0  0  0
   -9.4141    3.7778    0.6492 C   0  0  0  0  0  0  0  0  0  0  0  0
  -10.2569    4.5218    1.6453 C   0  0  0  0  0  0  0  0  0  0  0  0
  -10.8056    3.5625    2.7031 C   0  0  0  0  0  0  0  0  0  0  0  0
   -8.0550    3.6171    0.8614 C   0  0  0  0  0  0  0  0  0  0  0  0
   -5.1719    1.5013    0.0948 C   0  0  0  0  0  0  0  0  0  0  0  0
   -5.6902   -0.0853   -0.4323 S   0  0  0  0  0  0  0  0  0  0  0  0
   -4.1029   -0.6902   -0.0974 C   0  0  0  0  0  0  0  0  0  0  0  0
   -3.3815   -1.8942   -0.1625 C   0  0  0  0  0  0  0  0  0  0  0  0
   -3.7728   -3.2196   -0.4567 C   0  0  0  0  0  0  0  0  0  0  0  0
   -2.8023   -4.2738   -0.3460 C   0  0  0  0  0  0  0  0  0  0  0  0
   -3.3218   -5.4662   -0.5900 N   0  0  0  0  0  0  0  0  0  0  0  0
   -4.8930   -5.2816   -0.9353 S   0  0  0  0  0  0  0  0  0  0  0  0
   -4.9721   -3.6718   -0.7861 N   0  0  0  0  0  0  0  0  0  0  0  0
   -1.4532   -3.9386   -0.0913 C   0  0  0  0  0  0  0  0  0  0  0  0
   -0.2758   -4.6990   -0.1569 C   0  0  0  0  0  0  0  0  0  0  0  0
    0.2049   -6.3380   -0.4285 S   0  0  0  0  0  0  0  0  0  0  0  0
    1.8754   -5.8228   -0.4070 C   0  0  0  0  0  0  0  0  0  0  0  0
    3.0807   -6.5116   -0.6266 C   0  0  0  0  0  0  0  0  0  0  0  0
    3.1257   -7.9174   -1.0244 C   0  0  0  0  0  0  0  0  0  0  0  0
    3.9233   -8.3273   -2.0911 C   0  0  0  0  0  0  0  0  0  0  0  0
    3.9191   -9.6516   -2.4820 C   0  0  0  0  0  0  0  0  0  0  0  0
    3.1215  -10.5725   -1.8238 C   0  0  0  0  0  0  0  0  0  0  0  0
    2.3153  -10.1792   -0.7638 C   0  0  0  0  0  0  0  0  0  0  0  0
    1.4028  -11.1540   -0.0784 C   0  0  0  0  0  0  0  0  0  0  0  0
   -0.0089  -11.0549   -0.6601 C   0  0  0  0  0  0  0  0  0  0  0  0
    2.3233   -8.8483   -0.3753 C   0  0  0  0  0  0  0  0  0  0  0  0
    4.1665   -5.6486   -0.5547 C   0  0  0  0  0  0  0  0  0  0  0  0
    3.6930   -3.9852   -0.2937 S   0  0  0  0  0  0  0  0  0  0  0  0
    2.0324   -4.4496   -0.1881 C   0  0  0  0  0  0  0  0  0  0  0  0
    0.7974   -3.8090   -0.0333 C   0  0  0  0  0  0  0  0  0  0  0  0
    0.3263   -2.5337    0.1450 N   0  0  0  0  0  0  0  0  0  0  0  0
   -1.0545   -2.5909    0.1282 C   0  0  0  0  0  0  0  0  0  0  0  0
   -2.0516   -1.5918    0.2435 C   0  0  0  0  0  0  0  0  0  0  0  0
   -1.9875   -0.2586    0.6094 N   0  0  0  0  0  0  0  0  0  0  0  0
   -3.2282    0.2841    0.3937 C   0  0  0  0  0  0  0  0  0  0  0  0
   -3.8385    1.5363    0.5154 C   0  0  0  0  0  0  0  0  0  0  0  0
   -3.4052    3.0880    1.1353 S   0  0  0  0  0  0  0  0  0  0  0  0
   -1.1033    0.3672    1.5679 C   0  0  0  0  0  0  0  0  0  0  0  0
   -1.7274    0.3929    2.9634 C   0  0  0  0  0  0  0  0  0  0  0  0
    1.1993   -1.3986   -0.0592 C   0  0  0  0  0  0  0  0  0  0  0  0
    2.1341   -1.1670    1.1277 C   0  0  0  0  0  0  0  0  0  0  0  0
    5.5641   -5.9459   -0.6300 C   0  0  0  0  0  0  0  0  0  0  0  0
    6.1192   -7.1413   -0.1880 C   0  0  0  0  0  0  0  0  0  0  0  0
    5.3680   -8.0430    0.4670 F   0  0  0  0  0  0  0  0  0  0  0  0
    7.4652   -7.4582   -0.3664 C   0  0  0  0  0  0  0  0  0  0  0  0
    7.8551   -8.6713    0.0608 F   0  0  0  0  0  0  0  0  0  0  0  0
    8.3656   -6.5989   -0.9779 C   0  0  0  0  0  0  0  0  0  0  0  0
    7.8529   -5.3042   -1.3159 C   0  0  0  0  0  0  0  0  0  0  0  0
    8.7004   -4.3459   -1.7195 N   0  0  0  0  0  0  0  0  0  0  0  0
    8.2571   -3.1627   -2.0594 C   0  0  0  0  0  0  0  0  0  0  0  0
    9.2920   -2.1676   -2.4785 C   0  0  0  0  0  0  0  0  0  0  0  0
    9.3722   -2.0333   -4.0021 C   0  0  0  0  0  0  0  0  0  0  0  0
    6.8580   -2.8813   -1.9977 C   0  0  0  0  0  0  0  0  0  0  0  0
    6.0335   -3.7761   -1.5156 N   0  0  0  0  0  0  0  0  0  0  0  0
    6.4841   -4.9875   -1.1529 C   0  0  0  0  0  0  0  0  0  0  0  0
    6.3039   -1.5631   -2.4395 C   0  0  0  0  0  0  0  0  0  0  0  0
    4.8433   -1.3578   -2.0655 C   0  0  0  0  0  0  0  0  0  0  0  0
    9.7543   -6.8562   -1.2453 C   0  0  0  0  0  0  0  0  0  0  0  0
   10.4427   -6.2755   -2.2781 C   0  0  0  0  0  0  0  0  0  0  0  0
    9.8886   -5.6899   -3.4279 C   0  0  0  0  0  0  0  0  0  0  0  0
    9.4144   -5.3225   -4.4064 N   0  0  0  0  0  0  0  0  0  0  0  0
   11.8535   -6.4850   -2.0499 C   0  0  0  0  0  0  0  0  0  0  0  0
   12.9005   -5.9995   -2.7853 C   0  0  0  0  0  0  0  0  0  0  0  0
   12.7134   -5.1701   -3.9063 C   0  0  0  0  0  0  0  0  0  0  0  0
   12.6125   -4.4616   -4.8030 N   0  0  0  0  0  0  0  0  0  0  0  0
   14.2347   -6.2660   -2.4173 C   0  0  0  0  0  0  0  0  0  0  0  0
   15.3225   -6.4827   -2.1257 N   0  0  0  0  0  0  0  0  0  0  0  0
   12.0308   -7.1957   -0.9329 O   0  0  0  0  0  0  0  0  0  0  0  0
   10.7594   -7.5895   -0.3811 C   0  0  0  0  0  0  0  0  0  0  0  0
   10.7029   -7.1436    1.0784 C   0  0  0  0  0  0  0  0  0  0  0  0
   10.7073   -9.1178   -0.5090 C   0  0  0  0  0  0  0  0  0  0  0  0
   -5.5875    9.6586    2.5603 H   0  0  0  0  0  0  0  0  0  0  0  0
   -7.6616   14.2231    0.8132 H   0  0  0  0  0  0  0  0  0  0  0  0
   -8.3439   15.0936   -1.4216 H   0  0  0  0  0  0  0  0  0  0  0  0
   -6.7268   11.6218   -3.3275 H   0  0  0  0  0  0  0  0  0  0  0  0
   -2.3083    3.8337    4.2348 H   0  0  0  0  0  0  0  0  0  0  0  0
   -2.0428    5.0980    5.4503 H   0  0  0  0  0  0  0  0  0  0  0  0
    0.1001    4.3847    4.3847 H   0  0  0  0  0  0  0  0  0  0  0  0
   -0.2370    6.0741    4.0031 H   0  0  0  0  0  0  0  0  0  0  0  0
   -0.5434    4.8215    2.7975 H   0  0  0  0  0  0  0  0  0  0  0  0
   -1.9023    7.2469    5.5931 H   0  0  0  0  0  0  0  0  0  0  0  0
   -3.2146    8.4356    5.5141 H   0  0  0  0  0  0  0  0  0  0  0  0
   -2.0914    9.5975    3.6483 H   0  0  0  0  0  0  0  0  0  0  0  0
   -0.7584    8.4441    3.6971 H   0  0  0  0  0  0  0  0  0  0  0  0
   -1.0380    9.5236    5.0679 H   0  0  0  0  0  0  0  0  0  0  0  0
   -7.2576    1.7738   -1.8598 H   0  0  0  0  0  0  0  0  0  0  0  0
   -9.6763    2.0311   -2.2389 H   0  0  0  0  0  0  0  0  0  0  0  0
  -11.0484    3.3207   -0.6535 H   0  0  0  0  0  0  0  0  0  0  0  0
   -9.6589    5.2943    2.1341 H   0  0  0  0  0  0  0  0  0  0  0  0
  -11.0893    5.0085    1.1333 H   0  0  0  0  0  0  0  0  0  0  0  0
  -11.4165    4.0999    3.4247 H   0  0  0  0  0  0  0  0  0  0  0  0
   -9.9890    3.0759    3.2322 H   0  0  0  0  0  0  0  0  0  0  0  0
  -11.4155    2.7930    2.2353 H   0  0  0  0  0  0  0  0  0  0  0  0
   -7.5975    4.0476    1.7426 H   0  0  0  0  0  0  0  0  0  0  0  0
    4.5299   -7.6045   -2.6189 H   0  0  0  0  0  0  0  0  0  0  0  0
    4.5382   -9.9674   -3.3089 H   0  0  0  0  0  0  0  0  0  0  0  0
    3.1256  -11.6065   -2.1372 H   0  0  0  0  0  0  0  0  0  0  0  0
    1.7786  -12.1705   -0.2082 H   0  0  0  0  0  0  0  0  0  0  0  0
    1.3669  -10.9359    0.9908 H   0  0  0  0  0  0  0  0  0  0  0  0
   -0.6757  -11.7535   -0.1604 H   0  0  0  0  0  0  0  0  0  0  0  0
    0.0034  -11.2863   -1.7229 H   0  0  0  0  0  0  0  0  0  0  0  0
   -0.4007  -10.0480   -0.5346 H   0  0  0  0  0  0  0  0  0  0  0  0
    1.7142   -8.5334    0.4591 H   0  0  0  0  0  0  0  0  0  0  0  0
   -0.1724   -0.1857    1.6160 H   0  0  0  0  0  0  0  0  0  0  0  0
   -0.9066    1.3906    1.2336 H   0  0  0  0  0  0  0  0  0  0  0  0
   -2.6408    0.9806    2.9687 H   0  0  0  0  0  0  0  0  0  0  0  0
   -1.9600   -0.6184    3.2904 H   0  0  0  0  0  0  0  0  0  0  0  0
   -1.0270    0.8361    3.6661 H   0  0  0  0  0  0  0  0  0  0  0  0
    1.8125   -1.6030   -0.9444 H   0  0  0  0  0  0  0  0  0  0  0  0
    0.5913   -0.5191   -0.2737 H   0  0  0  0  0  0  0  0  0  0  0  0
    1.5875   -1.0985    2.0657 H   0  0  0  0  0  0  0  0  0  0  0  0
    2.8390   -1.9891    1.2123 H   0  0  0  0  0  0  0  0  0  0  0  0
    2.6917   -0.2467    0.9789 H   0  0  0  0  0  0  0  0  0  0  0  0
    9.0801   -1.1934   -2.0325 H   0  0  0  0  0  0  0  0  0  0  0  0
   10.2565   -2.5204   -2.1103 H   0  0  0  0  0  0  0  0  0  0  0  0
   10.1919   -1.3700   -4.2634 H   0  0  0  0  0  0  0  0  0  0  0  0
    9.5573   -3.0044   -4.4538 H   0  0  0  0  0  0  0  0  0  0  0  0
    8.4533   -1.6259   -4.4143 H   0  0  0  0  0  0  0  0  0  0  0  0
    6.9129   -0.7621   -2.0129 H   0  0  0  0  0  0  0  0  0  0  0  0
    6.4122   -1.5044   -3.5260 H   0  0  0  0  0  0  0  0  0  0  0  0
    4.2308   -2.1403   -2.5026 H   0  0  0  0  0  0  0  0  0  0  0  0
    4.7218   -1.3915   -0.9866 H   0  0  0  0  0  0  0  0  0  0  0  0
    4.5003   -0.3928   -2.4308 H   0  0  0  0  0  0  0  0  0  0  0  0
    9.7702   -7.4689    1.5294 H   0  0  0  0  0  0  0  0  0  0  0  0
   10.7737   -6.0596    1.1437 H   0  0  0  0  0  0  0  0  0  0  0  0
   11.5353   -7.5837    1.6204 H   0  0  0  0  0  0  0  0  0  0  0  0
   10.5966   -9.4059   -1.5526 H   0  0  0  0  0  0  0  0  0  0  0  0
    9.8936   -9.5399    0.0668 H   0  0  0  0  0  0  0  0  0  0  0  0
   11.6483   -9.5156   -0.1364 H   0  0  0  0  0  0  0  0  0  0  0  0
  1  2  2  0  0  0  0
  2  3  1  0  0  0  0
  3  4  2  0  0  0  0
  3  5  1  0  0  0  0
  5  6  2  0  0  0  0
  6  7  1  0  0  0  0
  7  8  2  0  0  0  0
  8  9  1  0  0  0  0
  8 10  1  0  0  0  0
 10 11  2  0  0  0  0
 11 12  1  0  0  0  0
 12 13  2  0  0  0  0
 13 14  1  0  0  0  0
 14 15  3  0  0  0  0
 13 16  1  0  0  0  0
 16 17  3  0  0  0  0
  1 18  1  0  0  0  0
 18 19  2  0  0  0  0
 19 20  1  0  0  0  0
 19 21  1  0  0  0  0
 21 22  1  0  0  0  0
 21 23  2  0  0  0  0
 23 24  1  0  0  0  0
 24 25  2  0  0  0  0
 25 26  1  0  0  0  0
 26 27  1  0  0  0  0
 27 28  1  0  0  0  0
 26 29  2  0  0  0  0
 29 30  1  0  0  0  0
 30 31  2  0  0  0  0
 29 32  1  0  0  0  0
 32 33  1  0  0  0  0
 23 34  1  0  0  0  0
 34 35  2  0  0  0  0
 35 36  1  0  0  0  0
 36 37  2  0  0  0  0
 37 38  1  0  0  0  0
 38 39  2  0  0  0  0
 39 40  1  0  0  0  0
 40 41  1  0  0  0  0
 41 42  1  0  0  0  0
 40 43  2  0  0  0  0
 35 44  1  0  0  0  0
 44 45  1  0  0  0  0
 45 46  1  0  0  0  0
 46 47  1  0  0  0  0
 47 48  1  0  0  0  0
 48 49  1  0  0  0  0
 49 50  2  0  0  0  0
 50 51  1  0  0  0  0
 51 52  1  0  0  0  0
 49 53  1  0  0  0  0
 53 54  1  0  0  0  0
 54 55  1  0  0  0  0
 55 56  1  0  0  0  0
 56 57  1  0  0  0  0
 57 58  1  0  0  0  0
 58 59  2  0  0  0  0
 59 60  1  0  0  0  0
 60 61  2  0  0  0  0
 61 62  1  0  0  0  0
 62 63  1  0  0  0  0
 63 64  1  0  0  0  0
 62 65  2  0  0  0  0
 57 66  2  0  0  0  0
 66 67  1  0  0  0  0
 67 68  1  0  0  0  0
 68 69  1  0  0  0  0
 69 70  1  0  0  0  0
 70 71  1  0  0  0  0
 71 72  1  0  0  0  0
 72 73  1  0  0  0  0
 73 74  1  0  0  0  0
 74 75  1  0  0  0  0
 75 76  1  0  0  0  0
 73 77  1  0  0  0  0
 77 78  1  0  0  0  0
 70 79  1  0  0  0  0
 79 80  1  0  0  0  0
 66 81  1  0  0  0  0
 81 82  2  0  0  0  0
 82 83  1  0  0  0  0
 82 84  1  0  0  0  0
 84 85  1  0  0  0  0
 84 86  2  0  0  0  0
 86 87  1  0  0  0  0
 87 88  2  0  0  0  0
 88 89  1  0  0  0  0
 89 90  1  0  0  0  0
 90 91  1  0  0  0  0
 89 92  2  0  0  0  0
 92 93  1  0  0  0  0
 93 94  2  0  0  0  0
 92 95  1  0  0  0  0
 95 96  1  0  0  0  0
 86 97  1  0  0  0  0
 97 98  2  0  0  0  0
 98 99  1  0  0  0  0
 99100  3  0  0  0  0
 98101  1  0  0  0  0
101102  2  0  0  0  0
102103  1  0  0  0  0
103104  3  0  0  0  0
102105  1  0  0  0  0
105106  3  0  0  0  0
101107  1  0  0  0  0
107108  1  0  0  0  0
108109  1  0  0  0  0
108110  1  0  0  0  0
 12  2  1  0  0  0  0
 31 18  1  0  0  0  0
 76 34  1  0  0  0  0
 94 81  1  0  0  0  0
108 97  1  0  0  0  0
 11  5  1  0  0  0  0
 31 24  1  0  0  0  0
 43 36  1  0  0  0  0
 75 44  2  0  0  0  0
 94 87  1  0  0  0  0
 74 46  2  0  0  0  0
 72 47  2  0  0  0  0
 52 48  2  0  0  0  0
 71 53  2  0  0  0  0
 69 54  2  0  0  0  0
 68 56  2  0  0  0  0
 65 58  1  0  0  0  0
  1111  1  0  0  0  0
  6112  1  0  0  0  0
  7113  1  0  0  0  0
 10114  1  0  0  0  0
 27115  1  0  0  0  0
 27116  1  0  0  0  0
 28117  1  0  0  0  0
 28118  1  0  0  0  0
 28119  1  0  0  0  0
 32120  1  0  0  0  0
 32121  1  0  0  0  0
 33122  1  0  0  0  0
 33123  1  0  0  0  0
 33124  1  0  0  0  0
 37125  1  0  0  0  0
 38126  1  0  0  0  0
 39127  1  0  0  0  0
 41128  1  0  0  0  0
 41129  1  0  0  0  0
 42130  1  0  0  0  0
 42131  1  0  0  0  0
 42132  1  0  0  0  0
 43133  1  0  0  0  0
 59134  1  0  0  0  0
 60135  1  0  0  0  0
 61136  1  0  0  0  0
 63137  1  0  0  0  0
 63138  1  0  0  0  0
 64139  1  0  0  0  0
 64140  1  0  0  0  0
 64141  1  0  0  0  0
 65142  1  0  0  0  0
 77143  1  0  0  0  0
 77144  1  0  0  0  0
 78145  1  0  0  0  0
 78146  1  0  0  0  0
 78147  1  0  0  0  0
 79148  1  0  0  0  0
 79149  1  0  0  0  0
 80150  1  0  0  0  0
 80151  1  0  0  0  0
 80152  1  0  0  0  0
 90153  1  0  0  0  0
 90154  1  0  0  0  0
 91155  1  0  0  0  0
 91156  1  0  0  0  0
 91157  1  0  0  0  0
 95158  1  0  0  0  0
 95159  1  0  0  0  0
 96160  1  0  0  0  0
 96161  1  0  0  0  0
 96162  1  0  0  0  0
109163  1  0  0  0  0
109164  1  0  0  0  0
109165  1  0  0  0  0
110166  1  0  0  0  0
110167  1  0  0  0  0
110168  1  0  0  0  0
M  END
