
  xtb     02052214493D
 energy: -299.378952659372 gnorm: 0.000519205712 xtb: 6.4.1 (unknown)
162179  0     0  0            999 V2000
    1.0783   11.4278    2.5686 C   0  0  0  0  0  0  0  0  0  0  0  0
    2.0726   11.6568    3.4630 C   0  0  0  0  0  0  0  0  0  0  0  0
    2.8734   10.5821    4.1158 C   0  0  0  0  0  0  0  0  0  0  0  0
    2.7822    9.3837    3.9655 O   0  0  0  0  0  0  0  0  0  0  0  0
    3.9193   11.2876    4.8817 C   0  0  0  0  0  0  0  0  0  0  0  0
    4.9218   10.7499    5.6685 C   0  0  0  0  0  0  0  0  0  0  0  0
    5.8216   11.6088    6.2768 C   0  0  0  0  0  0  0  0  0  0  0  0
    5.7101   12.9814    6.0778 C   0  0  0  0  0  0  0  0  0  0  0  0
    6.8464   14.0319    6.8328 Cl  0  0  0  0  0  0  0  0  0  0  0  0
    4.7108   13.5351    5.2839 C   0  0  0  0  0  0  0  0  0  0  0  0
    3.8059   12.6747    4.6837 C   0  0  0  0  0  0  0  0  0  0  0  0
    2.6588   12.9380    3.8170 C   0  0  0  0  0  0  0  0  0  0  0  0
    2.1823   14.1730    3.4747 C   0  0  0  0  0  0  0  0  0  0  0  0
    1.0191   14.4089    2.7088 C   0  0  0  0  0  0  0  0  0  0  0  0
    0.0773   14.6851    2.1141 N   0  0  0  0  0  0  0  0  0  0  0  0
    2.7799   15.3917    3.8639 C   0  0  0  0  0  0  0  0  0  0  0  0
    3.2183   16.4156    4.1399 N   0  0  0  0  0  0  0  0  0  0  0  0
    0.4156   10.1606    2.4362 C   0  0  0  0  0  0  0  0  0  0  0  0
    0.0259    9.6636    1.2033 C   0  0  0  0  0  0  0  0  0  0  0  0
    0.3056   10.3642    0.0937 F   0  0  0  0  0  0  0  0  0  0  0  0
   -0.6137    8.4301    1.0651 C   0  0  0  0  0  0  0  0  0  0  0  0
   -0.9583    8.0345   -0.1750 F   0  0  0  0  0  0  0  0  0  0  0  0
   -0.9085    7.6235    2.1541 C   0  0  0  0  0  0  0  0  0  0  0  0
   -0.5021    8.1001    3.4355 C   0  0  0  0  0  0  0  0  0  0  0  0
   -0.6010    7.3003    4.5067 N   0  0  0  0  0  0  0  0  0  0  0  0
   -0.2857    7.7524    5.6906 C   0  0  0  0  0  0  0  0  0  0  0  0
   -0.3361    6.7860    6.8350 C   0  0  0  0  0  0  0  0  0  0  0  0
   -0.0280    5.3603    6.3918 C   0  0  0  0  0  0  0  0  0  0  0  0
    0.0294    9.1349    5.8581 C   0  0  0  0  0  0  0  0  0  0  0  0
    0.2400    9.8889    4.8125 N   0  0  0  0  0  0  0  0  0  0  0  0
    0.0769    9.3832    3.5817 C   0  0  0  0  0  0  0  0  0  0  0  0
    0.1597    9.7935    7.1975 C   0  0  0  0  0  0  0  0  0  0  0  0
    1.6183    9.7788    7.6629 C   0  0  0  0  0  0  0  0  0  0  0  0
   -1.5451    6.3397    2.0148 C   0  0  0  0  0  0  0  0  0  0  0  0
   -2.4663    5.7498    2.8642 C   0  0  0  0  0  0  0  0  0  0  0  0
   -3.1127    6.4173    3.9923 C   0  0  0  0  0  0  0  0  0  0  0  0
   -3.4979    7.7545    3.9108 C   0  0  0  0  0  0  0  0  0  0  0  0
   -4.0923    8.3691    4.9947 C   0  0  0  0  0  0  0  0  0  0  0  0
   -4.3254    7.6599    6.1612 C   0  0  0  0  0  0  0  0  0  0  0  0
   -3.9784    6.3184    6.2494 C   0  0  0  0  0  0  0  0  0  0  0  0
   -4.2860    5.5144    7.4801 C   0  0  0  0  0  0  0  0  0  0  0  0
   -5.5920    4.7401    7.2917 C   0  0  0  0  0  0  0  0  0  0  0  0
   -3.3791    5.7080    5.1580 C   0  0  0  0  0  0  0  0  0  0  0  0
   -2.7625    4.4353    2.4512 C   0  0  0  0  0  0  0  0  0  0  0  0
   -3.8086    3.1914    3.0972 S   0  0  0  0  0  0  0  0  0  0  0  0
   -3.3160    2.1381    1.8157 C   0  0  0  0  0  0  0  0  0  0  0  0
   -3.4690    0.7997    1.4219 C   0  0  0  0  0  0  0  0  0  0  0  0
   -4.0988   -0.2958    2.0539 C   0  0  0  0  0  0  0  0  0  0  0  0
   -3.8681   -1.6193    1.5447 C   0  0  0  0  0  0  0  0  0  0  0  0
   -4.4447   -2.5526    2.2851 N   0  0  0  0  0  0  0  0  0  0  0  0
   -5.2196   -1.8317    3.5098 S   0  0  0  0  0  0  0  0  0  0  0  0
   -4.8430   -0.2992    3.1484 N   0  0  0  0  0  0  0  0  0  0  0  0
   -3.1272   -1.7748    0.3523 C   0  0  0  0  0  0  0  0  0  0  0  0
   -2.7750   -2.9118   -0.3949 C   0  0  0  0  0  0  0  0  0  0  0  0
   -2.8809   -4.6355   -0.2962 S   0  0  0  0  0  0  0  0  0  0  0  0
   -2.0270   -4.7572   -1.8170 C   0  0  0  0  0  0  0  0  0  0  0  0
   -1.6060   -5.8504   -2.5962 C   0  0  0  0  0  0  0  0  0  0  0  0
   -1.9189   -7.2469   -2.3046 C   0  0  0  0  0  0  0  0  0  0  0  0
   -2.2560   -8.1329   -3.3262 C   0  0  0  0  0  0  0  0  0  0  0  0
   -2.5021   -9.4601   -3.0351 C   0  0  0  0  0  0  0  0  0  0  0  0
   -2.4147   -9.9174   -1.7312 C   0  0  0  0  0  0  0  0  0  0  0  0
   -2.1121   -9.0429   -0.6952 C   0  0  0  0  0  0  0  0  0  0  0  0
   -1.9649   -9.5318    0.7158 C   0  0  0  0  0  0  0  0  0  0  0  0
   -0.4856   -9.7415    1.0475 C   0  0  0  0  0  0  0  0  0  0  0  0
   -1.8784   -7.7092   -0.9923 C   0  0  0  0  0  0  0  0  0  0  0  0
   -0.9275   -5.4169   -3.7289 C   0  0  0  0  0  0  0  0  0  0  0  0
   -0.8854   -3.6657   -3.8732 S   0  0  0  0  0  0  0  0  0  0  0  0
   -1.7086   -3.5098   -2.3662 C   0  0  0  0  0  0  0  0  0  0  0  0
   -2.1276   -2.4579   -1.5477 C   0  0  0  0  0  0  0  0  0  0  0  0
   -2.0525   -1.0875   -1.5435 N   0  0  0  0  0  0  0  0  0  0  0  0
   -2.6300   -0.6498   -0.3624 C   0  0  0  0  0  0  0  0  0  0  0  0
   -2.6816    0.6275    0.2486 C   0  0  0  0  0  0  0  0  0  0  0  0
   -2.0392    1.8184   -0.0285 N   0  0  0  0  0  0  0  0  0  0  0  0
   -2.4173    2.7277    0.9213 C   0  0  0  0  0  0  0  0  0  0  0  0
   -2.0930    4.0396    1.2901 C   0  0  0  0  0  0  0  0  0  0  0  0
   -1.0803    5.2971    0.6878 S   0  0  0  0  0  0  0  0  0  0  0  0
   -0.9095    2.0933   -0.8880 C   0  0  0  0  0  0  0  0  0  0  0  0
   -1.2748    3.0396   -2.0321 C   0  0  0  0  0  0  0  0  0  0  0  0
   -1.9776   -0.3975   -2.8144 C   0  0  0  0  0  0  0  0  0  0  0  0
   -3.2197   -0.6704   -3.6628 C   0  0  0  0  0  0  0  0  0  0  0  0
   -0.2955   -6.1972   -4.7324 C   0  0  0  0  0  0  0  0  0  0  0  0
   -0.4433   -5.7761   -6.4070 S   0  0  0  0  0  0  0  0  0  0  0  0
    0.3969   -7.2237   -6.9596 C   0  0  0  0  0  0  0  0  0  0  0  0
    0.7955   -7.9595   -5.8446 C   0  0  0  0  0  0  0  0  0  0  0  0
    1.7601   -9.3702   -5.6570 S   0  0  0  0  0  0  0  0  0  0  0  0
    1.7966   -9.1317   -3.9243 C   0  0  0  0  0  0  0  0  0  0  0  0
    2.5410  -10.0778   -3.0929 C   0  0  0  0  0  0  0  0  0  0  0  0
    2.5711  -10.0708   -1.8870 O   0  0  0  0  0  0  0  0  0  0  0  0
    3.1728  -10.9715   -3.8653 O   0  0  0  0  0  0  0  0  0  0  0  0
    3.9555  -11.9612   -3.1991 C   0  0  0  0  0  0  0  0  0  0  0  0
    5.3316  -11.4262   -2.8297 C   0  0  0  0  0  0  0  0  0  0  0  0
    1.0742   -8.0433   -3.5102 C   0  0  0  0  0  0  0  0  0  0  0  0
    0.4595   -7.3628   -4.5976 C   0  0  0  0  0  0  0  0  0  0  0  0
    1.0683   -7.4935   -1.9032 Cl  0  0  0  0  0  0  0  0  0  0  0  0
    0.6246   -7.3363   -8.3341 C   0  0  0  0  0  0  0  0  0  0  0  0
    1.0014   -8.4484   -9.0517 C   0  0  0  0  0  0  0  0  0  0  0  0
    0.8860   -9.8355   -8.5933 C   0  0  0  0  0  0  0  0  0  0  0  0
    0.4187  -10.2281   -7.5352 O   0  0  0  0  0  0  0  0  0  0  0  0
    1.3332  -10.6746   -9.7209 C   0  0  0  0  0  0  0  0  0  0  0  0
    1.4357  -12.0497   -9.7961 C   0  0  0  0  0  0  0  0  0  0  0  0
    1.8657  -12.6191  -10.9848 C   0  0  0  0  0  0  0  0  0  0  0  0
    2.1740  -11.8057  -12.0683 C   0  0  0  0  0  0  0  0  0  0  0  0
    2.7014  -12.5315  -13.5398 Cl  0  0  0  0  0  0  0  0  0  0  0  0
    2.0705  -10.4187  -12.0073 C   0  0  0  0  0  0  0  0  0  0  0  0
    1.6464   -9.8530  -10.8177 C   0  0  0  0  0  0  0  0  0  0  0  0
    1.4460   -8.4549  -10.4295 C   0  0  0  0  0  0  0  0  0  0  0  0
    1.7002   -7.3675  -11.2238 C   0  0  0  0  0  0  0  0  0  0  0  0
    1.5765   -6.0184  -10.8296 C   0  0  0  0  0  0  0  0  0  0  0  0
    1.5166   -4.8970  -10.5885 N   0  0  0  0  0  0  0  0  0  0  0  0
    2.1420   -7.4467  -12.5616 C   0  0  0  0  0  0  0  0  0  0  0  0
    2.4952   -7.4364  -13.6538 N   0  0  0  0  0  0  0  0  0  0  0  0
    0.7431   12.2165    1.9073 H   0  0  0  0  0  0  0  0  0  0  0  0
    4.9896    9.6811    5.8006 H   0  0  0  0  0  0  0  0  0  0  0  0
    6.6125   11.2247    6.9013 H   0  0  0  0  0  0  0  0  0  0  0  0
    4.6648   14.6030    5.1487 H   0  0  0  0  0  0  0  0  0  0  0  0
    0.3629    7.0948    7.6127 H   0  0  0  0  0  0  0  0  0  0  0  0
   -1.3464    6.8248    7.2558 H   0  0  0  0  0  0  0  0  0  0  0  0
   -0.1288    4.6756    7.2303 H   0  0  0  0  0  0  0  0  0  0  0  0
    0.9877    5.2976    6.0090 H   0  0  0  0  0  0  0  0  0  0  0  0
   -0.7094    5.0634    5.6018 H   0  0  0  0  0  0  0  0  0  0  0  0
   -0.4745    9.2898    7.9276 H   0  0  0  0  0  0  0  0  0  0  0  0
   -0.1668   10.8300    7.0998 H   0  0  0  0  0  0  0  0  0  0  0  0
    1.9952    8.7614    7.7363 H   0  0  0  0  0  0  0  0  0  0  0  0
    2.2389   10.3205    6.9537 H   0  0  0  0  0  0  0  0  0  0  0  0
    1.7050   10.2536    8.6370 H   0  0  0  0  0  0  0  0  0  0  0  0
   -3.3379    8.3066    2.9964 H   0  0  0  0  0  0  0  0  0  0  0  0
   -4.3811    9.4080    4.9293 H   0  0  0  0  0  0  0  0  0  0  0  0
   -4.7883    8.1508    7.0055 H   0  0  0  0  0  0  0  0  0  0  0  0
   -4.3784    6.1750    8.3448 H   0  0  0  0  0  0  0  0  0  0  0  0
   -3.4762    4.8071    7.6721 H   0  0  0  0  0  0  0  0  0  0  0  0
   -5.5134    4.0687    6.4399 H   0  0  0  0  0  0  0  0  0  0  0  0
   -6.4154    5.4275    7.1111 H   0  0  0  0  0  0  0  0  0  0  0  0
   -5.8175    4.1531    8.1789 H   0  0  0  0  0  0  0  0  0  0  0  0
   -3.0982    4.6677    5.2260 H   0  0  0  0  0  0  0  0  0  0  0  0
   -2.3439   -7.7783   -4.3423 H   0  0  0  0  0  0  0  0  0  0  0  0
   -2.7582  -10.1427   -3.8317 H   0  0  0  0  0  0  0  0  0  0  0  0
   -2.5906  -10.9611   -1.5148 H   0  0  0  0  0  0  0  0  0  0  0  0
   -2.3893   -8.8001    1.4067 H   0  0  0  0  0  0  0  0  0  0  0  0
   -2.5019  -10.4738    0.8406 H   0  0  0  0  0  0  0  0  0  0  0  0
    0.0591   -8.8040    0.9663 H   0  0  0  0  0  0  0  0  0  0  0  0
   -0.0362  -10.4514    0.3570 H   0  0  0  0  0  0  0  0  0  0  0  0
   -0.3731  -10.1207    2.0604 H   0  0  0  0  0  0  0  0  0  0  0  0
   -1.6205   -7.0266   -0.1962 H   0  0  0  0  0  0  0  0  0  0  0  0
   -0.5017    1.1494   -1.2513 H   0  0  0  0  0  0  0  0  0  0  0  0
   -0.1373    2.5729   -0.2758 H   0  0  0  0  0  0  0  0  0  0  0  0
   -2.1486    2.6926   -2.5795 H   0  0  0  0  0  0  0  0  0  0  0  0
   -1.4979    4.0291   -1.6431 H   0  0  0  0  0  0  0  0  0  0  0  0
   -0.4387    3.1236   -2.7204 H   0  0  0  0  0  0  0  0  0  0  0  0
   -1.9003    0.6702   -2.6488 H   0  0  0  0  0  0  0  0  0  0  0  0
   -1.0843   -0.7500   -3.3392 H   0  0  0  0  0  0  0  0  0  0  0  0
   -3.1512   -0.1190   -4.5963 H   0  0  0  0  0  0  0  0  0  0  0  0
   -3.3102   -1.7284   -3.8936 H   0  0  0  0  0  0  0  0  0  0  0  0
   -4.1149   -0.3521   -3.1323 H   0  0  0  0  0  0  0  0  0  0  0  0
    4.0295  -12.7865   -3.9098 H   0  0  0  0  0  0  0  0  0  0  0  0
    3.4228  -12.2869   -2.2994 H   0  0  0  0  0  0  0  0  0  0  0  0
    5.2333  -10.6105   -2.1175 H   0  0  0  0  0  0  0  0  0  0  0  0
    5.8446  -11.0625   -3.7168 H   0  0  0  0  0  0  0  0  0  0  0  0
    5.9206  -12.2186   -2.3771 H   0  0  0  0  0  0  0  0  0  0  0  0
    0.4715   -6.4158   -8.8836 H   0  0  0  0  0  0  0  0  0  0  0  0
    1.1870  -12.6586   -8.9409 H   0  0  0  0  0  0  0  0  0  0  0  0
    1.9618  -13.6892  -11.0788 H   0  0  0  0  0  0  0  0  0  0  0  0
    2.3160   -9.8256  -12.8726 H   0  0  0  0  0  0  0  0  0  0  0  0
  1  2  2  0  0  0  0
  2  3  1  0  0  0  0
  3  4  2  0  0  0  0
  3  5  1  0  0  0  0
  5  6  2  0  0  0  0
  6  7  1  0  0  0  0
  7  8  2  0  0  0  0
  8  9  1  0  0  0  0
  8 10  1  0  0  0  0
 10 11  2  0  0  0  0
 11 12  1  0  0  0  0
 12 13  2  0  0  0  0
 13 14  1  0  0  0  0
 14 15  3  0  0  0  0
 13 16  1  0  0  0  0
 16 17  3  0  0  0  0
  1 18  1  0  0  0  0
 18 19  2  0  0  0  0
 19 20  1  0  0  0  0
 19 21  1  0  0  0  0
 21 22  1  0  0  0  0
 21 23  2  0  0  0  0
 23 24  1  0  0  0  0
 24 25  2  0  0  0  0
 25 26  1  0  0  0  0
 26 27  1  0  0  0  0
 27 28  1  0  0  0  0
 26 29  2  0  0  0  0
 29 30  1  0  0  0  0
 30 31  2  0  0  0  0
 29 32  1  0  0  0  0
 32 33  1  0  0  0  0
 23 34  1  0  0  0  0
 34 35  2  0  0  0  0
 35 36  1  0  0  0  0
 36 37  2  0  0  0  0
 37 38  1  0  0  0  0
 38 39  2  0  0  0  0
 39 40  1  0  0  0  0
 40 41  1  0  0  0  0
 41 42  1  0  0  0  0
 40 43  2  0  0  0  0
 35 44  1  0  0  0  0
 44 45  1  0  0  0  0
 45 46  1  0  0  0  0
 46 47  1  0  0  0  0
 47 48  1  0  0  0  0
 48 49  1  0  0  0  0
 49 50  2  0  0  0  0
 50 51  1  0  0  0  0
 51 52  1  0  0  0  0
 49 53  1  0  0  0  0
 53 54  1  0  0  0  0
 54 55  1  0  0  0  0
 55 56  1  0  0  0  0
 56 57  1  0  0  0  0
 57 58  1  0  0  0  0
 58 59  2  0  0  0  0
 59 60  1  0  0  0  0
 60 61  2  0  0  0  0
 61 62  1  0  0  0  0
 62 63  1  0  0  0  0
 63 64  1  0  0  0  0
 62 65  2  0  0  0  0
 57 66  2  0  0  0  0
 66 67  1  0  0  0  0
 67 68  1  0  0  0  0
 68 69  1  0  0  0  0
 69 70  1  0  0  0  0
 70 71  1  0  0  0  0
 71 72  1  0  0  0  0
 72 73  1  0  0  0  0
 73 74  1  0  0  0  0
 74 75  1  0  0  0  0
 75 76  1  0  0  0  0
 73 77  1  0  0  0  0
 77 78  1  0  0  0  0
 70 79  1  0  0  0  0
 79 80  1  0  0  0  0
 66 81  1  0  0  0  0
 81 82  1  0  0  0  0
 82 83  1  0  0  0  0
 83 84  2  0  0  0  0
 84 85  1  0  0  0  0
 85 86  1  0  0  0  0
 86 87  1  0  0  0  0
 87 88  2  0  0  0  0
 87 89  1  0  0  0  0
 89 90  1  0  0  0  0
 90 91  1  0  0  0  0
 86 92  2  0  0  0  0
 92 93  1  0  0  0  0
 92 94  1  0  0  0  0
 83 95  1  0  0  0  0
 95 96  2  0  0  0  0
 96 97  1  0  0  0  0
 97 98  2  0  0  0  0
 97 99  1  0  0  0  0
 99100  2  0  0  0  0
100101  1  0  0  0  0
101102  2  0  0  0  0
102103  1  0  0  0  0
102104  1  0  0  0  0
104105  2  0  0  0  0
105106  1  0  0  0  0
106107  2  0  0  0  0
107108  1  0  0  0  0
108109  3  0  0  0  0
107110  1  0  0  0  0
110111  3  0  0  0  0
 12  2  1  0  0  0  0
 31 18  1  0  0  0  0
 76 34  1  0  0  0  0
 93 81  2  0  0  0  0
106 96  1  0  0  0  0
 11  5  1  0  0  0  0
 31 24  1  0  0  0  0
 43 36  1  0  0  0  0
 75 44  2  0  0  0  0
 93 84  1  0  0  0  0
105 99  1  0  0  0  0
 74 46  2  0  0  0  0
 72 47  2  0  0  0  0
 52 48  2  0  0  0  0
 71 53  2  0  0  0  0
 69 54  2  0  0  0  0
 68 56  2  0  0  0  0
 65 58  1  0  0  0  0
  1112  1  0  0  0  0
  6113  1  0  0  0  0
  7114  1  0  0  0  0
 10115  1  0  0  0  0
 27116  1  0  0  0  0
 27117  1  0  0  0  0
 28118  1  0  0  0  0
 28119  1  0  0  0  0
 28120  1  0  0  0  0
 32121  1  0  0  0  0
 32122  1  0  0  0  0
 33123  1  0  0  0  0
 33124  1  0  0  0  0
 33125  1  0  0  0  0
 37126  1  0  0  0  0
 38127  1  0  0  0  0
 39128  1  0  0  0  0
 41129  1  0  0  0  0
 41130  1  0  0  0  0
 42131  1  0  0  0  0
 42132  1  0  0  0  0
 42133  1  0  0  0  0
 43134  1  0  0  0  0
 59135  1  0  0  0  0
 60136  1  0  0  0  0
 61137  1  0  0  0  0
 63138  1  0  0  0  0
 63139  1  0  0  0  0
 64140  1  0  0  0  0
 64141  1  0  0  0  0
 64142  1  0  0  0  0
 65143  1  0  0  0  0
 77144  1  0  0  0  0
 77145  1  0  0  0  0
 78146  1  0  0  0  0
 78147  1  0  0  0  0
 78148  1  0  0  0  0
 79149  1  0  0  0  0
 79150  1  0  0  0  0
 80151  1  0  0  0  0
 80152  1  0  0  0  0
 80153  1  0  0  0  0
 90154  1  0  0  0  0
 90155  1  0  0  0  0
 91156  1  0  0  0  0
 91157  1  0  0  0  0
 91158  1  0  0  0  0
 95159  1  0  0  0  0
100160  1  0  0  0  0
101161  1  0  0  0  0
104162  1  0  0  0  0
M  END
