207

C         -9.98210       -6.13160        5.54050
C        -10.96130       -5.48170        6.22580
C        -11.25270       -4.02720        6.09100
O        -10.73980       -3.22730        5.33900
C        -12.42990       -3.78530        6.94860
C        -13.08810       -2.59490        7.19500
C        -14.20290       -2.60950        8.01720
C        -14.64260       -3.81080        8.56300
Cl       -16.03740       -3.81050        9.57430
C        -13.99480       -5.01710        8.31700
C        -12.87440       -4.99830        7.50240
C        -11.98060       -6.07250        7.07070
C        -12.05400       -7.37980        7.47070
C        -13.05760       -7.89680        8.31760
N        -13.84530       -8.38240        8.99700
C        -11.13330       -8.38960        7.11630
N        -10.42120       -9.26280        6.89670
C         -8.86060       -5.47120        4.94730
C         -8.27860       -5.92260        3.76890
F         -8.80810       -6.98950        3.15030
C         -7.20990       -5.27670        3.15200
F         -6.78160       -5.79370        1.98510
C         -6.61920       -4.13280        3.68890
C         -7.14730       -3.70220        4.94710
N         -6.60050       -2.63360        5.53050
C         -7.04080       -2.19640        6.68540
C         -6.35910       -0.97710        7.22600
C         -4.89950       -1.28120        7.57120
C         -8.07400       -2.91140        7.35340
N         -8.62540       -3.95920        6.79260
C         -8.22990       -4.35760        5.57670
C         -8.58330       -2.56350        8.71970
C         -7.62280       -3.03380        9.81340
C         -5.57850       -3.38460        3.06900
S         -4.95700       -1.94490        3.87040
C         -3.86620       -1.67960        2.55750
C         -2.86730       -0.81170        2.11710
S         -1.98340        0.57500        2.66660
C         -1.04790        0.51770        1.20770
C          0.11110        1.20680        0.73590
C          0.88660        2.19700        1.33300
C          2.03850        2.57270        0.68210
C          3.06000        3.61850        1.09890
C          3.83460        3.25320        2.35290
C          3.83020        1.96700        2.87170
C          4.59380        1.65880        3.98370
C          5.38820        2.61820        4.59500
C          6.18460        2.29110        5.82520
C          5.36820        2.58460        7.08550
C          5.39630        3.90260        4.06490
C          4.63400        4.21670        2.95720
C          2.35360        4.95220        1.24220
C          2.24380        5.82650        0.17040
C          1.56090        7.02120        0.30710
C          0.96040        7.36720        1.50970
C          0.26260        8.68680        1.67110
C          1.24350        9.75080        2.16800
C          1.06280        6.48310        2.57600
C          1.74700        5.28990        2.44570
C          4.02410        3.54960       -0.05880
C          3.63210        2.56790       -0.96130
C          2.41170        1.96250       -0.53810
C          1.63610        0.96790       -1.13260
C          0.46730        0.61820       -0.50220
C         -0.59500       -0.38560       -0.94080
C         -1.43510        0.25990       -2.04330
C         -2.82300        0.29400       -1.97260
C         -3.57630        0.85250       -2.98980
C         -2.97230        1.40370       -4.11020
C         -3.79200        2.04040       -5.19400
C         -4.06550        3.50890       -4.86320
C         -1.58570        1.39770       -4.16800
C         -0.83040        0.83990       -3.15340
C          0.01350       -1.71490       -1.34530
C          0.17300       -2.10540       -2.66670
C          0.73760       -3.33000       -2.97500
C          1.13890       -4.20680       -1.97800
C          1.75730       -5.53080       -2.32120
C          3.27090       -5.38770       -2.49240
C          0.99030       -3.80840       -0.65610
C          0.44560       -2.57840       -0.34400
C         -1.41230       -0.48570        0.32280
C         -2.43570       -1.27340        0.84850
N         -3.13940       -2.41350        0.51240
C         -4.00010       -2.67160        1.56220
C         -4.96130       -3.62990        1.85050
C         -2.84140       -3.30800       -0.50410
C         -2.78160       -3.07670       -1.84440
C         -2.38450       -4.23450       -2.53820
S         -2.11220       -4.61800       -4.19700
C         -1.67530       -6.25830       -3.77490
C         -1.32390       -7.22600       -4.85160
C         -2.57090       -7.69180       -5.60640
C         -1.74980       -6.48810       -2.43630
C         -2.14890       -5.33640       -1.72990
S         -2.40950       -4.95860       -0.06660
S          4.70500        2.42240       -2.29330
C          5.70850        3.69880       -1.62690
C          5.19830        4.18520       -0.42690
C          6.88250        4.10960       -2.31970
C          7.75520        5.10760       -1.88470
F          7.54610        5.75120       -0.72110
C          8.86490        5.50100       -2.62710
F          9.62370        6.49580       -2.14140
C          9.18260        4.95940       -3.86790
C          8.36020        3.88420       -4.31670
N          8.69270        3.19690       -5.41790
C          7.91600        2.23340       -5.84750
C          8.34610        1.55520       -7.11150
C          7.64180        2.19280       -8.31280
C          6.72810        1.89650       -5.14300
N          6.45120        2.50570       -4.01710
C          7.23070        3.49030       -3.56260
C          5.79220        0.79830       -5.54320
C          6.15260       -0.49090       -4.80000
C         10.32570        5.39890       -4.60460
C         10.39130        5.44530       -5.96330
C          9.20130        5.48860       -6.85590
O          8.03450        5.52190       -6.53990
C          9.75220        5.65850       -8.22040
C          9.10770        5.74670       -9.44110
F          7.77730        5.62380       -9.52810
C          9.83880        5.94850      -10.60450
C         11.21530        6.07530      -10.53150
C         11.88690        5.99370       -9.31830
C         11.15290        5.78040       -8.16230
C         11.57770        5.63690       -6.77040
C         12.87500        5.59640       -6.33320
C         13.27370        5.35750       -4.99990
N         13.68510        5.14580       -3.94940
C         14.00300        5.75920       -7.16480
N         14.96150        5.88730       -7.78370
H        -10.02130       -7.20710        5.42330
H        -12.72950       -1.67860        6.75240
H        -14.73750       -1.69880        8.23620
H        -14.37380       -5.92670        8.75300
H         -6.37480       -0.21230        6.44710
H         -6.88080       -0.59670        8.10260
H         -4.83300       -2.05540        8.33270
H         -4.41090       -0.38480        7.94380
H         -4.37610       -1.62330        6.68320
H         -8.74080       -1.48650        8.79900
H         -9.54460       -3.06390        8.84670
H         -6.66220       -2.53240        9.73290
H         -8.04270       -2.81960       10.79290
H         -7.46230       -4.10620        9.73280
H          0.59330        2.63200        2.27580
H          3.22880        1.19860        2.40820
H          4.57510        0.65230        4.37740
H          6.46470        1.23580        5.81540
H          7.09910        2.88740        5.84260
H          5.94540        2.34870        7.97660
H          4.45770        1.98940        7.09330
H          5.09000        3.63560        7.11960
H          6.01200        4.66420        4.52170
H          4.65220        5.22100        2.55960
H          2.69720        5.57690       -0.77780
H          1.49170        7.69350       -0.53630
H         -0.55500        8.58820        2.38830
H         -0.15780        9.00340        0.71450
H          1.66310        9.45910        3.12830
H          0.74090       10.70820        2.28460
H          2.06080        9.87100        1.46050
H          0.59970        6.73130        3.52060
H          1.82250        4.62030        3.29040
H          1.97650        0.48520       -2.03600
H         -3.34030       -0.10890       -1.11550
H         -4.65400        0.85550       -2.90740
H         -3.26020        1.97830       -6.14540
H         -4.74200        1.51200       -5.29760
H         -4.60730        3.59060       -3.92360
H         -4.65910        3.97120       -5.64820
H         -3.13010        4.05530       -4.76620
H         -1.08530        1.83510       -5.02030
H          0.24380        0.86950       -3.23340
H         -0.16090       -1.46610       -3.46940
H          0.84980       -3.61430       -4.01160
H          1.32310       -5.91130       -3.24840
H          1.54970       -6.25140       -1.52770
H          3.71840       -6.34690       -2.74180
H          3.72240       -5.02150       -1.57320
H          3.49600       -4.68110       -3.28830
H          1.29790       -4.47210        0.13950
H          0.34410       -2.28800        0.69240
H         -5.19860       -4.45680        1.20950
H         -3.00960       -2.13630       -2.30950
H         -0.63510       -6.75550       -5.55750
H         -0.82330       -8.08620       -4.40230
H         -2.29740       -8.40080       -6.38350
H         -3.06960       -6.84280       -6.06810
H         -3.26750       -8.17330       -4.92430
H         -1.52370       -7.43210       -1.97590
H          5.66150        4.96870        0.14140
H          8.12800        0.48740       -7.07210
H          9.42360        1.69250       -7.21460
H          7.79770        3.26720       -8.30800
H          8.03720        1.78330       -9.23910
H          6.57020        2.01170       -8.28260
H          5.82580        0.63080       -6.61830
H          4.78240        1.09620       -5.25920
H          6.08560       -0.32890       -3.72730
H          5.46530       -1.28620       -5.07700
H          7.16540       -0.80760       -5.04020
H         11.17860        5.70930       -4.01400
H          9.32030        6.00740      -11.54830
H         11.77900        6.24120      -11.43650
H         12.95820        6.10150       -9.29170
