
  xtb     02052210413D
 energy: -292.403420317101 gnorm: 0.000737520492 xtb: 6.4.1 (unknown)
163179  0     0  0            999 V2000
   -6.1002    5.0588   -7.0685 C   0  0  0  0  0  0  0  0  0  0  0  0
   -6.0158    4.8919   -8.4116 C   0  0  0  0  0  0  0  0  0  0  0  0
   -5.3408    3.7350   -9.0701 C   0  0  0  0  0  0  0  0  0  0  0  0
   -4.8131    2.7864   -8.5364 O   0  0  0  0  0  0  0  0  0  0  0  0
   -5.3260    4.0612  -10.5081 C   0  0  0  0  0  0  0  0  0  0  0  0
   -4.8126    3.3175  -11.5545 C   0  0  0  0  0  0  0  0  0  0  0  0
   -4.8989    3.8304  -12.8381 C   0  0  0  0  0  0  0  0  0  0  0  0
   -5.4845    5.0750  -13.0478 C   0  0  0  0  0  0  0  0  0  0  0  0
   -5.5744    5.6990  -14.6502 Cl  0  0  0  0  0  0  0  0  0  0  0  0
   -5.9994    5.8364  -12.0036 C   0  0  0  0  0  0  0  0  0  0  0  0
   -5.9188    5.3183  -10.7211 C   0  0  0  0  0  0  0  0  0  0  0  0
   -6.3629    5.8592   -9.4382 C   0  0  0  0  0  0  0  0  0  0  0  0
   -7.0366    7.0350   -9.2525 C   0  0  0  0  0  0  0  0  0  0  0  0
   -7.5017    7.5151   -8.0085 C   0  0  0  0  0  0  0  0  0  0  0  0
   -7.9237    7.9698   -7.0426 N   0  0  0  0  0  0  0  0  0  0  0  0
   -7.3670    7.9342  -10.2895 C   0  0  0  0  0  0  0  0  0  0  0  0
   -7.6603    8.7092  -11.0833 N   0  0  0  0  0  0  0  0  0  0  0  0
   -5.8554    4.0290   -6.0959 C   0  0  0  0  0  0  0  0  0  0  0  0
   -6.3061    2.7225   -6.2172 C   0  0  0  0  0  0  0  0  0  0  0  0
   -7.0889    2.3782   -7.2465 F   0  0  0  0  0  0  0  0  0  0  0  0
   -6.0381    1.7394   -5.2608 C   0  0  0  0  0  0  0  0  0  0  0  0
   -6.4757    0.4998   -5.5299 F   0  0  0  0  0  0  0  0  0  0  0  0
   -5.3031    2.0018   -4.1095 C   0  0  0  0  0  0  0  0  0  0  0  0
   -4.8074    3.3364   -3.9773 C   0  0  0  0  0  0  0  0  0  0  0  0
   -4.0147    3.6268   -2.9411 N   0  0  0  0  0  0  0  0  0  0  0  0
   -3.5617    4.8460   -2.7703 C   0  0  0  0  0  0  0  0  0  0  0  0
   -2.6668    5.0420   -1.5832 C   0  0  0  0  0  0  0  0  0  0  0  0
   -3.4141    4.7221   -0.2875 C   0  0  0  0  0  0  0  0  0  0  0  0
   -3.9312    5.8713   -3.6850 C   0  0  0  0  0  0  0  0  0  0  0  0
   -4.6683    5.5939   -4.7342 N   0  0  0  0  0  0  0  0  0  0  0  0
   -5.1178    4.3430   -4.9208 C   0  0  0  0  0  0  0  0  0  0  0  0
   -3.5412    7.3091   -3.5269 C   0  0  0  0  0  0  0  0  0  0  0  0
   -4.4184    7.9993   -2.4799 C   0  0  0  0  0  0  0  0  0  0  0  0
   -4.9523    1.0279   -3.1216 C   0  0  0  0  0  0  0  0  0  0  0  0
   -5.5827   -0.1633   -2.7792 C   0  0  0  0  0  0  0  0  0  0  0  0
   -6.9538   -0.5378   -3.1157 C   0  0  0  0  0  0  0  0  0  0  0  0
   -7.9728    0.4126   -3.0701 C   0  0  0  0  0  0  0  0  0  0  0  0
   -9.2761    0.0364   -3.3257 C   0  0  0  0  0  0  0  0  0  0  0  0
   -9.5781   -1.2828   -3.6187 C   0  0  0  0  0  0  0  0  0  0  0  0
   -8.5764   -2.2435   -3.6641 C   0  0  0  0  0  0  0  0  0  0  0  0
   -8.8966   -3.6866   -3.9250 C   0  0  0  0  0  0  0  0  0  0  0  0
   -8.9948   -4.4531   -2.6042 C   0  0  0  0  0  0  0  0  0  0  0  0
   -7.2688   -1.8597   -3.4093 C   0  0  0  0  0  0  0  0  0  0  0  0
   -4.7784   -0.9276   -1.9143 C   0  0  0  0  0  0  0  0  0  0  0  0
   -4.9894   -2.5005   -1.1766 S   0  0  0  0  0  0  0  0  0  0  0  0
   -3.4406   -2.3321   -0.4240 C   0  0  0  0  0  0  0  0  0  0  0  0
   -2.5504   -3.0809    0.3661 C   0  0  0  0  0  0  0  0  0  0  0  0
   -2.5476   -4.4233    0.8109 C   0  0  0  0  0  0  0  0  0  0  0  0
   -1.3642   -4.9538    1.4389 C   0  0  0  0  0  0  0  0  0  0  0  0
   -1.4785   -6.2421    1.7181 N   0  0  0  0  0  0  0  0  0  0  0  0
   -2.9427   -6.7459    1.2467 S   0  0  0  0  0  0  0  0  0  0  0  0
   -3.4902   -5.3399    0.6615 N   0  0  0  0  0  0  0  0  0  0  0  0
   -0.2909   -4.0827    1.7368 C   0  0  0  0  0  0  0  0  0  0  0  0
    0.9252   -4.2478    2.4225 C   0  0  0  0  0  0  0  0  0  0  0  0
    1.8782   -5.5137    3.1166 S   0  0  0  0  0  0  0  0  0  0  0  0
    3.0843   -4.3275    3.5658 C   0  0  0  0  0  0  0  0  0  0  0  0
    4.3115   -4.4288    4.2430 C   0  0  0  0  0  0  0  0  0  0  0  0
    4.7659   -5.6777    4.8500 C   0  0  0  0  0  0  0  0  0  0  0  0
    5.2428   -5.6959    6.1595 C   0  0  0  0  0  0  0  0  0  0  0  0
    5.6136   -6.8928    6.7390 C   0  0  0  0  0  0  0  0  0  0  0  0
    5.5053   -8.0765    6.0289 C   0  0  0  0  0  0  0  0  0  0  0  0
    5.0251   -8.0775    4.7259 C   0  0  0  0  0  0  0  0  0  0  0  0
    4.8453   -9.3590    3.9656 C   0  0  0  0  0  0  0  0  0  0  0  0
    3.3980   -9.8420    4.0834 C   0  0  0  0  0  0  0  0  0  0  0  0
    4.6565   -6.8726    4.1481 C   0  0  0  0  0  0  0  0  0  0  0  0
    4.9192   -3.1828    4.3655 C   0  0  0  0  0  0  0  0  0  0  0  0
    3.9160   -1.8782    3.7522 S   0  0  0  0  0  0  0  0  0  0  0  0
    2.7412   -3.0226    3.2004 C   0  0  0  0  0  0  0  0  0  0  0  0
    1.5077   -2.9791    2.5460 C   0  0  0  0  0  0  0  0  0  0  0  0
    0.7108   -2.0347    1.9462 N   0  0  0  0  0  0  0  0  0  0  0  0
   -0.3737   -2.7034    1.4109 C   0  0  0  0  0  0  0  0  0  0  0  0
   -1.4198   -2.2498    0.5817 C   0  0  0  0  0  0  0  0  0  0  0  0
   -1.5838   -1.0581   -0.1007 N   0  0  0  0  0  0  0  0  0  0  0  0
   -2.8131   -1.1134   -0.7105 C   0  0  0  0  0  0  0  0  0  0  0  0
   -3.5710   -0.3133   -1.5706 C   0  0  0  0  0  0  0  0  0  0  0  0
   -3.4386    1.2655   -2.2637 S   0  0  0  0  0  0  0  0  0  0  0  0
   -0.5347   -0.2373   -0.6713 C   0  0  0  0  0  0  0  0  0  0  0  0
   -0.2353   -0.6457   -2.1134 C   0  0  0  0  0  0  0  0  0  0  0  0
    0.7371   -0.6532    2.3810 C   0  0  0  0  0  0  0  0  0  0  0  0
    0.5319   -0.5387    3.8914 C   0  0  0  0  0  0  0  0  0  0  0  0
    6.2217   -2.8476    4.8462 C   0  0  0  0  0  0  0  0  0  0  0  0
    7.3250   -3.6926    4.8458 C   0  0  0  0  0  0  0  0  0  0  0  0
    7.2659   -4.9118    4.2880 F   0  0  0  0  0  0  0  0  0  0  0  0
    8.5600   -3.3020    5.3611 C   0  0  0  0  0  0  0  0  0  0  0  0
    9.5409   -4.2194    5.3048 F   0  0  0  0  0  0  0  0  0  0  0  0
    8.8236   -2.0427    5.8963 C   0  0  0  0  0  0  0  0  0  0  0  0
    7.7293   -1.1207    5.8465 C   0  0  0  0  0  0  0  0  0  0  0  0
    7.8584    0.1349    6.3023 N   0  0  0  0  0  0  0  0  0  0  0  0
    6.8678    0.9892    6.2059 C   0  0  0  0  0  0  0  0  0  0  0  0
    7.1326    2.3686    6.7279 C   0  0  0  0  0  0  0  0  0  0  0  0
    7.7319    3.2436    5.6234 C   0  0  0  0  0  0  0  0  0  0  0  0
    5.6473    0.6103    5.5898 C   0  0  0  0  0  0  0  0  0  0  0  0
    5.4941   -0.6255    5.1839 N   0  0  0  0  0  0  0  0  0  0  0  0
    6.4810   -1.5179    5.3027 C   0  0  0  0  0  0  0  0  0  0  0  0
    4.4682    1.5144    5.4061 C   0  0  0  0  0  0  0  0  0  0  0  0
    3.5072    1.3692    6.5889 C   0  0  0  0  0  0  0  0  0  0  0  0
   10.1131   -1.6951    6.4229 C   0  0  0  0  0  0  0  0  0  0  0  0
   10.5140   -0.4712    6.9416 C   0  0  0  0  0  0  0  0  0  0  0  0
   11.8303   -0.4455    7.3709 C   0  0  0  0  0  0  0  0  0  0  0  0
   12.4829   -1.6570    7.1943 C   0  0  0  0  0  0  0  0  0  0  0  0
   13.8226   -2.0193    7.5032 C   0  0  0  0  0  0  0  0  0  0  0  0
   14.7923   -1.2135    8.0629 C   0  0  0  0  0  0  0  0  0  0  0  0
   14.6202    0.1317    8.4336 C   0  0  0  0  0  0  0  0  0  0  0  0
   14.5282    1.2315    8.7511 N   0  0  0  0  0  0  0  0  0  0  0  0
   16.0880   -1.7169    8.3099 C   0  0  0  0  0  0  0  0  0  0  0  0
   17.1475   -2.1016    8.5201 N   0  0  0  0  0  0  0  0  0  0  0  0
   14.2094   -3.3533    7.2032 C   0  0  0  0  0  0  0  0  0  0  0  0
   14.5148   -4.4307    6.9639 N   0  0  0  0  0  0  0  0  0  0  0  0
   11.4196   -2.8371    6.4772 S   0  0  0  0  0  0  0  0  0  0  0  0
   -6.2993    6.0364   -6.6499 H   0  0  0  0  0  0  0  0  0  0  0  0
   -4.3616    2.3562  -11.3633 H   0  0  0  0  0  0  0  0  0  0  0  0
   -4.5155    3.2750  -13.6793 H   0  0  0  0  0  0  0  0  0  0  0  0
   -6.4399    6.7981  -12.2084 H   0  0  0  0  0  0  0  0  0  0  0  0
   -2.2776    6.0578   -1.5508 H   0  0  0  0  0  0  0  0  0  0  0  0
   -1.8277    4.3488   -1.6807 H   0  0  0  0  0  0  0  0  0  0  0  0
   -3.7808    3.7000   -0.3182 H   0  0  0  0  0  0  0  0  0  0  0  0
   -4.2629    5.3901   -0.1579 H   0  0  0  0  0  0  0  0  0  0  0  0
   -2.7510    4.8355    0.5664 H   0  0  0  0  0  0  0  0  0  0  0  0
   -2.4894    7.3914   -3.2479 H   0  0  0  0  0  0  0  0  0  0  0  0
   -3.6860    7.7970   -4.4912 H   0  0  0  0  0  0  0  0  0  0  0  0
   -4.3024    7.5361   -1.5031 H   0  0  0  0  0  0  0  0  0  0  0  0
   -5.4638    7.9367   -2.7715 H   0  0  0  0  0  0  0  0  0  0  0  0
   -4.1446    9.0482   -2.4004 H   0  0  0  0  0  0  0  0  0  0  0  0
   -7.7394    1.4384   -2.8212 H   0  0  0  0  0  0  0  0  0  0  0  0
  -10.0636    0.7751   -3.2918 H   0  0  0  0  0  0  0  0  0  0  0  0
  -10.6015   -1.5680   -3.8156 H   0  0  0  0  0  0  0  0  0  0  0  0
   -9.8433   -3.7663   -4.4623 H   0  0  0  0  0  0  0  0  0  0  0  0
   -8.1139   -4.1325   -4.5416 H   0  0  0  0  0  0  0  0  0  0  0  0
   -9.7719   -4.0238   -1.9754 H   0  0  0  0  0  0  0  0  0  0  0  0
   -9.2347   -5.4977   -2.7879 H   0  0  0  0  0  0  0  0  0  0  0  0
   -8.0516   -4.4018   -2.0650 H   0  0  0  0  0  0  0  0  0  0  0  0
   -6.4798   -2.5950   -3.4634 H   0  0  0  0  0  0  0  0  0  0  0  0
    5.3086   -4.7735    6.7200 H   0  0  0  0  0  0  0  0  0  0  0  0
    5.9861   -6.9046    7.7529 H   0  0  0  0  0  0  0  0  0  0  0  0
    5.7983   -9.0080    6.4911 H   0  0  0  0  0  0  0  0  0  0  0  0
    5.5168  -10.1236    4.3599 H   0  0  0  0  0  0  0  0  0  0  0  0
    5.0866   -9.2006    2.9128 H   0  0  0  0  0  0  0  0  0  0  0  0
    3.1407  -10.0131    5.1264 H   0  0  0  0  0  0  0  0  0  0  0  0
    3.2615  -10.7712    3.5353 H   0  0  0  0  0  0  0  0  0  0  0  0
    2.7156   -9.0965    3.6812 H   0  0  0  0  0  0  0  0  0  0  0  0
    4.3013   -6.8586    3.1282 H   0  0  0  0  0  0  0  0  0  0  0  0
    0.3749   -0.3531   -0.0863 H   0  0  0  0  0  0  0  0  0  0  0  0
   -0.8624    0.8066   -0.6415 H   0  0  0  0  0  0  0  0  0  0  0  0
    0.0534   -1.6939   -2.1537 H   0  0  0  0  0  0  0  0  0  0  0  0
    0.5818   -0.0431   -2.5000 H   0  0  0  0  0  0  0  0  0  0  0  0
   -1.1039   -0.4975   -2.7483 H   0  0  0  0  0  0  0  0  0  0  0  0
   -0.0682   -0.1135    1.8845 H   0  0  0  0  0  0  0  0  0  0  0  0
    1.7025   -0.2147    2.1069 H   0  0  0  0  0  0  0  0  0  0  0  0
    1.3492   -1.0063    4.4322 H   0  0  0  0  0  0  0  0  0  0  0  0
    0.4879    0.5101    4.1718 H   0  0  0  0  0  0  0  0  0  0  0  0
   -0.4012   -1.0173    4.1805 H   0  0  0  0  0  0  0  0  0  0  0  0
    7.8469    2.2944    7.5487 H   0  0  0  0  0  0  0  0  0  0  0  0
    6.2135    2.8183    7.1029 H   0  0  0  0  0  0  0  0  0  0  0  0
    8.6665    2.8132    5.2726 H   0  0  0  0  0  0  0  0  0  0  0  0
    7.0526    3.3229    4.7773 H   0  0  0  0  0  0  0  0  0  0  0  0
    7.9299    4.2418    6.0048 H   0  0  0  0  0  0  0  0  0  0  0  0
    3.9529    1.2088    4.4945 H   0  0  0  0  0  0  0  0  0  0  0  0
    4.7859    2.5515    5.3069 H   0  0  0  0  0  0  0  0  0  0  0  0
    3.1693    0.3390    6.6658 H   0  0  0  0  0  0  0  0  0  0  0  0
    2.6415    2.0114    6.4490 H   0  0  0  0  0  0  0  0  0  0  0  0
    3.9946    1.6428    7.5222 H   0  0  0  0  0  0  0  0  0  0  0  0
    9.8439    0.3652    6.9928 H   0  0  0  0  0  0  0  0  0  0  0  0
   12.2973    0.4237    7.7960 H   0  0  0  0  0  0  0  0  0  0  0  0
  1  2  2  0  0  0  0
  2  3  1  0  0  0  0
  3  4  2  0  0  0  0
  3  5  1  0  0  0  0
  5  6  2  0  0  0  0
  6  7  1  0  0  0  0
  7  8  2  0  0  0  0
  8  9  1  0  0  0  0
  8 10  1  0  0  0  0
 10 11  2  0  0  0  0
 11 12  1  0  0  0  0
 12 13  2  0  0  0  0
 13 14  1  0  0  0  0
 14 15  3  0  0  0  0
 13 16  1  0  0  0  0
 16 17  3  0  0  0  0
  1 18  1  0  0  0  0
 18 19  2  0  0  0  0
 19 20  1  0  0  0  0
 19 21  1  0  0  0  0
 21 22  1  0  0  0  0
 21 23  2  0  0  0  0
 23 24  1  0  0  0  0
 24 25  2  0  0  0  0
 25 26  1  0  0  0  0
 26 27  1  0  0  0  0
 27 28  1  0  0  0  0
 26 29  2  0  0  0  0
 29 30  1  0  0  0  0
 30 31  2  0  0  0  0
 29 32  1  0  0  0  0
 32 33  1  0  0  0  0
 23 34  1  0  0  0  0
 34 35  2  0  0  0  0
 35 36  1  0  0  0  0
 36 37  2  0  0  0  0
 37 38  1  0  0  0  0
 38 39  2  0  0  0  0
 39 40  1  0  0  0  0
 40 41  1  0  0  0  0
 41 42  1  0  0  0  0
 40 43  2  0  0  0  0
 35 44  1  0  0  0  0
 44 45  1  0  0  0  0
 45 46  1  0  0  0  0
 46 47  1  0  0  0  0
 47 48  1  0  0  0  0
 48 49  1  0  0  0  0
 49 50  2  0  0  0  0
 50 51  1  0  0  0  0
 51 52  1  0  0  0  0
 49 53  1  0  0  0  0
 53 54  1  0  0  0  0
 54 55  1  0  0  0  0
 55 56  1  0  0  0  0
 56 57  1  0  0  0  0
 57 58  1  0  0  0  0
 58 59  2  0  0  0  0
 59 60  1  0  0  0  0
 60 61  2  0  0  0  0
 61 62  1  0  0  0  0
 62 63  1  0  0  0  0
 63 64  1  0  0  0  0
 62 65  2  0  0  0  0
 57 66  2  0  0  0  0
 66 67  1  0  0  0  0
 67 68  1  0  0  0  0
 68 69  1  0  0  0  0
 69 70  1  0  0  0  0
 70 71  1  0  0  0  0
 71 72  1  0  0  0  0
 72 73  1  0  0  0  0
 73 74  1  0  0  0  0
 74 75  1  0  0  0  0
 75 76  1  0  0  0  0
 73 77  1  0  0  0  0
 77 78  1  0  0  0  0
 70 79  1  0  0  0  0
 79 80  1  0  0  0  0
 66 81  1  0  0  0  0
 81 82  2  0  0  0  0
 82 83  1  0  0  0  0
 82 84  1  0  0  0  0
 84 85  1  0  0  0  0
 84 86  2  0  0  0  0
 86 87  1  0  0  0  0
 87 88  2  0  0  0  0
 88 89  1  0  0  0  0
 89 90  1  0  0  0  0
 90 91  1  0  0  0  0
 89 92  2  0  0  0  0
 92 93  1  0  0  0  0
 93 94  2  0  0  0  0
 92 95  1  0  0  0  0
 95 96  1  0  0  0  0
 86 97  1  0  0  0  0
 97 98  2  0  0  0  0
 98 99  1  0  0  0  0
 99100  2  0  0  0  0
100101  1  0  0  0  0
101102  2  0  0  0  0
102103  1  0  0  0  0
103104  3  0  0  0  0
102105  1  0  0  0  0
105106  3  0  0  0  0
101107  1  0  0  0  0
107108  3  0  0  0  0
100109  1  0  0  0  0
 12  2  1  0  0  0  0
 31 18  1  0  0  0  0
 76 34  1  0  0  0  0
 94 81  1  0  0  0  0
109 97  1  0  0  0  0
 11  5  1  0  0  0  0
 31 24  1  0  0  0  0
 43 36  1  0  0  0  0
 75 44  2  0  0  0  0
 94 87  1  0  0  0  0
 74 46  2  0  0  0  0
 72 47  2  0  0  0  0
 52 48  2  0  0  0  0
 71 53  2  0  0  0  0
 69 54  2  0  0  0  0
 68 56  2  0  0  0  0
 65 58  1  0  0  0  0
  1110  1  0  0  0  0
  6111  1  0  0  0  0
  7112  1  0  0  0  0
 10113  1  0  0  0  0
 27114  1  0  0  0  0
 27115  1  0  0  0  0
 28116  1  0  0  0  0
 28117  1  0  0  0  0
 28118  1  0  0  0  0
 32119  1  0  0  0  0
 32120  1  0  0  0  0
 33121  1  0  0  0  0
 33122  1  0  0  0  0
 33123  1  0  0  0  0
 37124  1  0  0  0  0
 38125  1  0  0  0  0
 39126  1  0  0  0  0
 41127  1  0  0  0  0
 41128  1  0  0  0  0
 42129  1  0  0  0  0
 42130  1  0  0  0  0
 42131  1  0  0  0  0
 43132  1  0  0  0  0
 59133  1  0  0  0  0
 60134  1  0  0  0  0
 61135  1  0  0  0  0
 63136  1  0  0  0  0
 63137  1  0  0  0  0
 64138  1  0  0  0  0
 64139  1  0  0  0  0
 64140  1  0  0  0  0
 65141  1  0  0  0  0
 77142  1  0  0  0  0
 77143  1  0  0  0  0
 78144  1  0  0  0  0
 78145  1  0  0  0  0
 78146  1  0  0  0  0
 79147  1  0  0  0  0
 79148  1  0  0  0  0
 80149  1  0  0  0  0
 80150  1  0  0  0  0
 80151  1  0  0  0  0
 90152  1  0  0  0  0
 90153  1  0  0  0  0
 91154  1  0  0  0  0
 91155  1  0  0  0  0
 91156  1  0  0  0  0
 95157  1  0  0  0  0
 95158  1  0  0  0  0
 96159  1  0  0  0  0
 96160  1  0  0  0  0
 96161  1  0  0  0  0
 98162  1  0  0  0  0
 99163  1  0  0  0  0
M  END
