159

C          3.23750      -10.86330        2.33650
C          4.22110      -11.54150        1.68410
C          4.51620      -11.51380        0.22690
O          4.10720      -10.74380       -0.61430
C          5.37800      -12.68900       -0.01740
C          5.87960      -13.15330       -1.21920
C          6.67180      -14.28970       -1.21280
C          6.94100      -14.93890       -0.01240
Cl         7.92060      -16.35580       -0.02770
C          6.44270      -14.48300        1.20370
C          5.65490      -13.34390        1.19460
C          4.99950      -12.61700        2.27800
C          5.17220      -12.84500        3.61570
C          4.63920      -12.04400        4.65050
N          4.28250      -11.43030        5.55260
C          5.96180      -13.88860        4.14420
N          6.58180      -14.72170        4.63280
C          2.46120       -9.74260        1.90370
C          1.18090       -9.56180        2.50910
N          0.74430      -10.47000        3.41240
C         -0.39190      -10.25890        3.99890
C         -1.16690       -9.09320        3.72530
O         -2.27340       -8.91390        4.43940
C         -3.03990       -7.73810        4.18740
C         -2.36720       -6.47570        4.70820
N         -0.79760       -8.23510        2.80690
C          0.36740       -8.45870        2.16540
C          0.81850       -7.53300        1.17920
C          2.10260       -7.68550        0.67910
C          2.90480       -8.76460        1.02220
C         -0.02220       -6.43730        0.76520
C         -1.37760       -6.43470        0.49140
C         -2.19960       -7.63820        0.39840
C         -3.54890       -7.60580        0.74490
C         -4.30960       -8.75880        0.68050
C         -3.73950       -9.95230        0.27560
C         -2.40250       -9.99950       -0.10120
C         -1.78450      -11.27500       -0.59830
C         -1.91160      -11.37450       -2.11950
C         -1.65180       -8.83660       -0.05400
C         -1.83670       -5.12570        0.22180
S         -3.40950       -4.46130       -0.15660
C         -2.70830       -2.88200       -0.24320
C         -3.10860       -1.54540       -0.42930
C         -4.37190       -0.91730       -0.51790
C         -4.44490        0.52240       -0.48870
N         -5.69330        0.96120       -0.48800
S         -6.69020       -0.31300       -0.53220
N         -5.56870       -1.48100       -0.54720
C         -3.24960        1.27560       -0.53180
C         -2.97600        2.65380       -0.63250
S         -3.81840        4.16670       -0.58920
C         -2.29760        4.99400       -0.81430
C         -1.96080        6.36470       -0.91330
C         -2.93420        7.43880       -0.67870
C         -3.67710        7.43290        0.49910
C         -4.57580        8.45190        0.75040
C         -4.73820        9.48290       -0.15950
C         -4.01940        9.49130       -1.34700
C         -4.14200       10.62170       -2.32870
C         -3.01410       11.63290       -2.11200
C         -3.13000        8.45710       -1.59930
C         -0.61150        6.52940       -1.10560
S          0.26330        5.00920       -1.14050
C         -1.21010        4.13130       -0.92750
C         -1.59620        2.78870       -0.81350
N         -0.99340        1.55480       -0.80110
C         -1.99320        0.62200       -0.59190
C         -1.92420       -0.76900       -0.36450
N         -0.84570       -1.58930       -0.08650
C         -1.32950       -2.87320       -0.01300
C         -0.83450       -4.15450        0.25850
S          0.70370       -4.84700        0.62450
C          0.34700       -1.21690        0.64700
C          0.18200       -1.48350        2.14310
C          0.24290        1.33100       -1.52370
C          0.10680        1.73530       -2.99140
C          0.19500        7.74340       -1.12430
C          0.14180        8.67400       -2.18890
N         -0.60230        8.40760       -3.29050
C         -0.62050        9.28040       -4.24780
C          0.07550       10.52240       -4.14040
O         -0.07570       11.41090       -5.11260
C          0.62760       12.64370       -4.96270
C          0.32160       13.51260       -6.16810
N          0.84630       10.78160       -3.11280
C          0.92390        9.85460       -2.13540
C          1.84370       10.05400       -1.07320
C          1.90310        9.09820       -0.07100
C          1.08820        7.97490       -0.09220
C          2.65370       11.24270       -1.06820
C          3.92260       11.37390       -0.61980
C          4.48630       12.72330       -0.32530
O          4.03020       13.78930       -0.66470
C          5.67710       12.46480        0.50930
C          6.49560       13.36620        1.16490
C          7.54910       12.87890        1.92110
C          7.76350       11.50700        2.01190
Cl         9.06930       10.92390        2.97040
C          6.95390       10.58800        1.35180
C          5.90510       11.07800        0.59290
C          4.91540       10.38690       -0.23190
C          5.04810        9.12620       -0.74390
C          6.08810        8.24000       -0.39170
N          6.90120        7.47610       -0.12360
C          4.21480        8.58920       -1.74960
N          3.62130        8.11410       -2.60900
H          2.93630      -11.23180        3.31050
H          5.65400      -12.63280       -2.13690
H          7.08240      -14.67890       -2.13090
H          6.66920      -15.01710        2.11170
H         -0.73430      -10.98730        4.71930
H         -3.98420       -7.91790        4.70600
H         -3.21470       -7.65590        3.11060
H         -2.13700       -6.57750        5.76610
H         -3.03530       -5.63040        4.57010
H         -1.44730       -6.29200        4.15950
H          2.47710       -6.95380       -0.02260
H          3.89260       -8.83410        0.59930
H         -3.99950       -6.68170        1.07440
H         -5.35290       -8.72630        0.95840
H         -4.33570      -10.85280        0.24420
H         -2.28200      -12.13070       -0.13730
H         -0.72780      -11.30470       -0.32220
H         -1.45720      -12.29450       -2.47930
H         -1.41450      -10.53240       -2.59540
H         -2.95900      -11.36470       -2.41310
H         -0.62160       -8.86400       -0.37910
H         -3.54020        6.63770        1.21680
H         -5.14990        8.44620        1.66540
H         -5.43520       10.28160        0.05040
H         -4.08350       10.23270       -3.34750
H         -5.10400       11.12280       -2.20670
H         -3.06940       12.05320       -1.11010
H         -2.04520       11.14960       -2.22270
H         -3.08290       12.44350       -2.83400
H         -2.58810        8.42530       -2.53100
H          1.18950       -1.79640        0.25640
H          0.53900       -0.15540        0.50700
H          0.02930       -2.54140        2.33690
H          1.07570       -1.16200        2.67030
H         -0.67150       -0.93060        2.52980
H          1.03780        1.91690       -1.05090
H          0.49210        0.27180       -1.48110
H          1.03200        1.51410       -3.51610
H         -0.09690        2.79810       -3.08580
H         -0.70360        1.18050       -3.45950
H         -1.19270        9.05020       -5.13500
H          1.69960       12.43280       -4.88160
H          0.30530       13.12460       -4.03200
H          0.84440       14.46000       -6.07630
H          0.64270       13.01570       -7.07940
H         -0.74670       13.70040       -6.23350
H          2.56980        9.24970        0.76630
H          1.14780        7.26310        0.71820
H          2.17570       12.14380       -1.43590
H          6.30930       14.42570        1.08270
H          8.20700       13.55420        2.44480
H          7.14650        9.53190        1.44810
