
  xtb     02052210533D
 energy: -283.061835860153 gnorm: 0.000460575285 xtb: 6.4.1 (unknown)
159176  0     0  0            999 V2000
    3.2375  -10.8633    2.3365 C   0  0  0  0  0  0  0  0  0  0  0  0
    4.2211  -11.5415    1.6841 C   0  0  0  0  0  0  0  0  0  0  0  0
    4.5162  -11.5138    0.2269 C   0  0  0  0  0  0  0  0  0  0  0  0
    4.1072  -10.7438   -0.6143 O   0  0  0  0  0  0  0  0  0  0  0  0
    5.3780  -12.6890   -0.0174 C   0  0  0  0  0  0  0  0  0  0  0  0
    5.8796  -13.1533   -1.2192 C   0  0  0  0  0  0  0  0  0  0  0  0
    6.6718  -14.2897   -1.2128 C   0  0  0  0  0  0  0  0  0  0  0  0
    6.9410  -14.9389   -0.0124 C   0  0  0  0  0  0  0  0  0  0  0  0
    7.9206  -16.3558   -0.0277 Cl  0  0  0  0  0  0  0  0  0  0  0  0
    6.4427  -14.4830    1.2037 C   0  0  0  0  0  0  0  0  0  0  0  0
    5.6549  -13.3439    1.1946 C   0  0  0  0  0  0  0  0  0  0  0  0
    4.9995  -12.6170    2.2780 C   0  0  0  0  0  0  0  0  0  0  0  0
    5.1722  -12.8450    3.6157 C   0  0  0  0  0  0  0  0  0  0  0  0
    4.6392  -12.0440    4.6505 C   0  0  0  0  0  0  0  0  0  0  0  0
    4.2825  -11.4303    5.5526 N   0  0  0  0  0  0  0  0  0  0  0  0
    5.9618  -13.8886    4.1442 C   0  0  0  0  0  0  0  0  0  0  0  0
    6.5818  -14.7217    4.6328 N   0  0  0  0  0  0  0  0  0  0  0  0
    2.4612   -9.7426    1.9037 C   0  0  0  0  0  0  0  0  0  0  0  0
    1.1809   -9.5618    2.5091 C   0  0  0  0  0  0  0  0  0  0  0  0
    0.7443  -10.4700    3.4124 N   0  0  0  0  0  0  0  0  0  0  0  0
   -0.3919  -10.2589    3.9989 C   0  0  0  0  0  0  0  0  0  0  0  0
   -1.1669   -9.0932    3.7253 C   0  0  0  0  0  0  0  0  0  0  0  0
   -2.2734   -8.9139    4.4394 O   0  0  0  0  0  0  0  0  0  0  0  0
   -3.0399   -7.7381    4.1874 C   0  0  0  0  0  0  0  0  0  0  0  0
   -2.3672   -6.4757    4.7082 C   0  0  0  0  0  0  0  0  0  0  0  0
   -0.7976   -8.2351    2.8069 N   0  0  0  0  0  0  0  0  0  0  0  0
    0.3674   -8.4587    2.1654 C   0  0  0  0  0  0  0  0  0  0  0  0
    0.8185   -7.5330    1.1792 C   0  0  0  0  0  0  0  0  0  0  0  0
    2.1026   -7.6855    0.6791 C   0  0  0  0  0  0  0  0  0  0  0  0
    2.9048   -8.7646    1.0222 C   0  0  0  0  0  0  0  0  0  0  0  0
   -0.0222   -6.4373    0.7652 C   0  0  0  0  0  0  0  0  0  0  0  0
   -1.3776   -6.4347    0.4914 C   0  0  0  0  0  0  0  0  0  0  0  0
   -2.1996   -7.6382    0.3984 C   0  0  0  0  0  0  0  0  0  0  0  0
   -3.5489   -7.6058    0.7449 C   0  0  0  0  0  0  0  0  0  0  0  0
   -4.3096   -8.7588    0.6805 C   0  0  0  0  0  0  0  0  0  0  0  0
   -3.7395   -9.9523    0.2756 C   0  0  0  0  0  0  0  0  0  0  0  0
   -2.4025   -9.9995   -0.1012 C   0  0  0  0  0  0  0  0  0  0  0  0
   -1.7845  -11.2750   -0.5983 C   0  0  0  0  0  0  0  0  0  0  0  0
   -1.9116  -11.3745   -2.1195 C   0  0  0  0  0  0  0  0  0  0  0  0
   -1.6518   -8.8366   -0.0540 C   0  0  0  0  0  0  0  0  0  0  0  0
   -1.8367   -5.1257    0.2218 C   0  0  0  0  0  0  0  0  0  0  0  0
   -3.4095   -4.4613   -0.1566 S   0  0  0  0  0  0  0  0  0  0  0  0
   -2.7083   -2.8820   -0.2432 C   0  0  0  0  0  0  0  0  0  0  0  0
   -3.1086   -1.5454   -0.4293 C   0  0  0  0  0  0  0  0  0  0  0  0
   -4.3719   -0.9173   -0.5179 C   0  0  0  0  0  0  0  0  0  0  0  0
   -4.4449    0.5224   -0.4887 C   0  0  0  0  0  0  0  0  0  0  0  0
   -5.6933    0.9612   -0.4880 N   0  0  0  0  0  0  0  0  0  0  0  0
   -6.6902   -0.3130   -0.5322 S   0  0  0  0  0  0  0  0  0  0  0  0
   -5.5687   -1.4810   -0.5472 N   0  0  0  0  0  0  0  0  0  0  0  0
   -3.2496    1.2756   -0.5318 C   0  0  0  0  0  0  0  0  0  0  0  0
   -2.9760    2.6538   -0.6325 C   0  0  0  0  0  0  0  0  0  0  0  0
   -3.8184    4.1667   -0.5892 S   0  0  0  0  0  0  0  0  0  0  0  0
   -2.2976    4.9940   -0.8143 C   0  0  0  0  0  0  0  0  0  0  0  0
   -1.9608    6.3647   -0.9133 C   0  0  0  0  0  0  0  0  0  0  0  0
   -2.9342    7.4388   -0.6787 C   0  0  0  0  0  0  0  0  0  0  0  0
   -3.6771    7.4329    0.4991 C   0  0  0  0  0  0  0  0  0  0  0  0
   -4.5758    8.4519    0.7504 C   0  0  0  0  0  0  0  0  0  0  0  0
   -4.7382    9.4829   -0.1595 C   0  0  0  0  0  0  0  0  0  0  0  0
   -4.0194    9.4913   -1.3470 C   0  0  0  0  0  0  0  0  0  0  0  0
   -4.1420   10.6217   -2.3287 C   0  0  0  0  0  0  0  0  0  0  0  0
   -3.0141   11.6329   -2.1120 C   0  0  0  0  0  0  0  0  0  0  0  0
   -3.1300    8.4571   -1.5993 C   0  0  0  0  0  0  0  0  0  0  0  0
   -0.6115    6.5294   -1.1056 C   0  0  0  0  0  0  0  0  0  0  0  0
    0.2633    5.0092   -1.1405 S   0  0  0  0  0  0  0  0  0  0  0  0
   -1.2101    4.1313   -0.9275 C   0  0  0  0  0  0  0  0  0  0  0  0
   -1.5962    2.7887   -0.8135 C   0  0  0  0  0  0  0  0  0  0  0  0
   -0.9934    1.5548   -0.8011 N   0  0  0  0  0  0  0  0  0  0  0  0
   -1.9932    0.6220   -0.5919 C   0  0  0  0  0  0  0  0  0  0  0  0
   -1.9242   -0.7690   -0.3645 C   0  0  0  0  0  0  0  0  0  0  0  0
   -0.8457   -1.5893   -0.0865 N   0  0  0  0  0  0  0  0  0  0  0  0
   -1.3295   -2.8732   -0.0130 C   0  0  0  0  0  0  0  0  0  0  0  0
   -0.8345   -4.1545    0.2585 C   0  0  0  0  0  0  0  0  0  0  0  0
    0.7037   -4.8470    0.6245 S   0  0  0  0  0  0  0  0  0  0  0  0
    0.3470   -1.2169    0.6470 C   0  0  0  0  0  0  0  0  0  0  0  0
    0.1820   -1.4835    2.1431 C   0  0  0  0  0  0  0  0  0  0  0  0
    0.2429    1.3310   -1.5237 C   0  0  0  0  0  0  0  0  0  0  0  0
    0.1068    1.7353   -2.9914 C   0  0  0  0  0  0  0  0  0  0  0  0
    0.1950    7.7434   -1.1243 C   0  0  0  0  0  0  0  0  0  0  0  0
    0.1418    8.6740   -2.1889 C   0  0  0  0  0  0  0  0  0  0  0  0
   -0.6023    8.4076   -3.2905 N   0  0  0  0  0  0  0  0  0  0  0  0
   -0.6205    9.2804   -4.2478 C   0  0  0  0  0  0  0  0  0  0  0  0
    0.0755   10.5224   -4.1404 C   0  0  0  0  0  0  0  0  0  0  0  0
   -0.0757   11.4109   -5.1126 O   0  0  0  0  0  0  0  0  0  0  0  0
    0.6276   12.6437   -4.9627 C   0  0  0  0  0  0  0  0  0  0  0  0
    0.3216   13.5126   -6.1681 C   0  0  0  0  0  0  0  0  0  0  0  0
    0.8463   10.7816   -3.1128 N   0  0  0  0  0  0  0  0  0  0  0  0
    0.9239    9.8546   -2.1354 C   0  0  0  0  0  0  0  0  0  0  0  0
    1.8437   10.0540   -1.0732 C   0  0  0  0  0  0  0  0  0  0  0  0
    1.9031    9.0982   -0.0710 C   0  0  0  0  0  0  0  0  0  0  0  0
    1.0882    7.9749   -0.0922 C   0  0  0  0  0  0  0  0  0  0  0  0
    2.6537   11.2427   -1.0682 C   0  0  0  0  0  0  0  0  0  0  0  0
    3.9226   11.3739   -0.6198 C   0  0  0  0  0  0  0  0  0  0  0  0
    4.4863   12.7233   -0.3253 C   0  0  0  0  0  0  0  0  0  0  0  0
    4.0302   13.7893   -0.6647 O   0  0  0  0  0  0  0  0  0  0  0  0
    5.6771   12.4648    0.5093 C   0  0  0  0  0  0  0  0  0  0  0  0
    6.4956   13.3662    1.1649 C   0  0  0  0  0  0  0  0  0  0  0  0
    7.5491   12.8789    1.9211 C   0  0  0  0  0  0  0  0  0  0  0  0
    7.7635   11.5070    2.0119 C   0  0  0  0  0  0  0  0  0  0  0  0
    9.0693   10.9239    2.9704 Cl  0  0  0  0  0  0  0  0  0  0  0  0
    6.9539   10.5880    1.3518 C   0  0  0  0  0  0  0  0  0  0  0  0
    5.9051   11.0780    0.5929 C   0  0  0  0  0  0  0  0  0  0  0  0
    4.9154   10.3869   -0.2319 C   0  0  0  0  0  0  0  0  0  0  0  0
    5.0481    9.1262   -0.7439 C   0  0  0  0  0  0  0  0  0  0  0  0
    6.0881    8.2400   -0.3917 C   0  0  0  0  0  0  0  0  0  0  0  0
    6.9012    7.4761   -0.1236 N   0  0  0  0  0  0  0  0  0  0  0  0
    4.2148    8.5892   -1.7496 C   0  0  0  0  0  0  0  0  0  0  0  0
    3.6213    8.1141   -2.6090 N   0  0  0  0  0  0  0  0  0  0  0  0
    2.9363  -11.2318    3.3105 H   0  0  0  0  0  0  0  0  0  0  0  0
    5.6540  -12.6328   -2.1369 H   0  0  0  0  0  0  0  0  0  0  0  0
    7.0824  -14.6789   -2.1309 H   0  0  0  0  0  0  0  0  0  0  0  0
    6.6692  -15.0171    2.1117 H   0  0  0  0  0  0  0  0  0  0  0  0
   -0.7343  -10.9873    4.7193 H   0  0  0  0  0  0  0  0  0  0  0  0
   -3.9842   -7.9179    4.7060 H   0  0  0  0  0  0  0  0  0  0  0  0
   -3.2147   -7.6559    3.1106 H   0  0  0  0  0  0  0  0  0  0  0  0
   -2.1370   -6.5775    5.7661 H   0  0  0  0  0  0  0  0  0  0  0  0
   -3.0353   -5.6304    4.5701 H   0  0  0  0  0  0  0  0  0  0  0  0
   -1.4473   -6.2920    4.1595 H   0  0  0  0  0  0  0  0  0  0  0  0
    2.4771   -6.9538   -0.0226 H   0  0  0  0  0  0  0  0  0  0  0  0
    3.8926   -8.8341    0.5993 H   0  0  0  0  0  0  0  0  0  0  0  0
   -3.9995   -6.6817    1.0744 H   0  0  0  0  0  0  0  0  0  0  0  0
   -5.3529   -8.7263    0.9584 H   0  0  0  0  0  0  0  0  0  0  0  0
   -4.3357  -10.8528    0.2442 H   0  0  0  0  0  0  0  0  0  0  0  0
   -2.2820  -12.1307   -0.1373 H   0  0  0  0  0  0  0  0  0  0  0  0
   -0.7278  -11.3047   -0.3222 H   0  0  0  0  0  0  0  0  0  0  0  0
   -1.4572  -12.2945   -2.4793 H   0  0  0  0  0  0  0  0  0  0  0  0
   -1.4145  -10.5324   -2.5954 H   0  0  0  0  0  0  0  0  0  0  0  0
   -2.9590  -11.3647   -2.4131 H   0  0  0  0  0  0  0  0  0  0  0  0
   -0.6216   -8.8640   -0.3791 H   0  0  0  0  0  0  0  0  0  0  0  0
   -3.5402    6.6377    1.2168 H   0  0  0  0  0  0  0  0  0  0  0  0
   -5.1499    8.4462    1.6654 H   0  0  0  0  0  0  0  0  0  0  0  0
   -5.4352   10.2816    0.0504 H   0  0  0  0  0  0  0  0  0  0  0  0
   -4.0835   10.2327   -3.3475 H   0  0  0  0  0  0  0  0  0  0  0  0
   -5.1040   11.1228   -2.2067 H   0  0  0  0  0  0  0  0  0  0  0  0
   -3.0694   12.0532   -1.1101 H   0  0  0  0  0  0  0  0  0  0  0  0
   -2.0452   11.1496   -2.2227 H   0  0  0  0  0  0  0  0  0  0  0  0
   -3.0829   12.4435   -2.8340 H   0  0  0  0  0  0  0  0  0  0  0  0
   -2.5881    8.4253   -2.5310 H   0  0  0  0  0  0  0  0  0  0  0  0
    1.1895   -1.7964    0.2564 H   0  0  0  0  0  0  0  0  0  0  0  0
    0.5390   -0.1554    0.5070 H   0  0  0  0  0  0  0  0  0  0  0  0
    0.0293   -2.5414    2.3369 H   0  0  0  0  0  0  0  0  0  0  0  0
    1.0757   -1.1620    2.6703 H   0  0  0  0  0  0  0  0  0  0  0  0
   -0.6715   -0.9306    2.5298 H   0  0  0  0  0  0  0  0  0  0  0  0
    1.0378    1.9169   -1.0509 H   0  0  0  0  0  0  0  0  0  0  0  0
    0.4921    0.2718   -1.4811 H   0  0  0  0  0  0  0  0  0  0  0  0
    1.0320    1.5141   -3.5161 H   0  0  0  0  0  0  0  0  0  0  0  0
   -0.0969    2.7981   -3.0858 H   0  0  0  0  0  0  0  0  0  0  0  0
   -0.7036    1.1805   -3.4595 H   0  0  0  0  0  0  0  0  0  0  0  0
   -1.1927    9.0502   -5.1350 H   0  0  0  0  0  0  0  0  0  0  0  0
    1.6996   12.4328   -4.8816 H   0  0  0  0  0  0  0  0  0  0  0  0
    0.3053   13.1246   -4.0320 H   0  0  0  0  0  0  0  0  0  0  0  0
    0.8444   14.4600   -6.0763 H   0  0  0  0  0  0  0  0  0  0  0  0
    0.6427   13.0157   -7.0794 H   0  0  0  0  0  0  0  0  0  0  0  0
   -0.7467   13.7004   -6.2335 H   0  0  0  0  0  0  0  0  0  0  0  0
    2.5698    9.2497    0.7663 H   0  0  0  0  0  0  0  0  0  0  0  0
    1.1478    7.2631    0.7182 H   0  0  0  0  0  0  0  0  0  0  0  0
    2.1757   12.1438   -1.4359 H   0  0  0  0  0  0  0  0  0  0  0  0
    6.3093   14.4257    1.0827 H   0  0  0  0  0  0  0  0  0  0  0  0
    8.2070   13.5542    2.4448 H   0  0  0  0  0  0  0  0  0  0  0  0
    7.1465    9.5319    1.4481 H   0  0  0  0  0  0  0  0  0  0  0  0
  1  2  2  0  0  0  0
  2  3  1  0  0  0  0
  3  4  2  0  0  0  0
  3  5  1  0  0  0  0
  5  6  2  0  0  0  0
  6  7  1  0  0  0  0
  7  8  2  0  0  0  0
  8  9  1  0  0  0  0
  8 10  1  0  0  0  0
 10 11  2  0  0  0  0
 11 12  1  0  0  0  0
 12 13  2  0  0  0  0
 13 14  1  0  0  0  0
 14 15  3  0  0  0  0
 13 16  1  0  0  0  0
 16 17  3  0  0  0  0
  1 18  1  0  0  0  0
 18 19  1  0  0  0  0
 19 20  2  0  0  0  0
 20 21  1  0  0  0  0
 21 22  2  0  0  0  0
 22 23  1  0  0  0  0
 23 24  1  0  0  0  0
 24 25  1  0  0  0  0
 22 26  1  0  0  0  0
 26 27  2  0  0  0  0
 27 28  1  0  0  0  0
 28 29  2  0  0  0  0
 29 30  1  0  0  0  0
 28 31  1  0  0  0  0
 31 32  2  0  0  0  0
 32 33  1  0  0  0  0
 33 34  2  0  0  0  0
 34 35  1  0  0  0  0
 35 36  2  0  0  0  0
 36 37  1  0  0  0  0
 37 38  1  0  0  0  0
 38 39  1  0  0  0  0
 37 40  2  0  0  0  0
 32 41  1  0  0  0  0
 41 42  1  0  0  0  0
 42 43  1  0  0  0  0
 43 44  1  0  0  0  0
 44 45  1  0  0  0  0
 45 46  1  0  0  0  0
 46 47  2  0  0  0  0
 47 48  1  0  0  0  0
 48 49  1  0  0  0  0
 46 50  1  0  0  0  0
 50 51  1  0  0  0  0
 51 52  1  0  0  0  0
 52 53  1  0  0  0  0
 53 54  1  0  0  0  0
 54 55  1  0  0  0  0
 55 56  2  0  0  0  0
 56 57  1  0  0  0  0
 57 58  2  0  0  0  0
 58 59  1  0  0  0  0
 59 60  1  0  0  0  0
 60 61  1  0  0  0  0
 59 62  2  0  0  0  0
 54 63  2  0  0  0  0
 63 64  1  0  0  0  0
 64 65  1  0  0  0  0
 65 66  1  0  0  0  0
 66 67  1  0  0  0  0
 67 68  1  0  0  0  0
 68 69  1  0  0  0  0
 69 70  1  0  0  0  0
 70 71  1  0  0  0  0
 71 72  1  0  0  0  0
 72 73  1  0  0  0  0
 70 74  1  0  0  0  0
 74 75  1  0  0  0  0
 67 76  1  0  0  0  0
 76 77  1  0  0  0  0
 63 78  1  0  0  0  0
 78 79  1  0  0  0  0
 79 80  2  0  0  0  0
 80 81  1  0  0  0  0
 81 82  2  0  0  0  0
 82 83  1  0  0  0  0
 83 84  1  0  0  0  0
 84 85  1  0  0  0  0
 82 86  1  0  0  0  0
 86 87  2  0  0  0  0
 87 88  1  0  0  0  0
 88 89  2  0  0  0  0
 89 90  1  0  0  0  0
 88 91  1  0  0  0  0
 91 92  2  0  0  0  0
 92 93  1  0  0  0  0
 93 94  2  0  0  0  0
 93 95  1  0  0  0  0
 95 96  2  0  0  0  0
 96 97  1  0  0  0  0
 97 98  2  0  0  0  0
 98 99  1  0  0  0  0
 98100  1  0  0  0  0
100101  2  0  0  0  0
101102  1  0  0  0  0
102103  2  0  0  0  0
103104  1  0  0  0  0
104105  3  0  0  0  0
103106  1  0  0  0  0
106107  3  0  0  0  0
 12  2  1  0  0  0  0
 30 18  2  0  0  0  0
 73 31  1  0  0  0  0
 90 78  2  0  0  0  0
102 92  1  0  0  0  0
 11  5  1  0  0  0  0
 27 19  1  0  0  0  0
 40 33  1  0  0  0  0
 72 41  2  0  0  0  0
 87 79  1  0  0  0  0
101 95  1  0  0  0  0
 71 43  2  0  0  0  0
 69 44  2  0  0  0  0
 49 45  2  0  0  0  0
 68 50  2  0  0  0  0
 66 51  2  0  0  0  0
 65 53  2  0  0  0  0
 62 55  1  0  0  0  0
  1108  1  0  0  0  0
  6109  1  0  0  0  0
  7110  1  0  0  0  0
 10111  1  0  0  0  0
 21112  1  0  0  0  0
 24113  1  0  0  0  0
 24114  1  0  0  0  0
 25115  1  0  0  0  0
 25116  1  0  0  0  0
 25117  1  0  0  0  0
 29118  1  0  0  0  0
 30119  1  0  0  0  0
 34120  1  0  0  0  0
 35121  1  0  0  0  0
 36122  1  0  0  0  0
 38123  1  0  0  0  0
 38124  1  0  0  0  0
 39125  1  0  0  0  0
 39126  1  0  0  0  0
 39127  1  0  0  0  0
 40128  1  0  0  0  0
 56129  1  0  0  0  0
 57130  1  0  0  0  0
 58131  1  0  0  0  0
 60132  1  0  0  0  0
 60133  1  0  0  0  0
 61134  1  0  0  0  0
 61135  1  0  0  0  0
 61136  1  0  0  0  0
 62137  1  0  0  0  0
 74138  1  0  0  0  0
 74139  1  0  0  0  0
 75140  1  0  0  0  0
 75141  1  0  0  0  0
 75142  1  0  0  0  0
 76143  1  0  0  0  0
 76144  1  0  0  0  0
 77145  1  0  0  0  0
 77146  1  0  0  0  0
 77147  1  0  0  0  0
 81148  1  0  0  0  0
 84149  1  0  0  0  0
 84150  1  0  0  0  0
 85151  1  0  0  0  0
 85152  1  0  0  0  0
 85153  1  0  0  0  0
 89154  1  0  0  0  0
 90155  1  0  0  0  0
 91156  1  0  0  0  0
 96157  1  0  0  0  0
 97158  1  0  0  0  0
100159  1  0  0  0  0
M  END
