
  xtb     02042216303D
 energy: -300.665093617538 gnorm: 0.000251445733 xtb: 6.4.1 (unknown)
177196  0     0  0            999 V2000
    5.5966   -1.5539    9.6524 C   0  0  0  0  0  0  0  0  0  0  0  0
    6.9185   -1.2517    9.7953 C   0  0  0  0  0  0  0  0  0  0  0  0
    7.7065   -0.3925    8.8763 C   0  0  0  0  0  0  0  0  0  0  0  0
    7.3068    0.2919    7.9588 O   0  0  0  0  0  0  0  0  0  0  0  0
    9.1191   -0.6196    9.2481 C   0  0  0  0  0  0  0  0  0  0  0  0
   10.2575   -0.0813    8.6790 C   0  0  0  0  0  0  0  0  0  0  0  0
   11.4926   -0.4535    9.1851 C   0  0  0  0  0  0  0  0  0  0  0  0
   11.5641   -1.3577   10.2388 C   0  0  0  0  0  0  0  0  0  0  0  0
   13.1098   -1.8161   10.8467 Cl  0  0  0  0  0  0  0  0  0  0  0  0
   10.4263   -1.9089   10.8201 C   0  0  0  0  0  0  0  0  0  0  0  0
    9.1936   -1.5299   10.3163 C   0  0  0  0  0  0  0  0  0  0  0  0
    7.8367   -1.9096   10.7042 C   0  0  0  0  0  0  0  0  0  0  0  0
    7.4953   -2.6768   11.7859 C   0  0  0  0  0  0  0  0  0  0  0  0
    6.1720   -2.9222   12.2121 C   0  0  0  0  0  0  0  0  0  0  0  0
    5.1291   -3.1386   12.6410 N   0  0  0  0  0  0  0  0  0  0  0  0
    8.4278   -3.2935   12.6461 C   0  0  0  0  0  0  0  0  0  0  0  0
    9.1362   -3.8264   13.3754 N   0  0  0  0  0  0  0  0  0  0  0  0
    4.6359   -0.8826    8.8381 C   0  0  0  0  0  0  0  0  0  0  0  0
    4.5632    0.5174    8.6732 C   0  0  0  0  0  0  0  0  0  0  0  0
    5.3227    1.5257    9.3210 C   0  0  0  0  0  0  0  0  0  0  0  0
    5.0168    2.7824    8.9166 C   0  0  0  0  0  0  0  0  0  0  0  0
    5.6692    4.0553    9.3254 C   0  0  0  0  0  0  0  0  0  0  0  0
    6.6930    4.4889    8.2730 C   0  0  0  0  0  0  0  0  0  0  0  0
    3.7532    2.8054    7.7230 S   0  0  0  0  0  0  0  0  0  0  0  0
    3.5966    1.0743    7.8067 C   0  0  0  0  0  0  0  0  0  0  0  0
    2.6482    0.3162    7.1250 C   0  0  0  0  0  0  0  0  0  0  0  0
    2.6880   -1.0766    7.3206 C   0  0  0  0  0  0  0  0  0  0  0  0
    3.6551   -1.6357    8.1774 C   0  0  0  0  0  0  0  0  0  0  0  0
    3.5038   -3.3627    8.2549 S   0  0  0  0  0  0  0  0  0  0  0  0
    2.1179   -3.3281    7.1884 C   0  0  0  0  0  0  0  0  0  0  0  0
    1.4536   -4.6044    6.8071 C   0  0  0  0  0  0  0  0  0  0  0  0
    2.3365   -5.4240    5.8638 C   0  0  0  0  0  0  0  0  0  0  0  0
    1.8193   -2.0738    6.7857 C   0  0  0  0  0  0  0  0  0  0  0  0
    1.6504    0.9363    6.2748 C   0  0  0  0  0  0  0  0  0  0  0  0
    0.8021    1.9760    6.5896 C   0  0  0  0  0  0  0  0  0  0  0  0
    0.6895    2.5610    7.9252 C   0  0  0  0  0  0  0  0  0  0  0  0
    0.5203    3.9342    8.0810 C   0  0  0  0  0  0  0  0  0  0  0  0
    0.4724    4.4807    9.3487 C   0  0  0  0  0  0  0  0  0  0  0  0
    0.5977    3.6728   10.4659 C   0  0  0  0  0  0  0  0  0  0  0  0
    0.7413    2.2981   10.3296 C   0  0  0  0  0  0  0  0  0  0  0  0
    0.9176    1.4068   11.5256 C   0  0  0  0  0  0  0  0  0  0  0  0
    2.3822    0.9879   11.6691 C   0  0  0  0  0  0  0  0  0  0  0  0
    0.7714    1.7538    9.0553 C   0  0  0  0  0  0  0  0  0  0  0  0
    0.0158    2.3480    5.4756 C   0  0  0  0  0  0  0  0  0  0  0  0
   -1.2447    3.5357    5.2455 S   0  0  0  0  0  0  0  0  0  0  0  0
   -1.4359    2.9931    3.6118 C   0  0  0  0  0  0  0  0  0  0  0  0
   -2.2480    3.2443    2.4877 C   0  0  0  0  0  0  0  0  0  0  0  0
   -3.3993    4.0375    2.2788 C   0  0  0  0  0  0  0  0  0  0  0  0
   -4.1323    3.9058    1.0433 C   0  0  0  0  0  0  0  0  0  0  0  0
   -5.2303    4.6445    1.0306 N   0  0  0  0  0  0  0  0  0  0  0  0
   -5.3334    5.4435    2.4344 S   0  0  0  0  0  0  0  0  0  0  0  0
   -3.9820    4.8755    3.1211 N   0  0  0  0  0  0  0  0  0  0  0  0
   -3.6039    3.1024    0.0074 C   0  0  0  0  0  0  0  0  0  0  0  0
   -3.9965    2.8434   -1.3214 C   0  0  0  0  0  0  0  0  0  0  0  0
   -5.3270    3.1528   -2.3864 S   0  0  0  0  0  0  0  0  0  0  0  0
   -4.5180    2.2421   -3.6392 C   0  0  0  0  0  0  0  0  0  0  0  0
   -4.8640    1.9017   -4.9683 C   0  0  0  0  0  0  0  0  0  0  0  0
   -6.0970    2.3083   -5.6420 C   0  0  0  0  0  0  0  0  0  0  0  0
   -7.3023    2.3226   -4.9453 C   0  0  0  0  0  0  0  0  0  0  0  0
   -8.4744    2.6437   -5.6026 C   0  0  0  0  0  0  0  0  0  0  0  0
   -8.4587    2.9506   -6.9515 C   0  0  0  0  0  0  0  0  0  0  0  0
   -7.2624    2.9601   -7.6588 C   0  0  0  0  0  0  0  0  0  0  0  0
   -7.2335    3.3393   -9.1115 C   0  0  0  0  0  0  0  0  0  0  0  0
   -7.0796    4.8534   -9.2667 C   0  0  0  0  0  0  0  0  0  0  0  0
   -6.0885    2.6508   -6.9913 C   0  0  0  0  0  0  0  0  0  0  0  0
   -3.8722    1.1522   -5.5616 C   0  0  0  0  0  0  0  0  0  0  0  0
   -2.4991    0.8757   -4.5074 S   0  0  0  0  0  0  0  0  0  0  0  0
   -3.2740    1.7574   -3.2408 C   0  0  0  0  0  0  0  0  0  0  0  0
   -2.9793    2.0899   -1.9126 C   0  0  0  0  0  0  0  0  0  0  0  0
   -1.9778    1.8473   -1.0048 N   0  0  0  0  0  0  0  0  0  0  0  0
   -2.3696    2.4301    0.1869 C   0  0  0  0  0  0  0  0  0  0  0  0
   -1.7916    2.3685    1.4717 C   0  0  0  0  0  0  0  0  0  0  0  0
   -0.7760    1.5691    1.9658 N   0  0  0  0  0  0  0  0  0  0  0  0
   -0.5653    1.9562    3.2670 C   0  0  0  0  0  0  0  0  0  0  0  0
    0.2592    1.5836    4.3355 C   0  0  0  0  0  0  0  0  0  0  0  0
    1.4809    0.3955    4.6161 S   0  0  0  0  0  0  0  0  0  0  0  0
   -0.4853    0.2089    1.5603 C   0  0  0  0  0  0  0  0  0  0  0  0
   -1.2762   -0.7977    2.3959 C   0  0  0  0  0  0  0  0  0  0  0  0
   -0.6122    1.6476   -1.4460 C   0  0  0  0  0  0  0  0  0  0  0  0
   -0.1456    2.7949   -2.3418 C   0  0  0  0  0  0  0  0  0  0  0  0
   -3.8846    0.5085   -6.8622 C   0  0  0  0  0  0  0  0  0  0  0  0
   -2.8324    0.6708   -7.7797 C   0  0  0  0  0  0  0  0  0  0  0  0
   -1.6712    1.4915   -7.6631 C   0  0  0  0  0  0  0  0  0  0  0  0
   -0.8506    1.4290   -8.7341 C   0  0  0  0  0  0  0  0  0  0  0  0
    0.4194    2.1688   -8.9717 C   0  0  0  0  0  0  0  0  0  0  0  0
    0.2501    3.2223  -10.0680 C   0  0  0  0  0  0  0  0  0  0  0  0
   -1.4576    0.3431   -9.9649 S   0  0  0  0  0  0  0  0  0  0  0  0
   -2.8708   -0.0034   -9.0160 C   0  0  0  0  0  0  0  0  0  0  0  0
   -3.8990   -0.8749   -9.3888 C   0  0  0  0  0  0  0  0  0  0  0  0
   -4.9832   -0.9809   -8.4960 C   0  0  0  0  0  0  0  0  0  0  0  0
   -4.9381   -0.3131   -7.2527 C   0  0  0  0  0  0  0  0  0  0  0  0
   -6.3541   -0.6607   -6.3042 S   0  0  0  0  0  0  0  0  0  0  0  0
   -7.0455   -1.5805   -7.6107 C   0  0  0  0  0  0  0  0  0  0  0  0
   -8.4294   -2.1088   -7.4705 C   0  0  0  0  0  0  0  0  0  0  0  0
   -9.4456   -0.9642   -7.4927 C   0  0  0  0  0  0  0  0  0  0  0  0
   -6.2189   -1.6581   -8.6794 C   0  0  0  0  0  0  0  0  0  0  0  0
   -3.8159   -1.5784  -10.6357 C   0  0  0  0  0  0  0  0  0  0  0  0
   -4.1402   -2.8801  -10.8464 C   0  0  0  0  0  0  0  0  0  0  0  0
   -4.3167   -3.8958   -9.7779 C   0  0  0  0  0  0  0  0  0  0  0  0
   -4.4321   -3.7227   -8.5843 O   0  0  0  0  0  0  0  0  0  0  0  0
   -4.2099   -5.2003  -10.4660 C   0  0  0  0  0  0  0  0  0  0  0  0
   -4.2250   -6.4595   -9.9013 C   0  0  0  0  0  0  0  0  0  0  0  0
   -4.0456   -7.5472  -10.7435 C   0  0  0  0  0  0  0  0  0  0  0  0
   -3.8188   -7.3718  -12.0978 C   0  0  0  0  0  0  0  0  0  0  0  0
   -3.7899   -6.0988  -12.6770 C   0  0  0  0  0  0  0  0  0  0  0  0
   -3.5020   -5.8503  -13.9663 O   0  0  0  0  0  0  0  0  0  0  0  0
   -3.3245   -6.9164  -14.8705 C   0  0  0  0  0  0  0  0  0  0  0  0
   -4.0325   -4.9976  -11.8445 C   0  0  0  0  0  0  0  0  0  0  0  0
   -4.1144   -3.5733  -12.1285 C   0  0  0  0  0  0  0  0  0  0  0  0
   -4.3127   -2.9589  -13.3353 C   0  0  0  0  0  0  0  0  0  0  0  0
   -4.5029   -1.5640  -13.4660 C   0  0  0  0  0  0  0  0  0  0  0  0
   -4.6914   -0.4460  -13.6483 N   0  0  0  0  0  0  0  0  0  0  0  0
   -4.4830   -3.5720  -14.5958 C   0  0  0  0  0  0  0  0  0  0  0  0
   -4.6884   -3.9337  -15.6660 N   0  0  0  0  0  0  0  0  0  0  0  0
    5.2246   -2.4492   10.1403 H   0  0  0  0  0  0  0  0  0  0  0  0
   10.1749    0.6150    7.8588 H   0  0  0  0  0  0  0  0  0  0  0  0
   12.4017   -0.0501    8.7680 H   0  0  0  0  0  0  0  0  0  0  0  0
   10.5241   -2.6112   11.6315 H   0  0  0  0  0  0  0  0  0  0  0  0
    6.0556    1.3205   10.0799 H   0  0  0  0  0  0  0  0  0  0  0  0
    4.9146    4.8365    9.4421 H   0  0  0  0  0  0  0  0  0  0  0  0
    6.1692    3.9069   10.2848 H   0  0  0  0  0  0  0  0  0  0  0  0
    6.1975    4.6784    7.3237 H   0  0  0  0  0  0  0  0  0  0  0  0
    7.2003    5.3963    8.5905 H   0  0  0  0  0  0  0  0  0  0  0  0
    7.4310    3.7039    8.1255 H   0  0  0  0  0  0  0  0  0  0  0  0
    1.2475   -5.1920    7.7051 H   0  0  0  0  0  0  0  0  0  0  0  0
    0.5039   -4.3755    6.3194 H   0  0  0  0  0  0  0  0  0  0  0  0
    1.8362   -6.3490    5.5892 H   0  0  0  0  0  0  0  0  0  0  0  0
    2.5486   -4.8595    4.9586 H   0  0  0  0  0  0  0  0  0  0  0  0
    3.2792   -5.6689    6.3479 H   0  0  0  0  0  0  0  0  0  0  0  0
    0.9984   -1.8512    6.1285 H   0  0  0  0  0  0  0  0  0  0  0  0
    0.4514    4.5686    7.2110 H   0  0  0  0  0  0  0  0  0  0  0  0
    0.3466    5.5469    9.4670 H   0  0  0  0  0  0  0  0  0  0  0  0
    0.5761    4.1117   11.4532 H   0  0  0  0  0  0  0  0  0  0  0  0
    0.3005    0.5124   11.4136 H   0  0  0  0  0  0  0  0  0  0  0  0
    0.5998    1.9297   12.4292 H   0  0  0  0  0  0  0  0  0  0  0  0
    3.0190    1.8646   11.7710 H   0  0  0  0  0  0  0  0  0  0  0  0
    2.5152    0.3568   12.5444 H   0  0  0  0  0  0  0  0  0  0  0  0
    2.7078    0.4326   10.7920 H   0  0  0  0  0  0  0  0  0  0  0  0
    0.8575    0.6825    8.9400 H   0  0  0  0  0  0  0  0  0  0  0  0
   -7.3223    2.0543   -3.9006 H   0  0  0  0  0  0  0  0  0  0  0  0
   -9.4088    2.6443   -5.0606 H   0  0  0  0  0  0  0  0  0  0  0  0
   -9.3816    3.1844   -7.4627 H   0  0  0  0  0  0  0  0  0  0  0  0
   -8.1598    3.0210   -9.5941 H   0  0  0  0  0  0  0  0  0  0  0  0
   -6.4004    2.8379   -9.6087 H   0  0  0  0  0  0  0  0  0  0  0  0
   -6.1515    5.1878   -8.8085 H   0  0  0  0  0  0  0  0  0  0  0  0
   -7.0673    5.1286  -10.3186 H   0  0  0  0  0  0  0  0  0  0  0  0
   -7.9052    5.3692   -8.7812 H   0  0  0  0  0  0  0  0  0  0  0  0
   -5.1515    2.6708   -7.5300 H   0  0  0  0  0  0  0  0  0  0  0  0
   -0.7580    0.0762    0.5158 H   0  0  0  0  0  0  0  0  0  0  0  0
    0.5883    0.0339    1.6835 H   0  0  0  0  0  0  0  0  0  0  0  0
   -0.9995   -0.7353    3.4446 H   0  0  0  0  0  0  0  0  0  0  0  0
   -1.0725   -1.8047    2.0425 H   0  0  0  0  0  0  0  0  0  0  0  0
   -2.3427   -0.6029    2.3045 H   0  0  0  0  0  0  0  0  0  0  0  0
    0.0392    1.6072   -0.5741 H   0  0  0  0  0  0  0  0  0  0  0  0
   -0.5530    0.7023   -1.9958 H   0  0  0  0  0  0  0  0  0  0  0  0
    0.8952    2.6429   -2.6142 H   0  0  0  0  0  0  0  0  0  0  0  0
   -0.2357    3.7425   -1.8150 H   0  0  0  0  0  0  0  0  0  0  0  0
   -0.7374    2.8434   -3.2513 H   0  0  0  0  0  0  0  0  0  0  0  0
   -1.4678    2.1064   -6.8049 H   0  0  0  0  0  0  0  0  0  0  0  0
    0.7265    2.6487   -8.0401 H   0  0  0  0  0  0  0  0  0  0  0  0
    1.2009    1.4652   -9.2699 H   0  0  0  0  0  0  0  0  0  0  0  0
   -0.0482    2.7503  -11.0013 H   0  0  0  0  0  0  0  0  0  0  0  0
    1.1857    3.7516  -10.2292 H   0  0  0  0  0  0  0  0  0  0  0  0
   -0.5139    3.9432   -9.7857 H   0  0  0  0  0  0  0  0  0  0  0  0
   -8.5207   -2.6517   -6.5269 H   0  0  0  0  0  0  0  0  0  0  0  0
   -8.6309   -2.8031   -8.2886 H   0  0  0  0  0  0  0  0  0  0  0  0
   -9.3809   -0.4208   -8.4326 H   0  0  0  0  0  0  0  0  0  0  0  0
  -10.4544   -1.3536   -7.3827 H   0  0  0  0  0  0  0  0  0  0  0  0
   -9.2466   -0.2680   -6.6807 H   0  0  0  0  0  0  0  0  0  0  0  0
   -6.4819   -2.1690   -9.5883 H   0  0  0  0  0  0  0  0  0  0  0  0
   -3.3622   -1.0184  -11.4468 H   0  0  0  0  0  0  0  0  0  0  0  0
   -4.3727   -6.5771   -8.8398 H   0  0  0  0  0  0  0  0  0  0  0  0
   -4.0644   -8.5490  -10.3414 H   0  0  0  0  0  0  0  0  0  0  0  0
   -3.6512   -8.2409  -12.7141 H   0  0  0  0  0  0  0  0  0  0  0  0
   -2.4306   -7.4995  -14.6288 H   0  0  0  0  0  0  0  0  0  0  0  0
   -3.2047   -6.4430  -15.8433 H   0  0  0  0  0  0  0  0  0  0  0  0
   -4.2001   -7.5709  -14.8932 H   0  0  0  0  0  0  0  0  0  0  0  0
  1  2  2  0  0  0  0
  2  3  1  0  0  0  0
  3  4  2  0  0  0  0
  3  5  1  0  0  0  0
  5  6  2  0  0  0  0
  6  7  1  0  0  0  0
  7  8  2  0  0  0  0
  8  9  1  0  0  0  0
  8 10  1  0  0  0  0
 10 11  2  0  0  0  0
 11 12  1  0  0  0  0
 12 13  2  0  0  0  0
 13 14  1  0  0  0  0
 14 15  3  0  0  0  0
 13 16  1  0  0  0  0
 16 17  3  0  0  0  0
  1 18  1  0  0  0  0
 18 19  2  0  0  0  0
 19 20  1  0  0  0  0
 20 21  2  0  0  0  0
 21 22  1  0  0  0  0
 22 23  1  0  0  0  0
 21 24  1  0  0  0  0
 24 25  1  0  0  0  0
 25 26  2  0  0  0  0
 26 27  1  0  0  0  0
 27 28  2  0  0  0  0
 28 29  1  0  0  0  0
 29 30  1  0  0  0  0
 30 31  1  0  0  0  0
 31 32  1  0  0  0  0
 30 33  2  0  0  0  0
 26 34  1  0  0  0  0
 34 35  2  0  0  0  0
 35 36  1  0  0  0  0
 36 37  2  0  0  0  0
 37 38  1  0  0  0  0
 38 39  2  0  0  0  0
 39 40  1  0  0  0  0
 40 41  1  0  0  0  0
 41 42  1  0  0  0  0
 40 43  2  0  0  0  0
 35 44  1  0  0  0  0
 44 45  1  0  0  0  0
 45 46  1  0  0  0  0
 46 47  1  0  0  0  0
 47 48  1  0  0  0  0
 48 49  1  0  0  0  0
 49 50  2  0  0  0  0
 50 51  1  0  0  0  0
 51 52  1  0  0  0  0
 49 53  1  0  0  0  0
 53 54  1  0  0  0  0
 54 55  1  0  0  0  0
 55 56  1  0  0  0  0
 56 57  1  0  0  0  0
 57 58  1  0  0  0  0
 58 59  2  0  0  0  0
 59 60  1  0  0  0  0
 60 61  2  0  0  0  0
 61 62  1  0  0  0  0
 62 63  1  0  0  0  0
 63 64  1  0  0  0  0
 62 65  2  0  0  0  0
 57 66  2  0  0  0  0
 66 67  1  0  0  0  0
 67 68  1  0  0  0  0
 68 69  1  0  0  0  0
 69 70  1  0  0  0  0
 70 71  1  0  0  0  0
 71 72  1  0  0  0  0
 72 73  1  0  0  0  0
 73 74  1  0  0  0  0
 74 75  1  0  0  0  0
 75 76  1  0  0  0  0
 73 77  1  0  0  0  0
 77 78  1  0  0  0  0
 70 79  1  0  0  0  0
 79 80  1  0  0  0  0
 66 81  1  0  0  0  0
 81 82  2  0  0  0  0
 82 83  1  0  0  0  0
 83 84  2  0  0  0  0
 84 85  1  0  0  0  0
 85 86  1  0  0  0  0
 84 87  1  0  0  0  0
 87 88  1  0  0  0  0
 88 89  2  0  0  0  0
 89 90  1  0  0  0  0
 90 91  2  0  0  0  0
 91 92  1  0  0  0  0
 92 93  1  0  0  0  0
 93 94  1  0  0  0  0
 94 95  1  0  0  0  0
 93 96  2  0  0  0  0
 89 97  1  0  0  0  0
 97 98  2  0  0  0  0
 98 99  1  0  0  0  0
 99100  2  0  0  0  0
 99101  1  0  0  0  0
101102  2  0  0  0  0
102103  1  0  0  0  0
103104  2  0  0  0  0
104105  1  0  0  0  0
105106  1  0  0  0  0
106107  1  0  0  0  0
105108  2  0  0  0  0
108109  1  0  0  0  0
109110  2  0  0  0  0
110111  1  0  0  0  0
111112  3  0  0  0  0
110113  1  0  0  0  0
113114  3  0  0  0  0
 12  2  1  0  0  0  0
 28 18  1  0  0  0  0
 76 34  1  0  0  0  0
 91 81  1  0  0  0  0
109 98  1  0  0  0  0
 11  5  1  0  0  0  0
 25 19  1  0  0  0  0
 33 27  1  0  0  0  0
 43 36  1  0  0  0  0
 75 44  2  0  0  0  0
 88 82  1  0  0  0  0
 96 90  1  0  0  0  0
108101  1  0  0  0  0
 74 46  2  0  0  0  0
 72 47  2  0  0  0  0
 52 48  2  0  0  0  0
 71 53  2  0  0  0  0
 69 54  2  0  0  0  0
 68 56  2  0  0  0  0
 65 58  1  0  0  0  0
  1115  1  0  0  0  0
  6116  1  0  0  0  0
  7117  1  0  0  0  0
 10118  1  0  0  0  0
 20119  1  0  0  0  0
 22120  1  0  0  0  0
 22121  1  0  0  0  0
 23122  1  0  0  0  0
 23123  1  0  0  0  0
 23124  1  0  0  0  0
 31125  1  0  0  0  0
 31126  1  0  0  0  0
 32127  1  0  0  0  0
 32128  1  0  0  0  0
 32129  1  0  0  0  0
 33130  1  0  0  0  0
 37131  1  0  0  0  0
 38132  1  0  0  0  0
 39133  1  0  0  0  0
 41134  1  0  0  0  0
 41135  1  0  0  0  0
 42136  1  0  0  0  0
 42137  1  0  0  0  0
 42138  1  0  0  0  0
 43139  1  0  0  0  0
 59140  1  0  0  0  0
 60141  1  0  0  0  0
 61142  1  0  0  0  0
 63143  1  0  0  0  0
 63144  1  0  0  0  0
 64145  1  0  0  0  0
 64146  1  0  0  0  0
 64147  1  0  0  0  0
 65148  1  0  0  0  0
 77149  1  0  0  0  0
 77150  1  0  0  0  0
 78151  1  0  0  0  0
 78152  1  0  0  0  0
 78153  1  0  0  0  0
 79154  1  0  0  0  0
 79155  1  0  0  0  0
 80156  1  0  0  0  0
 80157  1  0  0  0  0
 80158  1  0  0  0  0
 83159  1  0  0  0  0
 85160  1  0  0  0  0
 85161  1  0  0  0  0
 86162  1  0  0  0  0
 86163  1  0  0  0  0
 86164  1  0  0  0  0
 94165  1  0  0  0  0
 94166  1  0  0  0  0
 95167  1  0  0  0  0
 95168  1  0  0  0  0
 95169  1  0  0  0  0
 96170  1  0  0  0  0
 97171  1  0  0  0  0
102172  1  0  0  0  0
103173  1  0  0  0  0
104174  1  0  0  0  0
107175  1  0  0  0  0
107176  1  0  0  0  0
107177  1  0  0  0  0
M  END
