
  xtb     02042215313D
 energy: -297.481799796052 gnorm: 0.000256146028 xtb: 6.4.1 (unknown)
173192  0     0  0            999 V2000
    2.8212   -5.9486    9.0426 C   0  0  0  0  0  0  0  0  0  0  0  0
    4.0429   -5.5217    9.4712 C   0  0  0  0  0  0  0  0  0  0  0  0
    4.7112   -4.2708    9.0295 C   0  0  0  0  0  0  0  0  0  0  0  0
    4.2561   -3.3749    8.3515 O   0  0  0  0  0  0  0  0  0  0  0  0
    6.1052   -4.3851    9.5060 C   0  0  0  0  0  0  0  0  0  0  0  0
    7.1513   -3.4998    9.3282 C   0  0  0  0  0  0  0  0  0  0  0  0
    8.3918   -3.8240    9.8534 C   0  0  0  0  0  0  0  0  0  0  0  0
    8.5612   -5.0238   10.5354 C   0  0  0  0  0  0  0  0  0  0  0  0
   10.1139   -5.4132   11.1729 Cl  0  0  0  0  0  0  0  0  0  0  0  0
    7.5175   -5.9256   10.7190 C   0  0  0  0  0  0  0  0  0  0  0  0
    6.2777   -5.5963   10.1975 C   0  0  0  0  0  0  0  0  0  0  0  0
    5.0024   -6.3107   10.2195 C   0  0  0  0  0  0  0  0  0  0  0  0
    4.7494   -7.4770   10.8909 C   0  0  0  0  0  0  0  0  0  0  0  0
    3.4865   -8.1018   10.9770 C   0  0  0  0  0  0  0  0  0  0  0  0
    2.4913   -8.6571   11.1171 N   0  0  0  0  0  0  0  0  0  0  0  0
    5.7185   -8.1991   11.6187 C   0  0  0  0  0  0  0  0  0  0  0  0
    6.4596   -8.8344   12.2227 N   0  0  0  0  0  0  0  0  0  0  0  0
    1.8332   -5.1717    8.3639 C   0  0  0  0  0  0  0  0  0  0  0  0
    1.5153   -3.8331    8.6766 C   0  0  0  0  0  0  0  0  0  0  0  0
    1.9670   -3.0475    9.7700 C   0  0  0  0  0  0  0  0  0  0  0  0
    1.4921   -1.7790    9.7623 C   0  0  0  0  0  0  0  0  0  0  0  0
    1.7105   -0.7018   10.7651 C   0  0  0  0  0  0  0  0  0  0  0  0
    0.4096   -0.3726   11.5012 C   0  0  0  0  0  0  0  0  0  0  0  0
    0.4503   -1.4726    8.4038 S   0  0  0  0  0  0  0  0  0  0  0  0
    0.5997   -3.1216    7.8712 C   0  0  0  0  0  0  0  0  0  0  0  0
   -0.0710   -3.6858    6.7886 C   0  0  0  0  0  0  0  0  0  0  0  0
    0.1804   -5.0447    6.5256 C   0  0  0  0  0  0  0  0  0  0  0  0
    1.1007   -5.7543    7.3207 C   0  0  0  0  0  0  0  0  0  0  0  0
    1.2584   -7.3972    6.7845 S   0  0  0  0  0  0  0  0  0  0  0  0
    0.0525   -7.1487    5.5418 C   0  0  0  0  0  0  0  0  0  0  0  0
   -0.3570   -8.2916    4.6803 C   0  0  0  0  0  0  0  0  0  0  0  0
   -1.1397   -9.3348    5.4799 C   0  0  0  0  0  0  0  0  0  0  0  0
   -0.4103   -5.8796    5.5312 C   0  0  0  0  0  0  0  0  0  0  0  0
   -0.9526   -2.8949    5.9542 C   0  0  0  0  0  0  0  0  0  0  0  0
   -1.9545   -2.0299    6.3369 C   0  0  0  0  0  0  0  0  0  0  0  0
   -2.4573   -1.9044    7.7044 C   0  0  0  0  0  0  0  0  0  0  0  0
   -2.5863   -3.0248    8.5222 C   0  0  0  0  0  0  0  0  0  0  0  0
   -3.0310   -2.8813    9.8217 C   0  0  0  0  0  0  0  0  0  0  0  0
   -3.3559   -1.6295   10.3157 C   0  0  0  0  0  0  0  0  0  0  0  0
   -3.2474   -0.5037    9.5097 C   0  0  0  0  0  0  0  0  0  0  0  0
   -3.6444    0.8533   10.0148 C   0  0  0  0  0  0  0  0  0  0  0  0
   -5.0764    1.1792    9.5862 C   0  0  0  0  0  0  0  0  0  0  0  0
   -2.8022   -0.6539    8.2055 C   0  0  0  0  0  0  0  0  0  0  0  0
   -2.4661   -1.3188    5.2271 C   0  0  0  0  0  0  0  0  0  0  0  0
   -3.6888   -0.0808    5.0667 S   0  0  0  0  0  0  0  0  0  0  0  0
   -3.3599   -0.0009    3.3687 C   0  0  0  0  0  0  0  0  0  0  0  0
   -3.6961    0.7897    2.2559 C   0  0  0  0  0  0  0  0  0  0  0  0
   -4.4565    1.9747    2.1370 C   0  0  0  0  0  0  0  0  0  0  0  0
   -4.3811    2.7341    0.9171 C   0  0  0  0  0  0  0  0  0  0  0  0
   -5.0655    3.8650    0.9845 N   0  0  0  0  0  0  0  0  0  0  0  0
   -5.7549    3.9637    2.4463 S   0  0  0  0  0  0  0  0  0  0  0  0
   -5.1998    2.5700    3.0560 N   0  0  0  0  0  0  0  0  0  0  0  0
   -3.6582    2.2077   -0.1759 C   0  0  0  0  0  0  0  0  0  0  0  0
   -3.4161    2.6845   -1.4786 C   0  0  0  0  0  0  0  0  0  0  0  0
   -3.6817    4.1043   -2.4344 S   0  0  0  0  0  0  0  0  0  0  0  0
   -2.8179    3.3566   -3.7584 C   0  0  0  0  0  0  0  0  0  0  0  0
   -2.4677    3.7903   -5.0584 C   0  0  0  0  0  0  0  0  0  0  0  0
   -2.8485    5.0801   -5.6348 C   0  0  0  0  0  0  0  0  0  0  0  0
   -3.2166    5.1834   -6.9741 C   0  0  0  0  0  0  0  0  0  0  0  0
   -3.5383    6.4157   -7.5079 C   0  0  0  0  0  0  0  0  0  0  0  0
   -3.5001    7.5517   -6.7179 C   0  0  0  0  0  0  0  0  0  0  0  0
   -3.1560    7.4653   -5.3753 C   0  0  0  0  0  0  0  0  0  0  0  0
   -3.0750    8.6950   -4.5172 C   0  0  0  0  0  0  0  0  0  0  0  0
   -1.6426    9.2322   -4.4894 C   0  0  0  0  0  0  0  0  0  0  0  0
   -2.8339    6.2255   -4.8452 C   0  0  0  0  0  0  0  0  0  0  0  0
   -1.7521    2.8213   -5.7282 C   0  0  0  0  0  0  0  0  0  0  0  0
   -1.5315    1.3591   -4.7863 S   0  0  0  0  0  0  0  0  0  0  0  0
   -2.3825    2.0660   -3.4623 C   0  0  0  0  0  0  0  0  0  0  0  0
   -2.7173    1.6854   -2.1570 C   0  0  0  0  0  0  0  0  0  0  0  0
   -2.5066    0.6088   -1.3331 N   0  0  0  0  0  0  0  0  0  0  0  0
   -3.0408    0.9315   -0.0964 C   0  0  0  0  0  0  0  0  0  0  0  0
   -2.9377    0.2918    1.1626 C   0  0  0  0  0  0  0  0  0  0  0  0
   -2.1395   -0.7437    1.6097 N   0  0  0  0  0  0  0  0  0  0  0  0
   -2.3872   -0.9102    2.9463 C   0  0  0  0  0  0  0  0  0  0  0  0
   -1.8702   -1.6582    4.0133 C   0  0  0  0  0  0  0  0  0  0  0  0
   -0.6586   -2.8715    4.2261 S   0  0  0  0  0  0  0  0  0  0  0  0
   -0.9644   -1.3309    1.0060 C   0  0  0  0  0  0  0  0  0  0  0  0
   -1.1420   -2.8240    0.7314 C   0  0  0  0  0  0  0  0  0  0  0  0
   -2.3588   -0.7115   -1.9074 C   0  0  0  0  0  0  0  0  0  0  0  0
   -3.5407   -1.0607   -2.8121 C   0  0  0  0  0  0  0  0  0  0  0  0
   -1.1232    2.8935   -7.0318 C   0  0  0  0  0  0  0  0  0  0  0  0
   -0.2885    3.9651   -7.3924 C   0  0  0  0  0  0  0  0  0  0  0  0
    0.0427    5.1153   -6.6196 C   0  0  0  0  0  0  0  0  0  0  0  0
    0.8045    6.0112   -7.2831 C   0  0  0  0  0  0  0  0  0  0  0  0
    1.3492    7.3049   -6.7883 C   0  0  0  0  0  0  0  0  0  0  0  0
    2.8417    7.1841   -6.4730 C   0  0  0  0  0  0  0  0  0  0  0  0
    1.2053    5.4655   -8.8904 S   0  0  0  0  0  0  0  0  0  0  0  0
    0.3348    3.9870   -8.6604 C   0  0  0  0  0  0  0  0  0  0  0  0
    0.1758    2.9689   -9.6084 C   0  0  0  0  0  0  0  0  0  0  0  0
   -0.7092    1.9209   -9.2593 C   0  0  0  0  0  0  0  0  0  0  0  0
   -1.3046    1.8927   -7.9828 C   0  0  0  0  0  0  0  0  0  0  0  0
   -2.3267    0.4934   -7.7929 S   0  0  0  0  0  0  0  0  0  0  0  0
   -1.9418   -0.0485   -9.4024 C   0  0  0  0  0  0  0  0  0  0  0  0
   -2.5782   -1.2837   -9.9359 C   0  0  0  0  0  0  0  0  0  0  0  0
   -4.0415   -1.0284  -10.3050 C   0  0  0  0  0  0  0  0  0  0  0  0
   -1.0851    0.7894  -10.0346 C   0  0  0  0  0  0  0  0  0  0  0  0
    0.7995    2.9446  -10.8960 C   0  0  0  0  0  0  0  0  0  0  0  0
    2.0794    3.2918  -11.2111 C   0  0  0  0  0  0  0  0  0  0  0  0
    3.1816    3.4821  -10.2387 C   0  0  0  0  0  0  0  0  0  0  0  0
    3.1175    3.4641   -9.0275 O   0  0  0  0  0  0  0  0  0  0  0  0
    4.4066    3.6196  -11.0497 C   0  0  0  0  0  0  0  0  0  0  0  0
    5.7076    3.8052  -10.6227 C   0  0  0  0  0  0  0  0  0  0  0  0
    6.7105    3.9035  -11.5738 C   0  0  0  0  0  0  0  0  0  0  0  0
    6.3932    3.8078  -12.9240 C   0  0  0  0  0  0  0  0  0  0  0  0
    7.6549    3.9255  -14.0918 Cl  0  0  0  0  0  0  0  0  0  0  0  0
    5.0879    3.6174  -13.3671 C   0  0  0  0  0  0  0  0  0  0  0  0
    4.0869    3.5243  -12.4147 C   0  0  0  0  0  0  0  0  0  0  0  0
    2.6439    3.3269  -12.5485 C   0  0  0  0  0  0  0  0  0  0  0  0
    1.9611    3.2359  -13.7318 C   0  0  0  0  0  0  0  0  0  0  0  0
    0.5646    3.0778  -13.8616 C   0  0  0  0  0  0  0  0  0  0  0  0
   -0.5593    2.9491  -14.0610 N   0  0  0  0  0  0  0  0  0  0  0  0
    2.5673    3.2875  -15.0054 C   0  0  0  0  0  0  0  0  0  0  0  0
    2.9932    3.3147  -16.0709 N   0  0  0  0  0  0  0  0  0  0  0  0
    2.5853   -7.0037    9.1339 H   0  0  0  0  0  0  0  0  0  0  0  0
    6.9931   -2.5774    8.7911 H   0  0  0  0  0  0  0  0  0  0  0  0
    9.2301   -3.1556    9.7369 H   0  0  0  0  0  0  0  0  0  0  0  0
    7.6922   -6.8479   11.2480 H   0  0  0  0  0  0  0  0  0  0  0  0
    2.6094   -3.4270   10.5443 H   0  0  0  0  0  0  0  0  0  0  0  0
    2.0741    0.1973   10.2613 H   0  0  0  0  0  0  0  0  0  0  0  0
    2.4715   -1.0274   11.4770 H   0  0  0  0  0  0  0  0  0  0  0  0
   -0.3512   -0.0451   10.7959 H   0  0  0  0  0  0  0  0  0  0  0  0
    0.5781    0.4179   12.2279 H   0  0  0  0  0  0  0  0  0  0  0  0
    0.0370   -1.2520   12.0217 H   0  0  0  0  0  0  0  0  0  0  0  0
    0.5321   -8.7623    4.2529 H   0  0  0  0  0  0  0  0  0  0  0  0
   -0.9721   -7.9126    3.8616 H   0  0  0  0  0  0  0  0  0  0  0  0
   -1.4277  -10.1627    4.8373 H   0  0  0  0  0  0  0  0  0  0  0  0
   -0.5302   -9.7215    6.2934 H   0  0  0  0  0  0  0  0  0  0  0  0
   -2.0391   -8.8920    5.9019 H   0  0  0  0  0  0  0  0  0  0  0  0
   -1.1586   -5.5356    4.8401 H   0  0  0  0  0  0  0  0  0  0  0  0
   -2.3425   -4.0038    8.1360 H   0  0  0  0  0  0  0  0  0  0  0  0
   -3.1253   -3.7517   10.4545 H   0  0  0  0  0  0  0  0  0  0  0  0
   -3.6970   -1.5256   11.3357 H   0  0  0  0  0  0  0  0  0  0  0  0
   -3.5761    0.8798   11.1042 H   0  0  0  0  0  0  0  0  0  0  0  0
   -2.9689    1.6098    9.6098 H   0  0  0  0  0  0  0  0  0  0  0  0
   -5.3674    2.1626    9.9479 H   0  0  0  0  0  0  0  0  0  0  0  0
   -5.7679    0.4421    9.9885 H   0  0  0  0  0  0  0  0  0  0  0  0
   -5.1575    1.1686    8.5017 H   0  0  0  0  0  0  0  0  0  0  0  0
   -2.6931    0.2183    7.5784 H   0  0  0  0  0  0  0  0  0  0  0  0
   -3.2628    4.2970   -7.5889 H   0  0  0  0  0  0  0  0  0  0  0  0
   -3.8224    6.4911   -8.5471 H   0  0  0  0  0  0  0  0  0  0  0  0
   -3.7487    8.5127   -7.1447 H   0  0  0  0  0  0  0  0  0  0  0  0
   -3.3896    8.4560   -3.4995 H   0  0  0  0  0  0  0  0  0  0  0  0
   -3.7408    9.4653   -4.9101 H   0  0  0  0  0  0  0  0  0  0  0  0
   -1.3091    9.4723   -5.4969 H   0  0  0  0  0  0  0  0  0  0  0  0
   -0.9680    8.4879   -4.0715 H   0  0  0  0  0  0  0  0  0  0  0  0
   -1.5846   10.1312   -3.8804 H   0  0  0  0  0  0  0  0  0  0  0  0
   -2.5508    6.1521   -3.8050 H   0  0  0  0  0  0  0  0  0  0  0  0
   -0.7178   -0.7798    0.0985 H   0  0  0  0  0  0  0  0  0  0  0  0
   -0.1314   -1.2061    1.7078 H   0  0  0  0  0  0  0  0  0  0  0  0
   -0.2762   -3.2031    0.1960 H   0  0  0  0  0  0  0  0  0  0  0  0
   -2.0341   -3.0230    0.1417 H   0  0  0  0  0  0  0  0  0  0  0  0
   -1.2319   -3.3675    1.6678 H   0  0  0  0  0  0  0  0  0  0  0  0
   -1.4292   -0.7419   -2.4852 H   0  0  0  0  0  0  0  0  0  0  0  0
   -2.3151   -1.4409   -1.1056 H   0  0  0  0  0  0  0  0  0  0  0  0
   -3.5894   -0.3951   -3.6691 H   0  0  0  0  0  0  0  0  0  0  0  0
   -4.4737   -0.9846   -2.2573 H   0  0  0  0  0  0  0  0  0  0  0  0
   -3.4310   -2.0791   -3.1749 H   0  0  0  0  0  0  0  0  0  0  0  0
   -0.2847    5.2618   -5.6076 H   0  0  0  0  0  0  0  0  0  0  0  0
    1.2033    8.0764   -7.5480 H   0  0  0  0  0  0  0  0  0  0  0  0
    0.8014    7.5973   -5.8904 H   0  0  0  0  0  0  0  0  0  0  0  0
    3.2324    8.1374   -6.1260 H   0  0  0  0  0  0  0  0  0  0  0  0
    3.3902    6.8829   -7.3624 H   0  0  0  0  0  0  0  0  0  0  0  0
    3.0042    6.4366   -5.7001 H   0  0  0  0  0  0  0  0  0  0  0  0
   -2.0281   -1.6128  -10.8196 H   0  0  0  0  0  0  0  0  0  0  0  0
   -2.5305   -2.0748   -9.1836 H   0  0  0  0  0  0  0  0  0  0  0  0
   -4.1094   -0.2544  -11.0659 H   0  0  0  0  0  0  0  0  0  0  0  0
   -4.6005   -0.7046   -9.4298 H   0  0  0  0  0  0  0  0  0  0  0  0
   -4.4950   -1.9373  -10.6914 H   0  0  0  0  0  0  0  0  0  0  0  0
   -0.7341    0.6059  -11.0342 H   0  0  0  0  0  0  0  0  0  0  0  0
    0.1795    2.5469  -11.6894 H   0  0  0  0  0  0  0  0  0  0  0  0
    5.9260    3.8732   -9.5683 H   0  0  0  0  0  0  0  0  0  0  0  0
    7.7368    4.0527  -11.2778 H   0  0  0  0  0  0  0  0  0  0  0  0
    4.8869    3.5445  -14.4230 H   0  0  0  0  0  0  0  0  0  0  0  0
  1  2  2  0  0  0  0
  2  3  1  0  0  0  0
  3  4  2  0  0  0  0
  3  5  1  0  0  0  0
  5  6  2  0  0  0  0
  6  7  1  0  0  0  0
  7  8  2  0  0  0  0
  8  9  1  0  0  0  0
  8 10  1  0  0  0  0
 10 11  2  0  0  0  0
 11 12  1  0  0  0  0
 12 13  2  0  0  0  0
 13 14  1  0  0  0  0
 14 15  3  0  0  0  0
 13 16  1  0  0  0  0
 16 17  3  0  0  0  0
  1 18  1  0  0  0  0
 18 19  2  0  0  0  0
 19 20  1  0  0  0  0
 20 21  2  0  0  0  0
 21 22  1  0  0  0  0
 22 23  1  0  0  0  0
 21 24  1  0  0  0  0
 24 25  1  0  0  0  0
 25 26  2  0  0  0  0
 26 27  1  0  0  0  0
 27 28  2  0  0  0  0
 28 29  1  0  0  0  0
 29 30  1  0  0  0  0
 30 31  1  0  0  0  0
 31 32  1  0  0  0  0
 30 33  2  0  0  0  0
 26 34  1  0  0  0  0
 34 35  2  0  0  0  0
 35 36  1  0  0  0  0
 36 37  2  0  0  0  0
 37 38  1  0  0  0  0
 38 39  2  0  0  0  0
 39 40  1  0  0  0  0
 40 41  1  0  0  0  0
 41 42  1  0  0  0  0
 40 43  2  0  0  0  0
 35 44  1  0  0  0  0
 44 45  1  0  0  0  0
 45 46  1  0  0  0  0
 46 47  1  0  0  0  0
 47 48  1  0  0  0  0
 48 49  1  0  0  0  0
 49 50  2  0  0  0  0
 50 51  1  0  0  0  0
 51 52  1  0  0  0  0
 49 53  1  0  0  0  0
 53 54  1  0  0  0  0
 54 55  1  0  0  0  0
 55 56  1  0  0  0  0
 56 57  1  0  0  0  0
 57 58  1  0  0  0  0
 58 59  2  0  0  0  0
 59 60  1  0  0  0  0
 60 61  2  0  0  0  0
 61 62  1  0  0  0  0
 62 63  1  0  0  0  0
 63 64  1  0  0  0  0
 62 65  2  0  0  0  0
 57 66  2  0  0  0  0
 66 67  1  0  0  0  0
 67 68  1  0  0  0  0
 68 69  1  0  0  0  0
 69 70  1  0  0  0  0
 70 71  1  0  0  0  0
 71 72  1  0  0  0  0
 72 73  1  0  0  0  0
 73 74  1  0  0  0  0
 74 75  1  0  0  0  0
 75 76  1  0  0  0  0
 73 77  1  0  0  0  0
 77 78  1  0  0  0  0
 70 79  1  0  0  0  0
 79 80  1  0  0  0  0
 66 81  1  0  0  0  0
 81 82  2  0  0  0  0
 82 83  1  0  0  0  0
 83 84  2  0  0  0  0
 84 85  1  0  0  0  0
 85 86  1  0  0  0  0
 84 87  1  0  0  0  0
 87 88  1  0  0  0  0
 88 89  2  0  0  0  0
 89 90  1  0  0  0  0
 90 91  2  0  0  0  0
 91 92  1  0  0  0  0
 92 93  1  0  0  0  0
 93 94  1  0  0  0  0
 94 95  1  0  0  0  0
 93 96  2  0  0  0  0
 89 97  1  0  0  0  0
 97 98  2  0  0  0  0
 98 99  1  0  0  0  0
 99100  2  0  0  0  0
 99101  1  0  0  0  0
101102  2  0  0  0  0
102103  1  0  0  0  0
103104  2  0  0  0  0
104105  1  0  0  0  0
104106  1  0  0  0  0
106107  2  0  0  0  0
107108  1  0  0  0  0
108109  2  0  0  0  0
109110  1  0  0  0  0
110111  3  0  0  0  0
109112  1  0  0  0  0
112113  3  0  0  0  0
 12  2  1  0  0  0  0
 28 18  1  0  0  0  0
 76 34  1  0  0  0  0
 91 81  1  0  0  0  0
108 98  1  0  0  0  0
 11  5  1  0  0  0  0
 25 19  1  0  0  0  0
 33 27  1  0  0  0  0
 43 36  1  0  0  0  0
 75 44  2  0  0  0  0
 88 82  1  0  0  0  0
 96 90  1  0  0  0  0
107101  1  0  0  0  0
 74 46  2  0  0  0  0
 72 47  2  0  0  0  0
 52 48  2  0  0  0  0
 71 53  2  0  0  0  0
 69 54  2  0  0  0  0
 68 56  2  0  0  0  0
 65 58  1  0  0  0  0
  1114  1  0  0  0  0
  6115  1  0  0  0  0
  7116  1  0  0  0  0
 10117  1  0  0  0  0
 20118  1  0  0  0  0
 22119  1  0  0  0  0
 22120  1  0  0  0  0
 23121  1  0  0  0  0
 23122  1  0  0  0  0
 23123  1  0  0  0  0
 31124  1  0  0  0  0
 31125  1  0  0  0  0
 32126  1  0  0  0  0
 32127  1  0  0  0  0
 32128  1  0  0  0  0
 33129  1  0  0  0  0
 37130  1  0  0  0  0
 38131  1  0  0  0  0
 39132  1  0  0  0  0
 41133  1  0  0  0  0
 41134  1  0  0  0  0
 42135  1  0  0  0  0
 42136  1  0  0  0  0
 42137  1  0  0  0  0
 43138  1  0  0  0  0
 59139  1  0  0  0  0
 60140  1  0  0  0  0
 61141  1  0  0  0  0
 63142  1  0  0  0  0
 63143  1  0  0  0  0
 64144  1  0  0  0  0
 64145  1  0  0  0  0
 64146  1  0  0  0  0
 65147  1  0  0  0  0
 77148  1  0  0  0  0
 77149  1  0  0  0  0
 78150  1  0  0  0  0
 78151  1  0  0  0  0
 78152  1  0  0  0  0
 79153  1  0  0  0  0
 79154  1  0  0  0  0
 80155  1  0  0  0  0
 80156  1  0  0  0  0
 80157  1  0  0  0  0
 83158  1  0  0  0  0
 85159  1  0  0  0  0
 85160  1  0  0  0  0
 86161  1  0  0  0  0
 86162  1  0  0  0  0
 86163  1  0  0  0  0
 94164  1  0  0  0  0
 94165  1  0  0  0  0
 95166  1  0  0  0  0
 95167  1  0  0  0  0
 95168  1  0  0  0  0
 96169  1  0  0  0  0
 97170  1  0  0  0  0
102171  1  0  0  0  0
103172  1  0  0  0  0
106173  1  0  0  0  0
M  END
