171

C          1.64830       -9.19540        7.29730
C          2.68740       -9.54650        8.09980
C          2.73390      -10.89520        8.72590
O          2.04860      -11.85220        8.44880
C          3.75390      -10.78900        9.79170
C          4.11290      -11.71590       10.75190
C          5.08850      -11.37300       11.67470
C          5.68120      -10.11620       11.62270
Cl         6.88000       -9.70510       12.79010
C          5.33760       -9.17590       10.65640
C          4.36640       -9.52340        9.73370
C          3.81990       -8.79070        8.59160
C          4.42580       -7.73470        7.96170
C          4.03540       -7.25010        6.69500
N          3.81630       -6.86190        5.63720
C          5.55190       -7.05640        8.46840
N          6.44140       -6.44360        8.85760
C          1.22770       -7.87860        6.92460
C          1.43870       -6.78090        7.76950
C          1.03140       -5.50630        7.43580
O          1.28250       -4.39060        8.16240
C          2.07690       -4.46560        9.32880
C          1.29870       -4.92720       10.55630
C          0.34880       -5.31660        6.20940
C          0.14920       -6.40050        5.36110
C          0.56400       -7.68110        5.69260
O          0.40260       -8.77740        4.92030
C          0.01790       -8.63780        3.56450
C          1.13400       -8.05500        2.70470
C         -0.08710       -4.00300        5.79270
C         -0.63940       -2.97860        6.53030
C         -1.08980       -3.08620        7.91710
C         -1.76730       -4.22180        8.35450
C         -2.23000       -4.29030        9.65410
C         -2.02400       -3.23440       10.52640
C         -1.35560       -2.09160       10.10460
C         -1.08820       -0.95880       11.05390
C          0.28310       -1.12270       11.71270
C         -0.89550       -2.02860        8.79800
C         -0.83700       -1.82470        5.73920
S         -1.50210       -0.24720        6.09120
C         -1.26790        0.19620        4.43410
C         -1.49710        1.28660        3.58020
C         -2.13730        2.52220        3.81490
C         -2.35210        3.41080        2.71010
N         -3.00960        4.50520        3.06030
S         -3.32520        4.42660        4.64700
N         -2.63790        2.99120        4.94730
C         -1.83060        3.06400        1.44530
C         -1.81640        3.77110        0.23320
S         -2.41190        5.25620       -0.42870
C         -1.66350        4.84040       -1.95470
C         -1.60970        5.49880       -3.19480
C         -2.15710        6.84480       -3.39500
C         -1.34660        7.86460       -3.88950
C         -1.86640        9.13240       -4.06330
C         -3.19110        9.39210       -3.75370
C         -4.00810        8.39020       -3.24620
C         -5.45870        8.65330       -2.96310
C         -6.29980        8.35900       -4.20730
C         -3.47760        7.12140       -3.06130
C         -0.91250        4.75570       -4.13650
S         -0.24370        3.28380       -3.45470
C         -0.98460        3.61980       -1.93050
C         -1.07500        3.01010       -0.67250
N         -0.64910        1.85250       -0.07740
C         -1.11150        1.85330        1.22980
C         -1.03060        0.90960        2.28890
N         -0.55430       -0.39070        2.36530
C         -0.70750       -0.81770        3.65670
C         -0.46470       -1.97870        4.40430
S          0.14970       -3.56580        4.10870
C         -0.31590       -1.36230        1.32260
C         -1.56400       -1.59000        0.47310
C          0.42780        1.10480       -0.68700
C          1.73140        1.26500        0.09160
C         -0.81060        4.98430       -5.54960
C         -1.72570        5.81190       -6.20520
C         -1.66780        6.03500       -7.56660
O         -2.53550        6.82580       -8.22870
C         -3.38870        7.69930       -7.50710
C         -4.01780        8.64430       -8.51810
C         -0.66740        5.38150       -8.34560
C          0.23380        4.53300       -7.68430
C          0.17550        4.32290       -6.32570
O          1.02830        3.53020       -5.62360
C          1.93790        2.67560       -6.29320
C          1.25780        1.48380       -6.95590
C         -0.63330        5.68700       -9.73200
C          0.03360        5.16230      -10.80830
C          0.81800        3.91470      -10.92580
O          1.18480        3.14840      -10.05430
C          1.06540        3.72750      -12.36820
C          1.70570        2.69430      -12.98860
C          1.81690        2.70000      -14.39670
C          2.46510        1.65850      -15.09130
C          2.55820        1.67260      -16.45530
C          1.99750        2.74520      -17.16160
F          2.09840        2.74090      -18.50430
C          1.35990        3.78080      -16.53770
C          1.25480        3.78280      -15.13300
C          0.60230        4.84200      -14.45990
C          0.51170        4.81710      -13.09360
C         -0.08290        5.74470      -12.13710
C         -0.59390        6.97700      -12.45800
C         -0.66870        7.47660      -13.77510
N         -0.76810        7.94250      -14.82010
C         -1.08290        7.95030      -11.56060
N         -1.47890        8.82860      -10.93330
H          1.03300      -10.01250        6.93680
H          3.63810      -12.68440       10.77400
H          5.39280      -12.07250       12.43710
H          5.81730       -8.21060       10.64810
H          1.91950       -6.96810        8.71570
H          2.42110       -3.43900        9.48220
H          2.95690       -5.09850        9.15420
H          0.91340       -5.93560       10.42800
H          0.45610       -4.26170       10.72310
H          1.94990       -4.90580       11.42590
H         -0.36120       -6.21310        4.42880
H         -0.89910       -8.04180        3.47910
H         -0.20660       -9.65980        3.24760
H          0.81280       -8.01210        1.66770
H          2.01860       -8.68230        2.77720
H          1.40020       -7.05490        3.03720
H         -1.94050       -5.04010        7.67090
H         -2.75820       -5.17090        9.99020
H         -2.39010       -3.29550       11.54150
H         -1.11510       -0.01230       10.51080
H         -1.85870       -0.93240       11.82680
H          1.06310       -1.16500       10.95570
H          0.48830       -0.28570       12.37590
H          0.31930       -2.04160       12.29420
H         -0.36570       -1.14910        8.46330
H         -0.31630        7.65420       -4.13560
H         -1.23680        9.92310       -4.44420
H         -3.59320       10.38390       -3.90150
H         -5.59700        9.69650       -2.67360
H         -5.79650        8.02100       -2.14020
H         -5.97590        8.98060       -5.03970
H         -7.35070        8.55900       -4.01280
H         -6.19420        7.31580       -4.49800
H         -4.10190        6.33100       -2.66980
H          0.53870       -1.07080        0.71190
H         -0.04710       -2.29500        1.82470
H         -1.35350       -2.31320       -0.31040
H         -1.90370       -0.66330        0.01660
H         -2.36900       -1.97590        1.09420
H          0.15410        0.05570       -0.80260
H          0.55630        1.51530       -1.69160
H          2.02990        2.31060        0.10140
H          2.51980        0.68430       -0.37970
H          1.61880        0.93610        1.12200
H         -2.51110        6.26300       -5.62500
H         -2.80570        8.26020       -6.76490
H         -4.16200        7.12280       -6.98120
H         -3.23830        9.12630       -9.10230
H         -4.60400        9.39940       -8.00300
H         -4.66310        8.09280       -9.19640
H          0.98380        4.04270       -8.27810
H          2.52830        3.24040       -7.02310
H          2.60390        2.33340       -5.49580
H          2.01450        0.78330       -7.29710
H          0.60840        0.98500       -6.24020
H          0.66790        1.79720       -7.81230
H         -1.30410        6.50350       -9.97210
H          2.12030        1.88090      -12.41180
H          2.88890        0.84260      -14.52510
H          3.04940        0.88330      -17.00200
H          0.94090        4.59140      -17.11330
H          0.18530        5.64360      -15.04760
