137

C          3.21810       -6.66470        2.57200
C          2.92220       -5.36630        2.28720
C          3.29860       -4.20340        3.13270
O          4.02350       -4.19810        4.10400
C          2.60690       -3.04180        2.54070
C          2.59600       -1.72780        2.97050
C          1.90740       -0.78920        2.21990
C          1.24750       -1.18200        1.06090
Cl         0.44430        0.00510        0.10770
C          1.22200       -2.50570        0.63590
C          1.91000       -3.44420        1.38780
C          2.09590       -4.88120        1.19660
C          1.58680       -5.61580        0.15920
C          1.80520       -6.99300       -0.06170
N          1.93820       -8.10220       -0.32650
C          0.75180       -5.08240       -0.84050
N          0.03680       -4.71660       -1.66200
C          4.02710       -7.11220        3.65510
C          3.92410       -8.34830        4.19370
C          2.93610       -9.34830        3.86410
C          1.61850       -9.16190        3.66190
C          0.91460       -7.91200        3.80830
C          1.10460       -6.89430        4.71720
C          1.89350       -7.01350        5.94300
C          1.84370       -8.18160        6.70220
C          2.57480       -8.27810        7.86950
C          3.35970       -7.21900        8.29510
C          3.41700       -6.04640        7.55470
C          4.22230       -4.86500        8.01030
C          3.32260       -3.85240        8.72170
C          2.67570       -5.95420        6.38610
C          0.40100       -5.73130        4.33010
S          0.41960       -4.09900        4.94340
C         -0.57670       -3.62040        3.61770
C         -1.12660       -2.43580        3.09990
C         -1.10030       -1.10570        3.56800
C         -1.78680       -0.09150        2.81680
N         -1.69310        1.10260        3.37970
S         -0.81780        0.96660        4.73510
N         -0.51690       -0.62410        4.65450
C         -2.35590       -0.43560        1.57170
C         -2.81580        0.36680        0.51650
S         -3.01180        2.04710        0.15380
C         -3.29870        1.62530       -1.51880
C         -3.49510        2.40590       -2.67410
C         -3.60710        3.86820       -2.64700
C         -2.69880        4.62590       -1.91310
C         -2.77410        6.00610       -1.93490
C         -3.76090        6.63710       -2.66990
C         -4.69720        5.89540       -3.38110
C         -5.80590        6.58240       -4.12570
C         -6.93100        6.97590       -3.16680
C         -4.61090        4.51320       -3.36210
C         -3.62110        1.61100       -3.80390
S         -3.57580       -0.10660       -3.41470
C         -3.29210        0.24690       -1.75010
C         -3.01150       -0.47570       -0.58330
N         -2.73200       -1.76800       -0.23440
C         -2.32280       -1.77250        1.08170
C         -1.80700       -2.79730        1.91240
N         -1.72900       -4.17800        1.73760
C         -0.94730       -4.66450        2.76780
C         -0.37240       -5.87900        3.17670
S         -0.24450       -7.48920        2.55610
C         -2.82770       -4.97970        1.21530
C         -2.41960       -6.06320        0.22540
C         -2.59070       -2.79010       -1.24500
C         -3.93790       -3.28270       -1.76630
C         -3.72430        1.95460       -5.18750
C         -3.11680        3.00300       -5.79900
C         -2.15990        3.83870       -5.17090
C         -1.66510        4.99640       -5.68240
C         -0.75020        5.77520       -4.94040
C         -0.07810        6.90360       -5.30450
C          0.48720        7.78160       -4.25140
O          0.59380        7.52700       -3.07160
C          0.82550        9.04690       -4.93730
C          1.30020       10.22290       -4.39270
C          1.50600       11.29480       -5.24930
C          1.20540       11.20080       -6.59760
C          0.71000       10.01790       -7.15610
O          0.31730        9.88020       -8.43710
C          0.58730       10.90500       -9.36640
C          0.56250        8.91120       -6.31100
C          0.17010        7.53210       -6.58680
C          0.30070        6.86620       -7.77760
C          0.76630        7.40200       -8.99800
N          1.17460        7.69620      -10.03060
C          0.15380        5.46710       -7.90390
N          0.09210        4.33300       -8.07400
H          2.80440       -7.44260        1.94210
H          3.11980       -1.44750        3.87060
H          1.88780        0.24680        2.51970
H          0.69160       -2.76440       -0.26480
H          4.74420       -6.41440        4.06160
H          4.65150       -8.64540        4.93920
H          3.31380      -10.36260        3.82070
H          1.01660      -10.00130        3.33560
H          1.22160       -9.00370        6.37990
H          2.52970       -9.18450        8.45580
H          3.92990       -7.30490        9.20910
H          4.68210       -4.38670        7.14360
H          5.01290       -5.18960        8.68960
H          2.85440       -4.30660        9.59260
H          3.90240       -2.99230        9.04800
H          2.53850       -3.50930        8.05080
H          2.74090       -5.04980        5.80280
H         -1.91630        4.13570       -1.35340
H         -2.04920        6.59070       -1.38930
H         -3.80670        7.71630       -2.69390
H         -5.41980        7.47950       -4.61480
H         -6.20170        5.91810       -4.89530
H         -6.55690        7.65110       -2.40120
H         -7.73530        7.47170       -3.70530
H         -7.33330        6.09290       -2.67560
H         -5.32990        3.92320       -3.91270
H         -3.32310       -5.46110        2.06880
H         -3.54510       -4.29670        0.76240
H         -3.30480       -6.62500       -0.06060
H         -1.96820       -5.65370       -0.67280
H         -1.71240       -6.75280        0.67730
H         -1.99560       -3.60410       -0.83850
H         -2.03180       -2.35760       -2.08220
H         -4.47420       -2.47100       -2.25130
H         -4.56230       -3.67220       -0.96560
H         -3.77420       -4.07130       -2.49460
H         -4.31440        1.27290       -5.78810
H         -3.34070        3.19780       -6.83860
H         -1.76300        3.49800       -4.22550
H         -2.01570        5.35670       -6.63890
H         -0.63050        5.50120       -3.89650
H          1.50530       10.29020       -3.33640
H          1.89220       12.22650       -4.86340
H          1.35180       12.06600       -7.22490
H          0.29820       10.49600      -10.33260
H         -0.00060       11.80320       -9.15320
H          1.65200       11.15310       -9.38590
