
  xtb     02042216193D
 energy: -236.529583115512 gnorm: 0.001572230094 xtb: 6.4.1 (unknown)
137150  0     0  0            999 V2000
    3.2181   -6.6647    2.5720 C   0  0  0  0  0  0  0  0  0  0  0  0
    2.9222   -5.3663    2.2872 C   0  0  0  0  0  0  0  0  0  0  0  0
    3.2986   -4.2034    3.1327 C   0  0  0  0  0  0  0  0  0  0  0  0
    4.0235   -4.1981    4.1040 O   0  0  0  0  0  0  0  0  0  0  0  0
    2.6069   -3.0418    2.5407 C   0  0  0  0  0  0  0  0  0  0  0  0
    2.5960   -1.7278    2.9705 C   0  0  0  0  0  0  0  0  0  0  0  0
    1.9074   -0.7892    2.2199 C   0  0  0  0  0  0  0  0  0  0  0  0
    1.2475   -1.1820    1.0609 C   0  0  0  0  0  0  0  0  0  0  0  0
    0.4443    0.0051    0.1077 Cl  0  0  0  0  0  0  0  0  0  0  0  0
    1.2220   -2.5057    0.6359 C   0  0  0  0  0  0  0  0  0  0  0  0
    1.9100   -3.4442    1.3878 C   0  0  0  0  0  0  0  0  0  0  0  0
    2.0959   -4.8812    1.1966 C   0  0  0  0  0  0  0  0  0  0  0  0
    1.5868   -5.6158    0.1592 C   0  0  0  0  0  0  0  0  0  0  0  0
    1.8052   -6.9930   -0.0617 C   0  0  0  0  0  0  0  0  0  0  0  0
    1.9382   -8.1022   -0.3265 N   0  0  0  0  0  0  0  0  0  0  0  0
    0.7518   -5.0824   -0.8405 C   0  0  0  0  0  0  0  0  0  0  0  0
    0.0368   -4.7166   -1.6620 N   0  0  0  0  0  0  0  0  0  0  0  0
    4.0271   -7.1122    3.6551 C   0  0  0  0  0  0  0  0  0  0  0  0
    3.9241   -8.3483    4.1937 C   0  0  0  0  0  0  0  0  0  0  0  0
    2.9361   -9.3483    3.8641 C   0  0  0  0  0  0  0  0  0  0  0  0
    1.6185   -9.1619    3.6619 C   0  0  0  0  0  0  0  0  0  0  0  0
    0.9146   -7.9120    3.8083 C   0  0  0  0  0  0  0  0  0  0  0  0
    1.1046   -6.8943    4.7172 C   0  0  0  0  0  0  0  0  0  0  0  0
    1.8935   -7.0135    5.9430 C   0  0  0  0  0  0  0  0  0  0  0  0
    1.8437   -8.1816    6.7022 C   0  0  0  0  0  0  0  0  0  0  0  0
    2.5748   -8.2781    7.8695 C   0  0  0  0  0  0  0  0  0  0  0  0
    3.3597   -7.2190    8.2951 C   0  0  0  0  0  0  0  0  0  0  0  0
    3.4170   -6.0464    7.5547 C   0  0  0  0  0  0  0  0  0  0  0  0
    4.2223   -4.8650    8.0103 C   0  0  0  0  0  0  0  0  0  0  0  0
    3.3226   -3.8524    8.7217 C   0  0  0  0  0  0  0  0  0  0  0  0
    2.6757   -5.9542    6.3861 C   0  0  0  0  0  0  0  0  0  0  0  0
    0.4010   -5.7313    4.3301 C   0  0  0  0  0  0  0  0  0  0  0  0
    0.4196   -4.0990    4.9434 S   0  0  0  0  0  0  0  0  0  0  0  0
   -0.5767   -3.6204    3.6177 C   0  0  0  0  0  0  0  0  0  0  0  0
   -1.1266   -2.4358    3.0999 C   0  0  0  0  0  0  0  0  0  0  0  0
   -1.1003   -1.1057    3.5680 C   0  0  0  0  0  0  0  0  0  0  0  0
   -1.7868   -0.0915    2.8168 C   0  0  0  0  0  0  0  0  0  0  0  0
   -1.6931    1.1026    3.3797 N   0  0  0  0  0  0  0  0  0  0  0  0
   -0.8178    0.9666    4.7351 S   0  0  0  0  0  0  0  0  0  0  0  0
   -0.5169   -0.6241    4.6545 N   0  0  0  0  0  0  0  0  0  0  0  0
   -2.3559   -0.4356    1.5717 C   0  0  0  0  0  0  0  0  0  0  0  0
   -2.8158    0.3668    0.5165 C   0  0  0  0  0  0  0  0  0  0  0  0
   -3.0118    2.0471    0.1538 S   0  0  0  0  0  0  0  0  0  0  0  0
   -3.2987    1.6253   -1.5188 C   0  0  0  0  0  0  0  0  0  0  0  0
   -3.4951    2.4059   -2.6741 C   0  0  0  0  0  0  0  0  0  0  0  0
   -3.6071    3.8682   -2.6470 C   0  0  0  0  0  0  0  0  0  0  0  0
   -2.6988    4.6259   -1.9131 C   0  0  0  0  0  0  0  0  0  0  0  0
   -2.7741    6.0061   -1.9349 C   0  0  0  0  0  0  0  0  0  0  0  0
   -3.7609    6.6371   -2.6699 C   0  0  0  0  0  0  0  0  0  0  0  0
   -4.6972    5.8954   -3.3811 C   0  0  0  0  0  0  0  0  0  0  0  0
   -5.8059    6.5824   -4.1257 C   0  0  0  0  0  0  0  0  0  0  0  0
   -6.9310    6.9759   -3.1668 C   0  0  0  0  0  0  0  0  0  0  0  0
   -4.6109    4.5132   -3.3621 C   0  0  0  0  0  0  0  0  0  0  0  0
   -3.6211    1.6110   -3.8039 C   0  0  0  0  0  0  0  0  0  0  0  0
   -3.5758   -0.1066   -3.4147 S   0  0  0  0  0  0  0  0  0  0  0  0
   -3.2921    0.2469   -1.7501 C   0  0  0  0  0  0  0  0  0  0  0  0
   -3.0115   -0.4757   -0.5833 C   0  0  0  0  0  0  0  0  0  0  0  0
   -2.7320   -1.7680   -0.2344 N   0  0  0  0  0  0  0  0  0  0  0  0
   -2.3228   -1.7725    1.0817 C   0  0  0  0  0  0  0  0  0  0  0  0
   -1.8070   -2.7973    1.9124 C   0  0  0  0  0  0  0  0  0  0  0  0
   -1.7290   -4.1780    1.7376 N   0  0  0  0  0  0  0  0  0  0  0  0
   -0.9473   -4.6645    2.7678 C   0  0  0  0  0  0  0  0  0  0  0  0
   -0.3724   -5.8790    3.1767 C   0  0  0  0  0  0  0  0  0  0  0  0
   -0.2445   -7.4892    2.5561 S   0  0  0  0  0  0  0  0  0  0  0  0
   -2.8277   -4.9797    1.2153 C   0  0  0  0  0  0  0  0  0  0  0  0
   -2.4196   -6.0632    0.2254 C   0  0  0  0  0  0  0  0  0  0  0  0
   -2.5907   -2.7901   -1.2450 C   0  0  0  0  0  0  0  0  0  0  0  0
   -3.9379   -3.2827   -1.7663 C   0  0  0  0  0  0  0  0  0  0  0  0
   -3.7243    1.9546   -5.1875 C   0  0  0  0  0  0  0  0  0  0  0  0
   -3.1168    3.0030   -5.7990 C   0  0  0  0  0  0  0  0  0  0  0  0
   -2.1599    3.8387   -5.1709 C   0  0  0  0  0  0  0  0  0  0  0  0
   -1.6651    4.9964   -5.6824 C   0  0  0  0  0  0  0  0  0  0  0  0
   -0.7502    5.7752   -4.9404 C   0  0  0  0  0  0  0  0  0  0  0  0
   -0.0781    6.9036   -5.3045 C   0  0  0  0  0  0  0  0  0  0  0  0
    0.4872    7.7816   -4.2514 C   0  0  0  0  0  0  0  0  0  0  0  0
    0.5938    7.5270   -3.0716 O   0  0  0  0  0  0  0  0  0  0  0  0
    0.8255    9.0469   -4.9373 C   0  0  0  0  0  0  0  0  0  0  0  0
    1.3002   10.2229   -4.3927 C   0  0  0  0  0  0  0  0  0  0  0  0
    1.5060   11.2948   -5.2493 C   0  0  0  0  0  0  0  0  0  0  0  0
    1.2054   11.2008   -6.5976 C   0  0  0  0  0  0  0  0  0  0  0  0
    0.7100   10.0179   -7.1561 C   0  0  0  0  0  0  0  0  0  0  0  0
    0.3173    9.8802   -8.4371 O   0  0  0  0  0  0  0  0  0  0  0  0
    0.5873   10.9050   -9.3664 C   0  0  0  0  0  0  0  0  0  0  0  0
    0.5625    8.9112   -6.3110 C   0  0  0  0  0  0  0  0  0  0  0  0
    0.1701    7.5321   -6.5868 C   0  0  0  0  0  0  0  0  0  0  0  0
    0.3007    6.8662   -7.7776 C   0  0  0  0  0  0  0  0  0  0  0  0
    0.7663    7.4020   -8.9980 C   0  0  0  0  0  0  0  0  0  0  0  0
    1.1746    7.6962  -10.0306 N   0  0  0  0  0  0  0  0  0  0  0  0
    0.1538    5.4671   -7.9039 C   0  0  0  0  0  0  0  0  0  0  0  0
    0.0921    4.3330   -8.0740 N   0  0  0  0  0  0  0  0  0  0  0  0
    2.8044   -7.4426    1.9421 H   0  0  0  0  0  0  0  0  0  0  0  0
    3.1198   -1.4475    3.8706 H   0  0  0  0  0  0  0  0  0  0  0  0
    1.8878    0.2468    2.5197 H   0  0  0  0  0  0  0  0  0  0  0  0
    0.6916   -2.7644   -0.2648 H   0  0  0  0  0  0  0  0  0  0  0  0
    4.7442   -6.4144    4.0616 H   0  0  0  0  0  0  0  0  0  0  0  0
    4.6515   -8.6454    4.9392 H   0  0  0  0  0  0  0  0  0  0  0  0
    3.3138  -10.3626    3.8207 H   0  0  0  0  0  0  0  0  0  0  0  0
    1.0166  -10.0013    3.3356 H   0  0  0  0  0  0  0  0  0  0  0  0
    1.2216   -9.0037    6.3799 H   0  0  0  0  0  0  0  0  0  0  0  0
    2.5297   -9.1845    8.4558 H   0  0  0  0  0  0  0  0  0  0  0  0
    3.9299   -7.3049    9.2091 H   0  0  0  0  0  0  0  0  0  0  0  0
    4.6821   -4.3867    7.1436 H   0  0  0  0  0  0  0  0  0  0  0  0
    5.0129   -5.1896    8.6896 H   0  0  0  0  0  0  0  0  0  0  0  0
    2.8544   -4.3066    9.5926 H   0  0  0  0  0  0  0  0  0  0  0  0
    3.9024   -2.9923    9.0480 H   0  0  0  0  0  0  0  0  0  0  0  0
    2.5385   -3.5093    8.0508 H   0  0  0  0  0  0  0  0  0  0  0  0
    2.7409   -5.0498    5.8028 H   0  0  0  0  0  0  0  0  0  0  0  0
   -1.9163    4.1357   -1.3534 H   0  0  0  0  0  0  0  0  0  0  0  0
   -2.0492    6.5907   -1.3893 H   0  0  0  0  0  0  0  0  0  0  0  0
   -3.8067    7.7163   -2.6939 H   0  0  0  0  0  0  0  0  0  0  0  0
   -5.4198    7.4795   -4.6148 H   0  0  0  0  0  0  0  0  0  0  0  0
   -6.2017    5.9181   -4.8953 H   0  0  0  0  0  0  0  0  0  0  0  0
   -6.5569    7.6511   -2.4012 H   0  0  0  0  0  0  0  0  0  0  0  0
   -7.7353    7.4717   -3.7053 H   0  0  0  0  0  0  0  0  0  0  0  0
   -7.3333    6.0929   -2.6756 H   0  0  0  0  0  0  0  0  0  0  0  0
   -5.3299    3.9232   -3.9127 H   0  0  0  0  0  0  0  0  0  0  0  0
   -3.3231   -5.4611    2.0688 H   0  0  0  0  0  0  0  0  0  0  0  0
   -3.5451   -4.2967    0.7624 H   0  0  0  0  0  0  0  0  0  0  0  0
   -3.3048   -6.6250   -0.0606 H   0  0  0  0  0  0  0  0  0  0  0  0
   -1.9682   -5.6537   -0.6728 H   0  0  0  0  0  0  0  0  0  0  0  0
   -1.7124   -6.7528    0.6773 H   0  0  0  0  0  0  0  0  0  0  0  0
   -1.9956   -3.6041   -0.8385 H   0  0  0  0  0  0  0  0  0  0  0  0
   -2.0318   -2.3576   -2.0822 H   0  0  0  0  0  0  0  0  0  0  0  0
   -4.4742   -2.4710   -2.2513 H   0  0  0  0  0  0  0  0  0  0  0  0
   -4.5623   -3.6722   -0.9656 H   0  0  0  0  0  0  0  0  0  0  0  0
   -3.7742   -4.0713   -2.4946 H   0  0  0  0  0  0  0  0  0  0  0  0
   -4.3144    1.2729   -5.7881 H   0  0  0  0  0  0  0  0  0  0  0  0
   -3.3407    3.1978   -6.8386 H   0  0  0  0  0  0  0  0  0  0  0  0
   -1.7630    3.4980   -4.2255 H   0  0  0  0  0  0  0  0  0  0  0  0
   -2.0157    5.3567   -6.6389 H   0  0  0  0  0  0  0  0  0  0  0  0
   -0.6305    5.5012   -3.8965 H   0  0  0  0  0  0  0  0  0  0  0  0
    1.5053   10.2902   -3.3364 H   0  0  0  0  0  0  0  0  0  0  0  0
    1.8922   12.2265   -4.8634 H   0  0  0  0  0  0  0  0  0  0  0  0
    1.3518   12.0660   -7.2249 H   0  0  0  0  0  0  0  0  0  0  0  0
    0.2982   10.4960  -10.3326 H   0  0  0  0  0  0  0  0  0  0  0  0
   -0.0006   11.8032   -9.1532 H   0  0  0  0  0  0  0  0  0  0  0  0
    1.6520   11.1531   -9.3859 H   0  0  0  0  0  0  0  0  0  0  0  0
  1  2  2  0  0  0  0
  2  3  1  0  0  0  0
  3  4  2  0  0  0  0
  3  5  1  0  0  0  0
  5  6  2  0  0  0  0
  6  7  1  0  0  0  0
  7  8  2  0  0  0  0
  8  9  1  0  0  0  0
  8 10  1  0  0  0  0
 10 11  2  0  0  0  0
 11 12  1  0  0  0  0
 12 13  2  0  0  0  0
 13 14  1  0  0  0  0
 14 15  3  0  0  0  0
 13 16  1  0  0  0  0
 16 17  3  0  0  0  0
  1 18  1  0  0  0  0
 18 19  2  0  0  0  0
 19 20  1  0  0  0  0
 20 21  2  0  0  0  0
 21 22  1  0  0  0  0
 22 23  2  0  0  0  0
 23 24  1  0  0  0  0
 24 25  2  0  0  0  0
 25 26  1  0  0  0  0
 26 27  2  0  0  0  0
 27 28  1  0  0  0  0
 28 29  1  0  0  0  0
 29 30  1  0  0  0  0
 28 31  2  0  0  0  0
 23 32  1  0  0  0  0
 32 33  1  0  0  0  0
 33 34  1  0  0  0  0
 34 35  1  0  0  0  0
 35 36  1  0  0  0  0
 36 37  1  0  0  0  0
 37 38  2  0  0  0  0
 38 39  1  0  0  0  0
 39 40  1  0  0  0  0
 37 41  1  0  0  0  0
 41 42  1  0  0  0  0
 42 43  1  0  0  0  0
 43 44  1  0  0  0  0
 44 45  1  0  0  0  0
 45 46  1  0  0  0  0
 46 47  2  0  0  0  0
 47 48  1  0  0  0  0
 48 49  2  0  0  0  0
 49 50  1  0  0  0  0
 50 51  1  0  0  0  0
 51 52  1  0  0  0  0
 50 53  2  0  0  0  0
 45 54  2  0  0  0  0
 54 55  1  0  0  0  0
 55 56  1  0  0  0  0
 56 57  1  0  0  0  0
 57 58  1  0  0  0  0
 58 59  1  0  0  0  0
 59 60  1  0  0  0  0
 60 61  1  0  0  0  0
 61 62  1  0  0  0  0
 62 63  1  0  0  0  0
 63 64  1  0  0  0  0
 61 65  1  0  0  0  0
 65 66  1  0  0  0  0
 58 67  1  0  0  0  0
 67 68  1  0  0  0  0
 54 69  1  0  0  0  0
 69 70  2  0  0  0  0
 70 71  1  0  0  0  0
 71 72  2  0  0  0  0
 72 73  1  0  0  0  0
 73 74  2  0  0  0  0
 74 75  1  0  0  0  0
 75 76  2  0  0  0  0
 75 77  1  0  0  0  0
 77 78  2  0  0  0  0
 78 79  1  0  0  0  0
 79 80  2  0  0  0  0
 80 81  1  0  0  0  0
 81 82  1  0  0  0  0
 82 83  1  0  0  0  0
 81 84  2  0  0  0  0
 84 85  1  0  0  0  0
 85 86  2  0  0  0  0
 86 87  1  0  0  0  0
 87 88  3  0  0  0  0
 86 89  1  0  0  0  0
 89 90  3  0  0  0  0
 12  2  1  0  0  0  0
 64 22  1  0  0  0  0
 85 74  1  0  0  0  0
 11  5  1  0  0  0  0
 31 24  1  0  0  0  0
 63 32  2  0  0  0  0
 84 77  1  0  0  0  0
 62 34  2  0  0  0  0
 60 35  2  0  0  0  0
 40 36  2  0  0  0  0
 59 41  2  0  0  0  0
 57 42  2  0  0  0  0
 56 44  2  0  0  0  0
 53 46  1  0  0  0  0
  1 91  1  0  0  0  0
  6 92  1  0  0  0  0
  7 93  1  0  0  0  0
 10 94  1  0  0  0  0
 18 95  1  0  0  0  0
 19 96  1  0  0  0  0
 20 97  1  0  0  0  0
 21 98  1  0  0  0  0
 25 99  1  0  0  0  0
 26100  1  0  0  0  0
 27101  1  0  0  0  0
 29102  1  0  0  0  0
 29103  1  0  0  0  0
 30104  1  0  0  0  0
 30105  1  0  0  0  0
 30106  1  0  0  0  0
 31107  1  0  0  0  0
 47108  1  0  0  0  0
 48109  1  0  0  0  0
 49110  1  0  0  0  0
 51111  1  0  0  0  0
 51112  1  0  0  0  0
 52113  1  0  0  0  0
 52114  1  0  0  0  0
 52115  1  0  0  0  0
 53116  1  0  0  0  0
 65117  1  0  0  0  0
 65118  1  0  0  0  0
 66119  1  0  0  0  0
 66120  1  0  0  0  0
 66121  1  0  0  0  0
 67122  1  0  0  0  0
 67123  1  0  0  0  0
 68124  1  0  0  0  0
 68125  1  0  0  0  0
 68126  1  0  0  0  0
 69127  1  0  0  0  0
 70128  1  0  0  0  0
 71129  1  0  0  0  0
 72130  1  0  0  0  0
 73131  1  0  0  0  0
 78132  1  0  0  0  0
 79133  1  0  0  0  0
 80134  1  0  0  0  0
 83135  1  0  0  0  0
 83136  1  0  0  0  0
 83137  1  0  0  0  0
M  END
