
  xtb     02042221123D
 energy: -293.372893621114 gnorm: 0.000298823729 xtb: 6.4.1 (unknown)
172190  0     0  0            999 V2000
    6.1166   -0.3841   -9.0212 C   0  0  0  0  0  0  0  0  0  0  0  0
    7.3990   -0.7822   -9.3169 C   0  0  0  0  0  0  0  0  0  0  0  0
    8.5100   -0.8772   -8.3665 C   0  0  0  0  0  0  0  0  0  0  0  0
    8.5115   -0.5788   -7.1843 O   0  0  0  0  0  0  0  0  0  0  0  0
    9.6479   -1.4261   -9.1288 C   0  0  0  0  0  0  0  0  0  0  0  0
   10.9230   -1.7259   -8.6910 C   0  0  0  0  0  0  0  0  0  0  0  0
   11.8296   -2.2493   -9.5996 C   0  0  0  0  0  0  0  0  0  0  0  0
   11.4413   -2.4605  -10.9169 C   0  0  0  0  0  0  0  0  0  0  0  0
   12.5799   -3.1178  -12.0312 Cl  0  0  0  0  0  0  0  0  0  0  0  0
   10.1602   -2.1600  -11.3711 C   0  0  0  0  0  0  0  0  0  0  0  0
    9.2573   -1.6355  -10.4628 C   0  0  0  0  0  0  0  0  0  0  0  0
    7.8616   -1.2153  -10.6158 C   0  0  0  0  0  0  0  0  0  0  0  0
    7.1619   -1.2096  -11.7960 C   0  0  0  0  0  0  0  0  0  0  0  0
    7.6896   -1.6476  -13.0286 C   0  0  0  0  0  0  0  0  0  0  0  0
    8.0520   -1.9903  -14.0629 N   0  0  0  0  0  0  0  0  0  0  0  0
    5.8386   -0.7538  -11.9760 C   0  0  0  0  0  0  0  0  0  0  0  0
    4.7771   -0.3933  -12.2288 N   0  0  0  0  0  0  0  0  0  0  0  0
    5.5636    0.0730   -7.8233 C   0  0  0  0  0  0  0  0  0  0  0  0
    4.2111    0.4544   -7.7325 C   0  0  0  0  0  0  0  0  0  0  0  0
    3.2856    0.3542   -8.8761 C   0  0  0  0  0  0  0  0  0  0  0  0
    3.0346    1.4722   -9.6724 C   0  0  0  0  0  0  0  0  0  0  0  0
    2.1857    1.3469  -10.7609 C   0  0  0  0  0  0  0  0  0  0  0  0
    1.5847    0.1392  -11.0767 C   0  0  0  0  0  0  0  0  0  0  0  0
    0.6441    0.0304  -12.2411 C   0  0  0  0  0  0  0  0  0  0  0  0
   -0.7916    0.3211  -11.7995 C   0  0  0  0  0  0  0  0  0  0  0  0
    1.8387   -0.9577  -10.2676 C   0  0  0  0  0  0  0  0  0  0  0  0
    2.6854   -0.8717   -9.1745 C   0  0  0  0  0  0  0  0  0  0  0  0
    2.9075   -2.0806   -8.3067 C   0  0  0  0  0  0  0  0  0  0  0  0
    1.9359   -2.0882   -7.1250 C   0  0  0  0  0  0  0  0  0  0  0  0
    3.7132    2.7888   -9.4109 C   0  0  0  0  0  0  0  0  0  0  0  0
    5.0312    2.8819  -10.1826 C   0  0  0  0  0  0  0  0  0  0  0  0
    3.8664    0.9060   -6.4715 C   0  0  0  0  0  0  0  0  0  0  0  0
    4.9238    0.8780   -5.5674 C   0  0  0  0  0  0  0  0  0  0  0  0
    6.3838    0.2898   -6.2933 S   0  0  0  0  0  0  0  0  0  0  0  0
    4.8220    1.1871   -4.1892 C   0  0  0  0  0  0  0  0  0  0  0  0
    5.8070    1.2199   -3.2145 C   0  0  0  0  0  0  0  0  0  0  0  0
    7.2493    1.1190   -3.4525 C   0  0  0  0  0  0  0  0  0  0  0  0
    7.8895    1.9937   -4.3258 C   0  0  0  0  0  0  0  0  0  0  0  0
    9.2547    1.9006   -4.5095 C   0  0  0  0  0  0  0  0  0  0  0  0
    9.9878    0.9479   -3.8237 C   0  0  0  0  0  0  0  0  0  0  0  0
    9.3661    0.0782   -2.9381 C   0  0  0  0  0  0  0  0  0  0  0  0
   10.1600   -0.9128   -2.1373 C   0  0  0  0  0  0  0  0  0  0  0  0
   10.4924   -0.3329   -0.7608 C   0  0  0  0  0  0  0  0  0  0  0  0
    7.9948    0.1763   -2.7565 C   0  0  0  0  0  0  0  0  0  0  0  0
    5.2556    1.3833   -1.9321 C   0  0  0  0  0  0  0  0  0  0  0  0
    5.9729    1.4366   -0.3387 S   0  0  0  0  0  0  0  0  0  0  0  0
    4.3889    1.5995    0.3411 C   0  0  0  0  0  0  0  0  0  0  0  0
    3.7678    1.6239    1.6010 C   0  0  0  0  0  0  0  0  0  0  0  0
    4.2875    1.4289    2.8998 C   0  0  0  0  0  0  0  0  0  0  0  0
    3.3743    1.2665    3.9962 C   0  0  0  0  0  0  0  0  0  0  0  0
    3.9953    1.0082    5.1364 N   0  0  0  0  0  0  0  0  0  0  0  0
    5.5897    0.9803    4.8583 S   0  0  0  0  0  0  0  0  0  0  0  0
    5.5509    1.2910    3.2700 N   0  0  0  0  0  0  0  0  0  0  0  0
    1.9923    1.4432    3.7668 C   0  0  0  0  0  0  0  0  0  0  0  0
    0.8905    1.4337    4.6382 C   0  0  0  0  0  0  0  0  0  0  0  0
    0.5366    1.0826    6.2953 S   0  0  0  0  0  0  0  0  0  0  0  0
   -1.1440    1.4449    5.9878 C   0  0  0  0  0  0  0  0  0  0  0  0
   -2.2920    1.3936    6.8047 C   0  0  0  0  0  0  0  0  0  0  0  0
   -2.2671    1.0300    8.2221 C   0  0  0  0  0  0  0  0  0  0  0  0
   -1.5604   -0.0913    8.6442 C   0  0  0  0  0  0  0  0  0  0  0  0
   -1.5367   -0.4230    9.9858 C   0  0  0  0  0  0  0  0  0  0  0  0
   -2.2062    0.3581   10.9101 C   0  0  0  0  0  0  0  0  0  0  0  0
   -2.9059    1.4897   10.5071 C   0  0  0  0  0  0  0  0  0  0  0  0
   -3.5879    2.3657   11.5181 C   0  0  0  0  0  0  0  0  0  0  0  0
   -2.5972    3.3684   12.1129 C   0  0  0  0  0  0  0  0  0  0  0  0
   -2.9246    1.8189    9.1617 C   0  0  0  0  0  0  0  0  0  0  0  0
   -3.4254    1.7566    6.1017 C   0  0  0  0  0  0  0  0  0  0  0  0
   -3.0626    2.2064    4.4373 S   0  0  0  0  0  0  0  0  0  0  0  0
   -1.3895    1.8451    4.6724 C   0  0  0  0  0  0  0  0  0  0  0  0
   -0.2270    1.8192    3.8921 C   0  0  0  0  0  0  0  0  0  0  0  0
    0.1349    2.0408    2.5880 N   0  0  0  0  0  0  0  0  0  0  0  0
    1.4905    1.7806    2.4798 C   0  0  0  0  0  0  0  0  0  0  0  0
    2.3687    1.7318    1.3677 C   0  0  0  0  0  0  0  0  0  0  0  0
    2.1472    1.7445   -0.0014 N   0  0  0  0  0  0  0  0  0  0  0  0
    3.3695    1.6413   -0.6142 C   0  0  0  0  0  0  0  0  0  0  0  0
    3.8633    1.5075   -1.9158 C   0  0  0  0  0  0  0  0  0  0  0  0
    3.2083    1.4165   -3.5099 S   0  0  0  0  0  0  0  0  0  0  0  0
    0.9707    1.3243   -0.7314 C   0  0  0  0  0  0  0  0  0  0  0  0
    0.6512   -0.1432   -0.4550 C   0  0  0  0  0  0  0  0  0  0  0  0
   -0.7039    2.8406    1.7227 C   0  0  0  0  0  0  0  0  0  0  0  0
   -1.8779    2.0528    1.1439 C   0  0  0  0  0  0  0  0  0  0  0  0
   -4.8007    1.6643    6.4575 C   0  0  0  0  0  0  0  0  0  0  0  0
   -5.3462    0.5509    7.7054 S   0  0  0  0  0  0  0  0  0  0  0  0
   -6.9906    0.8848    7.2888 C   0  0  0  0  0  0  0  0  0  0  0  0
   -8.2904    0.4888    7.5950 C   0  0  0  0  0  0  0  0  0  0  0  0
   -9.1429    1.2387    6.7350 C   0  0  0  0  0  0  0  0  0  0  0  0
   -8.3941    2.0839    5.9532 N   0  0  0  0  0  0  0  0  0  0  0  0
   -8.8826    2.9060    4.8765 C   0  0  0  0  0  0  0  0  0  0  0  0
   -8.9108    2.1422    3.5540 C   0  0  0  0  0  0  0  0  0  0  0  0
   -7.0816    1.8473    6.2576 C   0  0  0  0  0  0  0  0  0  0  0  0
   -5.8406    2.2770    5.7870 C   0  0  0  0  0  0  0  0  0  0  0  0
  -10.4744    0.9099    6.8742 C   0  0  0  0  0  0  0  0  0  0  0  0
  -10.6718   -0.1037    7.8225 C   0  0  0  0  0  0  0  0  0  0  0  0
   -9.1616   -0.6205    8.5799 S   0  0  0  0  0  0  0  0  0  0  0  0
  -11.9417   -0.6441    8.0437 C   0  0  0  0  0  0  0  0  0  0  0  0
  -12.3504   -1.6848    8.8446 C   0  0  0  0  0  0  0  0  0  0  0  0
  -11.4937   -2.4575    9.7496 C   0  0  0  0  0  0  0  0  0  0  0  0
  -10.3076   -2.2947    9.9735 O   0  0  0  0  0  0  0  0  0  0  0  0
  -12.3633   -3.4852   10.3534 C   0  0  0  0  0  0  0  0  0  0  0  0
  -12.0384   -4.4766   11.2584 C   0  0  0  0  0  0  0  0  0  0  0  0
  -13.0345   -5.3463   11.6744 C   0  0  0  0  0  0  0  0  0  0  0  0
  -14.3249   -5.2043   11.1789 C   0  0  0  0  0  0  0  0  0  0  0  0
  -15.5495   -6.2981   11.7024 Cl  0  0  0  0  0  0  0  0  0  0  0  0
  -14.6655   -4.2071   10.2691 C   0  0  0  0  0  0  0  0  0  0  0  0
  -13.6694   -3.3400    9.8551 C   0  0  0  0  0  0  0  0  0  0  0  0
  -13.6938   -2.2148    8.9164 C   0  0  0  0  0  0  0  0  0  0  0  0
  -14.8047   -1.7832    8.2357 C   0  0  0  0  0  0  0  0  0  0  0  0
  -16.0863   -2.3592    8.3602 C   0  0  0  0  0  0  0  0  0  0  0  0
  -17.1563   -2.7731    8.4081 N   0  0  0  0  0  0  0  0  0  0  0  0
  -14.8479   -0.7169    7.3144 C   0  0  0  0  0  0  0  0  0  0  0  0
  -14.9740    0.1311    6.5486 N   0  0  0  0  0  0  0  0  0  0  0  0
    5.3940   -0.4257   -9.8288 H   0  0  0  0  0  0  0  0  0  0  0  0
   11.1959   -1.5532   -7.6615 H   0  0  0  0  0  0  0  0  0  0  0  0
   12.8342   -2.4963   -9.2947 H   0  0  0  0  0  0  0  0  0  0  0  0
    9.9017   -2.3410  -12.4011 H   0  0  0  0  0  0  0  0  0  0  0  0
    2.0016    2.2111  -11.3834 H   0  0  0  0  0  0  0  0  0  0  0  0
    0.9349    0.7408  -13.0165 H   0  0  0  0  0  0  0  0  0  0  0  0
    0.6957   -0.9747  -12.6631 H   0  0  0  0  0  0  0  0  0  0  0  0
   -1.4739    0.2411  -12.6427 H   0  0  0  0  0  0  0  0  0  0  0  0
   -1.1027   -0.3855  -11.0330 H   0  0  0  0  0  0  0  0  0  0  0  0
   -0.8650    1.3253  -11.3873 H   0  0  0  0  0  0  0  0  0  0  0  0
    1.3783   -1.9076  -10.5009 H   0  0  0  0  0  0  0  0  0  0  0  0
    2.7527   -2.9829   -8.9017 H   0  0  0  0  0  0  0  0  0  0  0  0
    3.9316   -2.0979   -7.9286 H   0  0  0  0  0  0  0  0  0  0  0  0
    0.9086   -2.0586   -7.4813 H   0  0  0  0  0  0  0  0  0  0  0  0
    2.1043   -1.2228   -6.4885 H   0  0  0  0  0  0  0  0  0  0  0  0
    2.0717   -2.9876   -6.5284 H   0  0  0  0  0  0  0  0  0  0  0  0
    3.0567    3.6000   -9.7328 H   0  0  0  0  0  0  0  0  0  0  0  0
    3.9092    2.9129   -8.3440 H   0  0  0  0  0  0  0  0  0  0  0  0
    4.8648    2.6733  -11.2369 H   0  0  0  0  0  0  0  0  0  0  0  0
    5.7500    2.1588   -9.8032 H   0  0  0  0  0  0  0  0  0  0  0  0
    5.4593    3.8771  -10.0845 H   0  0  0  0  0  0  0  0  0  0  0  0
    2.8794    1.2476   -6.2073 H   0  0  0  0  0  0  0  0  0  0  0  0
    7.3161    2.7463   -4.8471 H   0  0  0  0  0  0  0  0  0  0  0  0
    9.7510    2.5765   -5.1898 H   0  0  0  0  0  0  0  0  0  0  0  0
   11.0554    0.8803   -3.9757 H   0  0  0  0  0  0  0  0  0  0  0  0
    9.5843   -1.8319   -2.0108 H   0  0  0  0  0  0  0  0  0  0  0  0
   11.0857   -1.1583   -2.6609 H   0  0  0  0  0  0  0  0  0  0  0  0
    9.5797   -0.0844   -0.2240 H   0  0  0  0  0  0  0  0  0  0  0  0
   11.0835    0.5741   -0.8660 H   0  0  0  0  0  0  0  0  0  0  0  0
   11.0589   -1.0504   -0.1717 H   0  0  0  0  0  0  0  0  0  0  0  0
    7.4952   -0.4994   -2.0768 H   0  0  0  0  0  0  0  0  0  0  0  0
   -1.0490   -0.7078    7.9207 H   0  0  0  0  0  0  0  0  0  0  0  0
   -0.9943   -1.2983   10.3109 H   0  0  0  0  0  0  0  0  0  0  0  0
   -2.1877    0.0894   11.9564 H   0  0  0  0  0  0  0  0  0  0  0  0
   -4.0011    1.7496   12.3190 H   0  0  0  0  0  0  0  0  0  0  0  0
   -4.4099    2.9063   11.0449 H   0  0  0  0  0  0  0  0  0  0  0  0
   -2.1815    3.9995   11.3303 H   0  0  0  0  0  0  0  0  0  0  0  0
   -3.0909    4.0025   12.8455 H   0  0  0  0  0  0  0  0  0  0  0  0
   -1.7773    2.8466   12.6012 H   0  0  0  0  0  0  0  0  0  0  0  0
   -3.4507    2.7050    8.8342 H   0  0  0  0  0  0  0  0  0  0  0  0
    1.1972    1.4569   -1.7922 H   0  0  0  0  0  0  0  0  0  0  0  0
    0.1169    1.9538   -0.4961 H   0  0  0  0  0  0  0  0  0  0  0  0
    0.4450   -0.2993    0.6019 H   0  0  0  0  0  0  0  0  0  0  0  0
   -0.2138   -0.4523   -1.0356 H   0  0  0  0  0  0  0  0  0  0  0  0
    1.4962   -0.7686   -0.7341 H   0  0  0  0  0  0  0  0  0  0  0  0
   -0.0783    3.2754    0.9417 H   0  0  0  0  0  0  0  0  0  0  0  0
   -1.1036    3.6692    2.3196 H   0  0  0  0  0  0  0  0  0  0  0  0
   -2.5698    1.7797    1.9354 H   0  0  0  0  0  0  0  0  0  0  0  0
   -2.4099    2.6677    0.4229 H   0  0  0  0  0  0  0  0  0  0  0  0
   -1.5474    1.1408    0.6565 H   0  0  0  0  0  0  0  0  0  0  0  0
   -9.8881    3.2449    5.1374 H   0  0  0  0  0  0  0  0  0  0  0  0
   -8.2315    3.7805    4.7920 H   0  0  0  0  0  0  0  0  0  0  0  0
   -7.9110    1.8023    3.2939 H   0  0  0  0  0  0  0  0  0  0  0  0
   -9.5616    1.2748    3.6340 H   0  0  0  0  0  0  0  0  0  0  0  0
   -9.2805    2.7848    2.7601 H   0  0  0  0  0  0  0  0  0  0  0  0
   -5.6822    2.9852    4.9934 H   0  0  0  0  0  0  0  0  0  0  0  0
  -11.2910    1.3381    6.3208 H   0  0  0  0  0  0  0  0  0  0  0  0
  -12.7105   -0.1669    7.4481 H   0  0  0  0  0  0  0  0  0  0  0  0
  -11.0276   -4.5652   11.6251 H   0  0  0  0  0  0  0  0  0  0  0  0
  -12.8180   -6.1346   12.3778 H   0  0  0  0  0  0  0  0  0  0  0  0
  -15.6789   -4.1345    9.9109 H   0  0  0  0  0  0  0  0  0  0  0  0
  1  2  2  0  0  0  0
  2  3  1  0  0  0  0
  3  4  2  0  0  0  0
  3  5  1  0  0  0  0
  5  6  2  0  0  0  0
  6  7  1  0  0  0  0
  7  8  2  0  0  0  0
  8  9  1  0  0  0  0
  8 10  1  0  0  0  0
 10 11  2  0  0  0  0
 11 12  1  0  0  0  0
 12 13  2  0  0  0  0
 13 14  1  0  0  0  0
 14 15  3  0  0  0  0
 13 16  1  0  0  0  0
 16 17  3  0  0  0  0
  1 18  1  0  0  0  0
 18 19  2  0  0  0  0
 19 20  1  0  0  0  0
 20 21  2  0  0  0  0
 21 22  1  0  0  0  0
 22 23  2  0  0  0  0
 23 24  1  0  0  0  0
 24 25  1  0  0  0  0
 23 26  1  0  0  0  0
 26 27  2  0  0  0  0
 27 28  1  0  0  0  0
 28 29  1  0  0  0  0
 21 30  1  0  0  0  0
 30 31  1  0  0  0  0
 19 32  1  0  0  0  0
 32 33  2  0  0  0  0
 33 34  1  0  0  0  0
 33 35  1  0  0  0  0
 35 36  2  0  0  0  0
 36 37  1  0  0  0  0
 37 38  2  0  0  0  0
 38 39  1  0  0  0  0
 39 40  2  0  0  0  0
 40 41  1  0  0  0  0
 41 42  1  0  0  0  0
 42 43  1  0  0  0  0
 41 44  2  0  0  0  0
 36 45  1  0  0  0  0
 45 46  1  0  0  0  0
 46 47  1  0  0  0  0
 47 48  1  0  0  0  0
 48 49  1  0  0  0  0
 49 50  1  0  0  0  0
 50 51  2  0  0  0  0
 51 52  1  0  0  0  0
 52 53  1  0  0  0  0
 50 54  1  0  0  0  0
 54 55  1  0  0  0  0
 55 56  1  0  0  0  0
 56 57  1  0  0  0  0
 57 58  1  0  0  0  0
 58 59  1  0  0  0  0
 59 60  2  0  0  0  0
 60 61  1  0  0  0  0
 61 62  2  0  0  0  0
 62 63  1  0  0  0  0
 63 64  1  0  0  0  0
 64 65  1  0  0  0  0
 63 66  2  0  0  0  0
 58 67  2  0  0  0  0
 67 68  1  0  0  0  0
 68 69  1  0  0  0  0
 69 70  1  0  0  0  0
 70 71  1  0  0  0  0
 71 72  1  0  0  0  0
 72 73  1  0  0  0  0
 73 74  1  0  0  0  0
 74 75  1  0  0  0  0
 75 76  1  0  0  0  0
 76 77  1  0  0  0  0
 74 78  1  0  0  0  0
 78 79  1  0  0  0  0
 71 80  1  0  0  0  0
 80 81  1  0  0  0  0
 67 82  1  0  0  0  0
 82 83  1  0  0  0  0
 83 84  1  0  0  0  0
 84 85  1  0  0  0  0
 85 86  2  0  0  0  0
 86 87  1  0  0  0  0
 87 88  1  0  0  0  0
 88 89  1  0  0  0  0
 87 90  1  0  0  0  0
 90 91  1  0  0  0  0
 86 92  1  0  0  0  0
 92 93  2  0  0  0  0
 93 94  1  0  0  0  0
 93 95  1  0  0  0  0
 95 96  2  0  0  0  0
 96 97  1  0  0  0  0
 97 98  2  0  0  0  0
 97 99  1  0  0  0  0
 99100  2  0  0  0  0
100101  1  0  0  0  0
101102  2  0  0  0  0
102103  1  0  0  0  0
102104  1  0  0  0  0
104105  2  0  0  0  0
105106  1  0  0  0  0
106107  2  0  0  0  0
107108  1  0  0  0  0
108109  3  0  0  0  0
107110  1  0  0  0  0
110111  3  0  0  0  0
 12  2  1  0  0  0  0
 34 18  1  0  0  0  0
 77 35  1  0  0  0  0
 91 82  2  0  0  0  0
106 96  1  0  0  0  0
 11  5  1  0  0  0  0
 27 20  1  0  0  0  0
 44 37  1  0  0  0  0
 76 45  2  0  0  0  0
 90 84  2  0  0  0  0
105 99  1  0  0  0  0
 75 47  2  0  0  0  0
 94 85  1  0  0  0  0
 73 48  2  0  0  0  0
 53 49  2  0  0  0  0
 72 54  2  0  0  0  0
 70 55  2  0  0  0  0
 69 57  2  0  0  0  0
 66 59  1  0  0  0  0
  1112  1  0  0  0  0
  6113  1  0  0  0  0
  7114  1  0  0  0  0
 10115  1  0  0  0  0
 22116  1  0  0  0  0
 24117  1  0  0  0  0
 24118  1  0  0  0  0
 25119  1  0  0  0  0
 25120  1  0  0  0  0
 25121  1  0  0  0  0
 26122  1  0  0  0  0
 28123  1  0  0  0  0
 28124  1  0  0  0  0
 29125  1  0  0  0  0
 29126  1  0  0  0  0
 29127  1  0  0  0  0
 30128  1  0  0  0  0
 30129  1  0  0  0  0
 31130  1  0  0  0  0
 31131  1  0  0  0  0
 31132  1  0  0  0  0
 32133  1  0  0  0  0
 38134  1  0  0  0  0
 39135  1  0  0  0  0
 40136  1  0  0  0  0
 42137  1  0  0  0  0
 42138  1  0  0  0  0
 43139  1  0  0  0  0
 43140  1  0  0  0  0
 43141  1  0  0  0  0
 44142  1  0  0  0  0
 60143  1  0  0  0  0
 61144  1  0  0  0  0
 62145  1  0  0  0  0
 64146  1  0  0  0  0
 64147  1  0  0  0  0
 65148  1  0  0  0  0
 65149  1  0  0  0  0
 65150  1  0  0  0  0
 66151  1  0  0  0  0
 78152  1  0  0  0  0
 78153  1  0  0  0  0
 79154  1  0  0  0  0
 79155  1  0  0  0  0
 79156  1  0  0  0  0
 80157  1  0  0  0  0
 80158  1  0  0  0  0
 81159  1  0  0  0  0
 81160  1  0  0  0  0
 81161  1  0  0  0  0
 88162  1  0  0  0  0
 88163  1  0  0  0  0
 89164  1  0  0  0  0
 89165  1  0  0  0  0
 89166  1  0  0  0  0
 91167  1  0  0  0  0
 92168  1  0  0  0  0
 95169  1  0  0  0  0
100170  1  0  0  0  0
101171  1  0  0  0  0
104172  1  0  0  0  0
M  END
