
  xtb     02042218113D
 energy: -304.776596387971 gnorm: 0.000659197150 xtb: 6.4.1 (unknown)
190207  0     0  0            999 V2000
    8.2817    5.3857   -5.3367 C   0  0  0  0  0  0  0  0  0  0  0  0
    8.2283    5.5540   -6.6994 C   0  0  0  0  0  0  0  0  0  0  0  0
    7.0642    6.1536   -7.3911 C   0  0  0  0  0  0  0  0  0  0  0  0
    6.1549    6.7749   -6.8838 O   0  0  0  0  0  0  0  0  0  0  0  0
    7.3529    6.0147   -8.8323 C   0  0  0  0  0  0  0  0  0  0  0  0
    6.5511    6.3181   -9.9143 C   0  0  0  0  0  0  0  0  0  0  0  0
    7.0269    6.0518  -11.1883 C   0  0  0  0  0  0  0  0  0  0  0  0
    8.2956    5.5091  -11.3508 C   0  0  0  0  0  0  0  0  0  0  0  0
    8.8662    5.1763  -12.9427 Cl  0  0  0  0  0  0  0  0  0  0  0  0
    9.1242    5.2226  -10.2704 C   0  0  0  0  0  0  0  0  0  0  0  0
    8.6402    5.4776   -8.9992 C   0  0  0  0  0  0  0  0  0  0  0  0
    9.2328    5.2438   -7.6800 C   0  0  0  0  0  0  0  0  0  0  0  0
   10.4709    4.6994   -7.4425 C   0  0  0  0  0  0  0  0  0  0  0  0
   11.3921    4.3476   -8.4481 C   0  0  0  0  0  0  0  0  0  0  0  0
   12.1870    4.0398   -9.2178 N   0  0  0  0  0  0  0  0  0  0  0  0
   10.9762    4.4117   -6.1593 C   0  0  0  0  0  0  0  0  0  0  0  0
   11.4351    4.1375   -5.1425 N   0  0  0  0  0  0  0  0  0  0  0  0
    7.1363    5.1047   -4.5660 C   0  0  0  0  0  0  0  0  0  0  0  0
    6.0276    4.3480   -4.9652 C   0  0  0  0  0  0  0  0  0  0  0  0
    5.8687    3.8061   -6.3286 C   0  0  0  0  0  0  0  0  0  0  0  0
    4.8245    4.2486   -7.1444 C   0  0  0  0  0  0  0  0  0  0  0  0
    4.7701    3.8249   -8.4652 C   0  0  0  0  0  0  0  0  0  0  0  0
    5.7219    2.9717   -8.9954 C   0  0  0  0  0  0  0  0  0  0  0  0
    5.6658    2.5443  -10.4334 C   0  0  0  0  0  0  0  0  0  0  0  0
    4.8796    1.2403  -10.5809 C   0  0  0  0  0  0  0  0  0  0  0  0
    6.7051    2.4798   -8.1488 C   0  0  0  0  0  0  0  0  0  0  0  0
    6.7915    2.8721   -6.8230 C   0  0  0  0  0  0  0  0  0  0  0  0
    7.8243    2.2216   -5.9421 C   0  0  0  0  0  0  0  0  0  0  0  0
    7.1737    1.1798   -5.0301 C   0  0  0  0  0  0  0  0  0  0  0  0
    3.7548    5.1760   -6.6404 C   0  0  0  0  0  0  0  0  0  0  0  0
    2.4538    4.4169   -6.3756 C   0  0  0  0  0  0  0  0  0  0  0  0
    5.1753    4.0729   -3.8996 C   0  0  0  0  0  0  0  0  0  0  0  0
    5.5861    4.5995   -2.6848 C   0  0  0  0  0  0  0  0  0  0  0  0
    7.0979    5.4321   -2.8518 S   0  0  0  0  0  0  0  0  0  0  0  0
    4.9262    4.4187   -1.4437 C   0  0  0  0  0  0  0  0  0  0  0  0
    5.2731    4.8615   -0.1771 C   0  0  0  0  0  0  0  0  0  0  0  0
    6.3404    5.8112    0.1489 C   0  0  0  0  0  0  0  0  0  0  0  0
    6.3675    7.0766   -0.4306 C   0  0  0  0  0  0  0  0  0  0  0  0
    7.3496    7.9764   -0.0639 C   0  0  0  0  0  0  0  0  0  0  0  0
    8.2997    7.6271    0.8800 C   0  0  0  0  0  0  0  0  0  0  0  0
    8.2788    6.3725    1.4758 C   0  0  0  0  0  0  0  0  0  0  0  0
    9.2627    6.0092    2.5494 C   0  0  0  0  0  0  0  0  0  0  0  0
    8.6693    6.3038    3.9287 C   0  0  0  0  0  0  0  0  0  0  0  0
    7.2901    5.4735    1.1053 C   0  0  0  0  0  0  0  0  0  0  0  0
    4.4357    4.3071    0.8064 C   0  0  0  0  0  0  0  0  0  0  0  0
    4.4070    4.4544    2.5470 S   0  0  0  0  0  0  0  0  0  0  0  0
    3.0433    3.3894    2.5912 C   0  0  0  0  0  0  0  0  0  0  0  0
    2.1831    2.7986    3.5349 C   0  0  0  0  0  0  0  0  0  0  0  0
    2.0232    2.9514    4.9311 C   0  0  0  0  0  0  0  0  0  0  0  0
    0.9329    2.2807    5.5931 C   0  0  0  0  0  0  0  0  0  0  0  0
    0.8711    2.5760    6.8816 N   0  0  0  0  0  0  0  0  0  0  0  0
    2.0759    3.5955    7.2379 S   0  0  0  0  0  0  0  0  0  0  0  0
    2.7266    3.7058    5.7604 N   0  0  0  0  0  0  0  0  0  0  0  0
    0.1331    1.3733    4.8612 C   0  0  0  0  0  0  0  0  0  0  0  0
   -0.8867    0.4744    5.2258 C   0  0  0  0  0  0  0  0  0  0  0  0
   -1.8135    0.0291    6.6201 S   0  0  0  0  0  0  0  0  0  0  0  0
   -2.6110   -1.2026    5.6703 C   0  0  0  0  0  0  0  0  0  0  0  0
   -3.6184   -2.1367    5.9676 C   0  0  0  0  0  0  0  0  0  0  0  0
   -4.2842   -2.2414    7.2682 C   0  0  0  0  0  0  0  0  0  0  0  0
   -3.5360   -2.3490    8.4355 C   0  0  0  0  0  0  0  0  0  0  0  0
   -4.1801   -2.4746    9.6521 C   0  0  0  0  0  0  0  0  0  0  0  0
   -5.5624   -2.4934    9.7145 C   0  0  0  0  0  0  0  0  0  0  0  0
   -6.3251   -2.3577    8.5611 C   0  0  0  0  0  0  0  0  0  0  0  0
   -7.8249   -2.4061    8.6039 C   0  0  0  0  0  0  0  0  0  0  0  0
   -8.3352   -3.7582    8.1013 C   0  0  0  0  0  0  0  0  0  0  0  0
   -5.6730   -2.2215    7.3457 C   0  0  0  0  0  0  0  0  0  0  0  0
   -3.9364   -2.9049    4.8578 C   0  0  0  0  0  0  0  0  0  0  0  0
   -3.0124   -2.4460    3.4305 S   0  0  0  0  0  0  0  0  0  0  0  0
   -2.1718   -1.2475    4.3444 C   0  0  0  0  0  0  0  0  0  0  0  0
   -1.1872   -0.2879    4.0913 C   0  0  0  0  0  0  0  0  0  0  0  0
   -0.4133    0.1114    3.0300 N   0  0  0  0  0  0  0  0  0  0  0  0
    0.3804    1.1502    3.4816 C   0  0  0  0  0  0  0  0  0  0  0  0
    1.2932    1.9777    2.7960 C   0  0  0  0  0  0  0  0  0  0  0  0
    1.5524    2.1102    1.4434 N   0  0  0  0  0  0  0  0  0  0  0  0
    2.6287    2.9563    1.3256 C   0  0  0  0  0  0  0  0  0  0  0  0
    3.4276    3.4789    0.3050 C   0  0  0  0  0  0  0  0  0  0  0  0
    3.5190    3.3522   -1.4141 S   0  0  0  0  0  0  0  0  0  0  0  0
    0.5789    2.0080    0.3740 C   0  0  0  0  0  0  0  0  0  0  0  0
    0.0408    3.3829   -0.0216 C   0  0  0  0  0  0  0  0  0  0  0  0
   -0.0896   -0.8263    1.9732 C   0  0  0  0  0  0  0  0  0  0  0  0
    0.5720   -2.0859    2.5321 C   0  0  0  0  0  0  0  0  0  0  0  0
   -4.8209   -4.0164    4.7760 C   0  0  0  0  0  0  0  0  0  0  0  0
   -5.4169   -4.5256    3.6222 C   0  0  0  0  0  0  0  0  0  0  0  0
   -5.2685   -3.9134    2.2876 C   0  0  0  0  0  0  0  0  0  0  0  0
   -4.4313   -4.5078    1.3417 C   0  0  0  0  0  0  0  0  0  0  0  0
   -4.3100   -3.9239    0.0893 C   0  0  0  0  0  0  0  0  0  0  0  0
   -4.9997   -2.7692   -0.2425 C   0  0  0  0  0  0  0  0  0  0  0  0
   -4.8903   -2.1756   -1.6180 C   0  0  0  0  0  0  0  0  0  0  0  0
   -5.9750   -2.7477   -2.5325 C   0  0  0  0  0  0  0  0  0  0  0  0
   -5.8280   -2.1944    0.7108 C   0  0  0  0  0  0  0  0  0  0  0  0
   -5.9704   -2.7451    1.9737 C   0  0  0  0  0  0  0  0  0  0  0  0
   -6.8975   -2.1005    2.9673 C   0  0  0  0  0  0  0  0  0  0  0  0
   -8.2529   -2.8081    2.9986 C   0  0  0  0  0  0  0  0  0  0  0  0
   -3.6568   -5.7601    1.6459 C   0  0  0  0  0  0  0  0  0  0  0  0
   -4.3469   -6.9980    1.0700 C   0  0  0  0  0  0  0  0  0  0  0  0
   -6.1988   -5.6502    3.8675 C   0  0  0  0  0  0  0  0  0  0  0  0
   -6.2113   -6.0503    5.1937 C   0  0  0  0  0  0  0  0  0  0  0  0
   -5.2266   -4.9674    6.1650 S   0  0  0  0  0  0  0  0  0  0  0  0
   -6.8745   -7.0824    5.8792 C   0  0  0  0  0  0  0  0  0  0  0  0
   -7.5988   -8.1520    5.4209 C   0  0  0  0  0  0  0  0  0  0  0  0
   -7.7492   -8.6333    4.0300 C   0  0  0  0  0  0  0  0  0  0  0  0
   -7.3751   -8.1150    2.9962 O   0  0  0  0  0  0  0  0  0  0  0  0
   -8.4417   -9.9326    4.1316 C   0  0  0  0  0  0  0  0  0  0  0  0
   -8.7820  -10.7993    3.1145 C   0  0  0  0  0  0  0  0  0  0  0  0
   -9.4384  -11.9866    3.4312 C   0  0  0  0  0  0  0  0  0  0  0  0
   -9.8063  -12.9595    2.3568 C   0  0  0  0  0  0  0  0  0  0  0  0
   -9.7252  -12.2623    4.7663 C   0  0  0  0  0  0  0  0  0  0  0  0
   -9.3866  -11.3939    5.7933 C   0  0  0  0  0  0  0  0  0  0  0  0
   -8.7380  -10.2100    5.4761 C   0  0  0  0  0  0  0  0  0  0  0  0
   -8.2658   -9.1006    6.2974 C   0  0  0  0  0  0  0  0  0  0  0  0
   -8.4835   -8.9722    7.6458 C   0  0  0  0  0  0  0  0  0  0  0  0
   -8.1222   -7.8720    8.4506 C   0  0  0  0  0  0  0  0  0  0  0  0
   -7.8899   -7.0195    9.1858 N   0  0  0  0  0  0  0  0  0  0  0  0
   -9.1497   -9.9368    8.4307 C   0  0  0  0  0  0  0  0  0  0  0  0
   -9.6762  -10.6774    9.1327 N   0  0  0  0  0  0  0  0  0  0  0  0
    9.2327    5.3937   -4.8188 H   0  0  0  0  0  0  0  0  0  0  0  0
    5.5708    6.7406   -9.7600 H   0  0  0  0  0  0  0  0  0  0  0  0
    6.4226    6.2596  -12.0573 H   0  0  0  0  0  0  0  0  0  0  0  0
   10.1060    4.8125  -10.4409 H   0  0  0  0  0  0  0  0  0  0  0  0
    3.9747    4.1917   -9.0988 H   0  0  0  0  0  0  0  0  0  0  0  0
    6.6798    2.4000  -10.8126 H   0  0  0  0  0  0  0  0  0  0  0  0
    5.1884    3.3242  -11.0301 H   0  0  0  0  0  0  0  0  0  0  0  0
    3.8618    1.3702  -10.2197 H   0  0  0  0  0  0  0  0  0  0  0  0
    4.8427    0.9337  -11.6235 H   0  0  0  0  0  0  0  0  0  0  0  0
    5.3491    0.4482  -10.0021 H   0  0  0  0  0  0  0  0  0  0  0  0
    7.4298    1.7768   -8.5357 H   0  0  0  0  0  0  0  0  0  0  0  0
    8.5697    1.7285   -6.5696 H   0  0  0  0  0  0  0  0  0  0  0  0
    8.3475    2.9554   -5.3274 H   0  0  0  0  0  0  0  0  0  0  0  0
    6.4537    1.6504   -4.3644 H   0  0  0  0  0  0  0  0  0  0  0  0
    7.9306    0.6843   -4.4269 H   0  0  0  0  0  0  0  0  0  0  0  0
    6.6545    0.4303   -5.6235 H   0  0  0  0  0  0  0  0  0  0  0  0
    3.5710    5.9469   -7.3906 H   0  0  0  0  0  0  0  0  0  0  0  0
    4.0861    5.6765   -5.7314 H   0  0  0  0  0  0  0  0  0  0  0  0
    1.6847    5.0988   -6.0202 H   0  0  0  0  0  0  0  0  0  0  0  0
    2.0996    3.9390   -7.2863 H   0  0  0  0  0  0  0  0  0  0  0  0
    2.6027    3.6433   -5.6257 H   0  0  0  0  0  0  0  0  0  0  0  0
    4.2807    3.4821   -3.9938 H   0  0  0  0  0  0  0  0  0  0  0  0
    5.6117    7.3549   -1.1502 H   0  0  0  0  0  0  0  0  0  0  0  0
    7.3704    8.9582   -0.5130 H   0  0  0  0  0  0  0  0  0  0  0  0
    9.0637    8.3374    1.1611 H   0  0  0  0  0  0  0  0  0  0  0  0
    9.5081    4.9476    2.4827 H   0  0  0  0  0  0  0  0  0  0  0  0
   10.1825    6.5823    2.4205 H   0  0  0  0  0  0  0  0  0  0  0  0
    8.4342    7.3618    4.0207 H   0  0  0  0  0  0  0  0  0  0  0  0
    9.3751    6.0354    4.7112 H   0  0  0  0  0  0  0  0  0  0  0  0
    7.7529    5.7369    4.0760 H   0  0  0  0  0  0  0  0  0  0  0  0
    7.2624    4.4922    1.5570 H   0  0  0  0  0  0  0  0  0  0  0  0
   -2.4578   -2.3518    8.3826 H   0  0  0  0  0  0  0  0  0  0  0  0
   -3.5988   -2.5659   10.5575 H   0  0  0  0  0  0  0  0  0  0  0  0
   -6.0562   -2.6094   10.6680 H   0  0  0  0  0  0  0  0  0  0  0  0
   -8.2360   -1.6111    7.9762 H   0  0  0  0  0  0  0  0  0  0  0  0
   -8.1718   -2.2472    9.6259 H   0  0  0  0  0  0  0  0  0  0  0  0
   -9.4213   -3.7921    8.1444 H   0  0  0  0  0  0  0  0  0  0  0  0
   -8.0267   -3.9243    7.0710 H   0  0  0  0  0  0  0  0  0  0  0  0
   -7.9415   -4.5674    8.7114 H   0  0  0  0  0  0  0  0  0  0  0  0
   -6.2533   -2.0955    6.4419 H   0  0  0  0  0  0  0  0  0  0  0  0
   -0.2573    1.3994    0.7135 H   0  0  0  0  0  0  0  0  0  0  0  0
    1.0541    1.5329   -0.4906 H   0  0  0  0  0  0  0  0  0  0  0  0
   -0.7304    3.2657   -0.7778 H   0  0  0  0  0  0  0  0  0  0  0  0
    0.8287    4.0105   -0.4278 H   0  0  0  0  0  0  0  0  0  0  0  0
   -0.3908    3.8797    0.8446 H   0  0  0  0  0  0  0  0  0  0  0  0
   -1.0135   -1.0938    1.4498 H   0  0  0  0  0  0  0  0  0  0  0  0
    0.6034   -0.3571    1.2781 H   0  0  0  0  0  0  0  0  0  0  0  0
    1.4645   -1.8221    3.0955 H   0  0  0  0  0  0  0  0  0  0  0  0
   -0.1066   -2.6273    3.1847 H   0  0  0  0  0  0  0  0  0  0  0  0
    0.8562   -2.7396    1.7122 H   0  0  0  0  0  0  0  0  0  0  0  0
   -3.6543   -4.3794   -0.6398 H   0  0  0  0  0  0  0  0  0  0  0  0
   -3.9086   -2.3983   -2.0414 H   0  0  0  0  0  0  0  0  0  0  0  0
   -5.0014   -1.0904   -1.5638 H   0  0  0  0  0  0  0  0  0  0  0  0
   -5.8990   -2.3198   -3.5295 H   0  0  0  0  0  0  0  0  0  0  0  0
   -5.8733   -3.8279   -2.6084 H   0  0  0  0  0  0  0  0  0  0  0  0
   -6.9617   -2.5256   -2.1327 H   0  0  0  0  0  0  0  0  0  0  0  0
   -6.3709   -1.2918    0.4662 H   0  0  0  0  0  0  0  0  0  0  0  0
   -7.0464   -1.0538    2.6936 H   0  0  0  0  0  0  0  0  0  0  0  0
   -6.4562   -2.1234    3.9659 H   0  0  0  0  0  0  0  0  0  0  0  0
   -8.7087   -2.7920    2.0111 H   0  0  0  0  0  0  0  0  0  0  0  0
   -8.9226   -2.3128    3.6984 H   0  0  0  0  0  0  0  0  0  0  0  0
   -8.1371   -3.8452    3.3051 H   0  0  0  0  0  0  0  0  0  0  0  0
   -3.5389   -5.8806    2.7241 H   0  0  0  0  0  0  0  0  0  0  0  0
   -2.6600   -5.6729    1.2059 H   0  0  0  0  0  0  0  0  0  0  0  0
   -4.5060   -6.8792    0.0006 H   0  0  0  0  0  0  0  0  0  0  0  0
   -5.3101   -7.1629    1.5446 H   0  0  0  0  0  0  0  0  0  0  0  0
   -3.7307   -7.8796    1.2328 H   0  0  0  0  0  0  0  0  0  0  0  0
   -6.7534   -6.1612    3.1031 H   0  0  0  0  0  0  0  0  0  0  0  0
   -6.7648   -7.0098    6.9549 H   0  0  0  0  0  0  0  0  0  0  0  0
   -8.5403  -10.5487    2.0924 H   0  0  0  0  0  0  0  0  0  0  0  0
  -10.6910  -13.5288    2.6316 H   0  0  0  0  0  0  0  0  0  0  0  0
   -8.9880  -13.6636    2.2016 H   0  0  0  0  0  0  0  0  0  0  0  0
   -9.9895  -12.4463    1.4160 H   0  0  0  0  0  0  0  0  0  0  0  0
  -10.2308  -13.1852    5.0114 H   0  0  0  0  0  0  0  0  0  0  0  0
   -9.6280  -11.6515    6.8113 H   0  0  0  0  0  0  0  0  0  0  0  0
  1  2  2  0  0  0  0
  2  3  1  0  0  0  0
  3  4  2  0  0  0  0
  3  5  1  0  0  0  0
  5  6  2  0  0  0  0
  6  7  1  0  0  0  0
  7  8  2  0  0  0  0
  8  9  1  0  0  0  0
  8 10  1  0  0  0  0
 10 11  2  0  0  0  0
 11 12  1  0  0  0  0
 12 13  2  0  0  0  0
 13 14  1  0  0  0  0
 14 15  3  0  0  0  0
 13 16  1  0  0  0  0
 16 17  3  0  0  0  0
  1 18  1  0  0  0  0
 18 19  2  0  0  0  0
 19 20  1  0  0  0  0
 20 21  2  0  0  0  0
 21 22  1  0  0  0  0
 22 23  2  0  0  0  0
 23 24  1  0  0  0  0
 24 25  1  0  0  0  0
 23 26  1  0  0  0  0
 26 27  2  0  0  0  0
 27 28  1  0  0  0  0
 28 29  1  0  0  0  0
 21 30  1  0  0  0  0
 30 31  1  0  0  0  0
 19 32  1  0  0  0  0
 32 33  2  0  0  0  0
 33 34  1  0  0  0  0
 33 35  1  0  0  0  0
 35 36  2  0  0  0  0
 36 37  1  0  0  0  0
 37 38  2  0  0  0  0
 38 39  1  0  0  0  0
 39 40  2  0  0  0  0
 40 41  1  0  0  0  0
 41 42  1  0  0  0  0
 42 43  1  0  0  0  0
 41 44  2  0  0  0  0
 36 45  1  0  0  0  0
 45 46  1  0  0  0  0
 46 47  1  0  0  0  0
 47 48  1  0  0  0  0
 48 49  1  0  0  0  0
 49 50  1  0  0  0  0
 50 51  2  0  0  0  0
 51 52  1  0  0  0  0
 52 53  1  0  0  0  0
 50 54  1  0  0  0  0
 54 55  1  0  0  0  0
 55 56  1  0  0  0  0
 56 57  1  0  0  0  0
 57 58  1  0  0  0  0
 58 59  1  0  0  0  0
 59 60  2  0  0  0  0
 60 61  1  0  0  0  0
 61 62  2  0  0  0  0
 62 63  1  0  0  0  0
 63 64  1  0  0  0  0
 64 65  1  0  0  0  0
 63 66  2  0  0  0  0
 58 67  2  0  0  0  0
 67 68  1  0  0  0  0
 68 69  1  0  0  0  0
 69 70  1  0  0  0  0
 70 71  1  0  0  0  0
 71 72  1  0  0  0  0
 72 73  1  0  0  0  0
 73 74  1  0  0  0  0
 74 75  1  0  0  0  0
 75 76  1  0  0  0  0
 76 77  1  0  0  0  0
 74 78  1  0  0  0  0
 78 79  1  0  0  0  0
 71 80  1  0  0  0  0
 80 81  1  0  0  0  0
 67 82  1  0  0  0  0
 82 83  2  0  0  0  0
 83 84  1  0  0  0  0
 84 85  2  0  0  0  0
 85 86  1  0  0  0  0
 86 87  2  0  0  0  0
 87 88  1  0  0  0  0
 88 89  1  0  0  0  0
 87 90  1  0  0  0  0
 90 91  2  0  0  0  0
 91 92  1  0  0  0  0
 92 93  1  0  0  0  0
 85 94  1  0  0  0  0
 94 95  1  0  0  0  0
 83 96  1  0  0  0  0
 96 97  2  0  0  0  0
 97 98  1  0  0  0  0
 97 99  1  0  0  0  0
 99100  2  0  0  0  0
100101  1  0  0  0  0
101102  2  0  0  0  0
101103  1  0  0  0  0
103104  2  0  0  0  0
104105  1  0  0  0  0
105106  1  0  0  0  0
105107  2  0  0  0  0
107108  1  0  0  0  0
108109  2  0  0  0  0
109110  1  0  0  0  0
110111  2  0  0  0  0
111112  1  0  0  0  0
112113  3  0  0  0  0
111114  1  0  0  0  0
114115  3  0  0  0  0
 12  2  1  0  0  0  0
 34 18  1  0  0  0  0
 77 35  1  0  0  0  0
 98 82  1  0  0  0  0
110100  1  0  0  0  0
 11  5  1  0  0  0  0
 27 20  1  0  0  0  0
 44 37  1  0  0  0  0
 76 45  2  0  0  0  0
 91 84  1  0  0  0  0
109103  1  0  0  0  0
 75 47  2  0  0  0  0
 73 48  2  0  0  0  0
 53 49  2  0  0  0  0
 72 54  2  0  0  0  0
 70 55  2  0  0  0  0
 69 57  2  0  0  0  0
 66 59  1  0  0  0  0
  1116  1  0  0  0  0
  6117  1  0  0  0  0
  7118  1  0  0  0  0
 10119  1  0  0  0  0
 22120  1  0  0  0  0
 24121  1  0  0  0  0
 24122  1  0  0  0  0
 25123  1  0  0  0  0
 25124  1  0  0  0  0
 25125  1  0  0  0  0
 26126  1  0  0  0  0
 28127  1  0  0  0  0
 28128  1  0  0  0  0
 29129  1  0  0  0  0
 29130  1  0  0  0  0
 29131  1  0  0  0  0
 30132  1  0  0  0  0
 30133  1  0  0  0  0
 31134  1  0  0  0  0
 31135  1  0  0  0  0
 31136  1  0  0  0  0
 32137  1  0  0  0  0
 38138  1  0  0  0  0
 39139  1  0  0  0  0
 40140  1  0  0  0  0
 42141  1  0  0  0  0
 42142  1  0  0  0  0
 43143  1  0  0  0  0
 43144  1  0  0  0  0
 43145  1  0  0  0  0
 44146  1  0  0  0  0
 60147  1  0  0  0  0
 61148  1  0  0  0  0
 62149  1  0  0  0  0
 64150  1  0  0  0  0
 64151  1  0  0  0  0
 65152  1  0  0  0  0
 65153  1  0  0  0  0
 65154  1  0  0  0  0
 66155  1  0  0  0  0
 78156  1  0  0  0  0
 78157  1  0  0  0  0
 79158  1  0  0  0  0
 79159  1  0  0  0  0
 79160  1  0  0  0  0
 80161  1  0  0  0  0
 80162  1  0  0  0  0
 81163  1  0  0  0  0
 81164  1  0  0  0  0
 81165  1  0  0  0  0
 86166  1  0  0  0  0
 88167  1  0  0  0  0
 88168  1  0  0  0  0
 89169  1  0  0  0  0
 89170  1  0  0  0  0
 89171  1  0  0  0  0
 90172  1  0  0  0  0
 92173  1  0  0  0  0
 92174  1  0  0  0  0
 93175  1  0  0  0  0
 93176  1  0  0  0  0
 93177  1  0  0  0  0
 94178  1  0  0  0  0
 94179  1  0  0  0  0
 95180  1  0  0  0  0
 95181  1  0  0  0  0
 95182  1  0  0  0  0
 96183  1  0  0  0  0
 99184  1  0  0  0  0
104185  1  0  0  0  0
106186  1  0  0  0  0
106187  1  0  0  0  0
106188  1  0  0  0  0
107189  1  0  0  0  0
108190  1  0  0  0  0
M  END
