172

C          6.11660       -0.38410       -9.02120
C          7.39900       -0.78220       -9.31690
C          8.51000       -0.87720       -8.36650
O          8.51150       -0.57880       -7.18430
C          9.64790       -1.42610       -9.12880
C         10.92300       -1.72590       -8.69100
C         11.82960       -2.24930       -9.59960
C         11.44130       -2.46050      -10.91690
Cl        12.57990       -3.11780      -12.03120
C         10.16020       -2.16000      -11.37110
C          9.25730       -1.63550      -10.46280
C          7.86160       -1.21530      -10.61580
C          7.16190       -1.20960      -11.79600
C          7.68960       -1.64760      -13.02860
N          8.05200       -1.99030      -14.06290
C          5.83860       -0.75380      -11.97600
N          4.77710       -0.39330      -12.22880
C          5.56360        0.07300       -7.82330
C          4.21110        0.45440       -7.73250
C          3.28560        0.35420       -8.87610
C          3.03460        1.47220       -9.67240
C          2.18570        1.34690      -10.76090
C          1.58470        0.13920      -11.07670
C          0.64410        0.03040      -12.24110
C         -0.79160        0.32110      -11.79950
C          1.83870       -0.95770      -10.26760
C          2.68540       -0.87170       -9.17450
C          2.90750       -2.08060       -8.30670
C          1.93590       -2.08820       -7.12500
C          3.71320        2.78880       -9.41090
C          5.03120        2.88190      -10.18260
C          3.86640        0.90600       -6.47150
C          4.92380        0.87800       -5.56740
S          6.38380        0.28980       -6.29330
C          4.82200        1.18710       -4.18920
C          5.80700        1.21990       -3.21450
C          7.24930        1.11900       -3.45250
C          7.88950        1.99370       -4.32580
C          9.25470        1.90060       -4.50950
C          9.98780        0.94790       -3.82370
C          9.36610        0.07820       -2.93810
C         10.16000       -0.91280       -2.13730
C         10.49240       -0.33290       -0.76080
C          7.99480        0.17630       -2.75650
C          5.25560        1.38330       -1.93210
S          5.97290        1.43660       -0.33870
C          4.38890        1.59950        0.34110
C          3.76780        1.62390        1.60100
C          4.28750        1.42890        2.89980
C          3.37430        1.26650        3.99620
N          3.99530        1.00820        5.13640
S          5.58970        0.98030        4.85830
N          5.55090        1.29100        3.27000
C          1.99230        1.44320        3.76680
C          0.89050        1.43370        4.63820
S          0.53660        1.08260        6.29530
C         -1.14400        1.44490        5.98780
C         -2.29200        1.39360        6.80470
C         -2.26710        1.03000        8.22210
C         -1.56040       -0.09130        8.64420
C         -1.53670       -0.42300        9.98580
C         -2.20620        0.35810       10.91010
C         -2.90590        1.48970       10.50710
C         -3.58790        2.36570       11.51810
C         -2.59720        3.36840       12.11290
C         -2.92460        1.81890        9.16170
C         -3.42540        1.75660        6.10170
S         -3.06260        2.20640        4.43730
C         -1.38950        1.84510        4.67240
C         -0.22700        1.81920        3.89210
N          0.13490        2.04080        2.58800
C          1.49050        1.78060        2.47980
C          2.36870        1.73180        1.36770
N          2.14720        1.74450       -0.00140
C          3.36950        1.64130       -0.61420
C          3.86330        1.50750       -1.91580
S          3.20830        1.41650       -3.50990
C          0.97070        1.32430       -0.73140
C          0.65120       -0.14320       -0.45500
C         -0.70390        2.84060        1.72270
C         -1.87790        2.05280        1.14390
C         -4.80070        1.66430        6.45750
S         -5.34620        0.55090        7.70540
C         -6.99060        0.88480        7.28880
C         -8.29040        0.48880        7.59500
C         -9.14290        1.23870        6.73500
N         -8.39410        2.08390        5.95320
C         -8.88260        2.90600        4.87650
C         -8.91080        2.14220        3.55400
C         -7.08160        1.84730        6.25760
C         -5.84060        2.27700        5.78700
C        -10.47440        0.90990        6.87420
C        -10.67180       -0.10370        7.82250
S         -9.16160       -0.62050        8.57990
C        -11.94170       -0.64410        8.04370
C        -12.35040       -1.68480        8.84460
C        -11.49370       -2.45750        9.74960
O        -10.30760       -2.29470        9.97350
C        -12.36330       -3.48520       10.35340
C        -12.03840       -4.47660       11.25840
C        -13.03450       -5.34630       11.67440
C        -14.32490       -5.20430       11.17890
Cl       -15.54950       -6.29810       11.70240
C        -14.66550       -4.20710       10.26910
C        -13.66940       -3.34000        9.85510
C        -13.69380       -2.21480        8.91640
C        -14.80470       -1.78320        8.23570
C        -16.08630       -2.35920        8.36020
N        -17.15630       -2.77310        8.40810
C        -14.84790       -0.71690        7.31440
N        -14.97400        0.13110        6.54860
H          5.39400       -0.42570       -9.82880
H         11.19590       -1.55320       -7.66150
H         12.83420       -2.49630       -9.29470
H          9.90170       -2.34100      -12.40110
H          2.00160        2.21110      -11.38340
H          0.93490        0.74080      -13.01650
H          0.69570       -0.97470      -12.66310
H         -1.47390        0.24110      -12.64270
H         -1.10270       -0.38550      -11.03300
H         -0.86500        1.32530      -11.38730
H          1.37830       -1.90760      -10.50090
H          2.75270       -2.98290       -8.90170
H          3.93160       -2.09790       -7.92860
H          0.90860       -2.05860       -7.48130
H          2.10430       -1.22280       -6.48850
H          2.07170       -2.98760       -6.52840
H          3.05670        3.60000       -9.73280
H          3.90920        2.91290       -8.34400
H          4.86480        2.67330      -11.23690
H          5.75000        2.15880       -9.80320
H          5.45930        3.87710      -10.08450
H          2.87940        1.24760       -6.20730
H          7.31610        2.74630       -4.84710
H          9.75100        2.57650       -5.18980
H         11.05540        0.88030       -3.97570
H          9.58430       -1.83190       -2.01080
H         11.08570       -1.15830       -2.66090
H          9.57970       -0.08440       -0.22400
H         11.08350        0.57410       -0.86600
H         11.05890       -1.05040       -0.17170
H          7.49520       -0.49940       -2.07680
H         -1.04900       -0.70780        7.92070
H         -0.99430       -1.29830       10.31090
H         -2.18770        0.08940       11.95640
H         -4.00110        1.74960       12.31900
H         -4.40990        2.90630       11.04490
H         -2.18150        3.99950       11.33030
H         -3.09090        4.00250       12.84550
H         -1.77730        2.84660       12.60120
H         -3.45070        2.70500        8.83420
H          1.19720        1.45690       -1.79220
H          0.11690        1.95380       -0.49610
H          0.44500       -0.29930        0.60190
H         -0.21380       -0.45230       -1.03560
H          1.49620       -0.76860       -0.73410
H         -0.07830        3.27540        0.94170
H         -1.10360        3.66920        2.31960
H         -2.56980        1.77970        1.93540
H         -2.40990        2.66770        0.42290
H         -1.54740        1.14080        0.65650
H         -9.88810        3.24490        5.13740
H         -8.23150        3.78050        4.79200
H         -7.91100        1.80230        3.29390
H         -9.56160        1.27480        3.63400
H         -9.28050        2.78480        2.76010
H         -5.68220        2.98520        4.99340
H        -11.29100        1.33810        6.32080
H        -12.71050       -0.16690        7.44810
H        -11.02760       -4.56520       11.62510
H        -12.81800       -6.13460       12.37780
H        -15.67890       -4.13450        9.91090
