190

C          8.28170        5.38570       -5.33670
C          8.22830        5.55400       -6.69940
C          7.06420        6.15360       -7.39110
O          6.15490        6.77490       -6.88380
C          7.35290        6.01470       -8.83230
C          6.55110        6.31810       -9.91430
C          7.02690        6.05180      -11.18830
C          8.29560        5.50910      -11.35080
Cl         8.86620        5.17630      -12.94270
C          9.12420        5.22260      -10.27040
C          8.64020        5.47760       -8.99920
C          9.23280        5.24380       -7.68000
C         10.47090        4.69940       -7.44250
C         11.39210        4.34760       -8.44810
N         12.18700        4.03980       -9.21780
C         10.97620        4.41170       -6.15930
N         11.43510        4.13750       -5.14250
C          7.13630        5.10470       -4.56600
C          6.02760        4.34800       -4.96520
C          5.86870        3.80610       -6.32860
C          4.82450        4.24860       -7.14440
C          4.77010        3.82490       -8.46520
C          5.72190        2.97170       -8.99540
C          5.66580        2.54430      -10.43340
C          4.87960        1.24030      -10.58090
C          6.70510        2.47980       -8.14880
C          6.79150        2.87210       -6.82300
C          7.82430        2.22160       -5.94210
C          7.17370        1.17980       -5.03010
C          3.75480        5.17600       -6.64040
C          2.45380        4.41690       -6.37560
C          5.17530        4.07290       -3.89960
C          5.58610        4.59950       -2.68480
S          7.09790        5.43210       -2.85180
C          4.92620        4.41870       -1.44370
C          5.27310        4.86150       -0.17710
C          6.34040        5.81120        0.14890
C          6.36750        7.07660       -0.43060
C          7.34960        7.97640       -0.06390
C          8.29970        7.62710        0.88000
C          8.27880        6.37250        1.47580
C          9.26270        6.00920        2.54940
C          8.66930        6.30380        3.92870
C          7.29010        5.47350        1.10530
C          4.43570        4.30710        0.80640
S          4.40700        4.45440        2.54700
C          3.04330        3.38940        2.59120
C          2.18310        2.79860        3.53490
C          2.02320        2.95140        4.93110
C          0.93290        2.28070        5.59310
N          0.87110        2.57600        6.88160
S          2.07590        3.59550        7.23790
N          2.72660        3.70580        5.76040
C          0.13310        1.37330        4.86120
C         -0.88670        0.47440        5.22580
S         -1.81350        0.02910        6.62010
C         -2.61100       -1.20260        5.67030
C         -3.61840       -2.13670        5.96760
C         -4.28420       -2.24140        7.26820
C         -3.53600       -2.34900        8.43550
C         -4.18010       -2.47460        9.65210
C         -5.56240       -2.49340        9.71450
C         -6.32510       -2.35770        8.56110
C         -7.82490       -2.40610        8.60390
C         -8.33520       -3.75820        8.10130
C         -5.67300       -2.22150        7.34570
C         -3.93640       -2.90490        4.85780
S         -3.01240       -2.44600        3.43050
C         -2.17180       -1.24750        4.34440
C         -1.18720       -0.28790        4.09130
N         -0.41330        0.11140        3.03000
C          0.38040        1.15020        3.48160
C          1.29320        1.97770        2.79600
N          1.55240        2.11020        1.44340
C          2.62870        2.95630        1.32560
C          3.42760        3.47890        0.30500
S          3.51900        3.35220       -1.41410
C          0.57890        2.00800        0.37400
C          0.04080        3.38290       -0.02160
C         -0.08960       -0.82630        1.97320
C          0.57200       -2.08590        2.53210
C         -4.82090       -4.01640        4.77600
C         -5.41690       -4.52560        3.62220
C         -5.26850       -3.91340        2.28760
C         -4.43130       -4.50780        1.34170
C         -4.31000       -3.92390        0.08930
C         -4.99970       -2.76920       -0.24250
C         -4.89030       -2.17560       -1.61800
C         -5.97500       -2.74770       -2.53250
C         -5.82800       -2.19440        0.71080
C         -5.97040       -2.74510        1.97370
C         -6.89750       -2.10050        2.96730
C         -8.25290       -2.80810        2.99860
C         -3.65680       -5.76010        1.64590
C         -4.34690       -6.99800        1.07000
C         -6.19880       -5.65020        3.86750
C         -6.21130       -6.05030        5.19370
S         -5.22660       -4.96740        6.16500
C         -6.87450       -7.08240        5.87920
C         -7.59880       -8.15200        5.42090
C         -7.74920       -8.63330        4.03000
O         -7.37510       -8.11500        2.99620
C         -8.44170       -9.93260        4.13160
C         -8.78200      -10.79930        3.11450
C         -9.43840      -11.98660        3.43120
C         -9.80630      -12.95950        2.35680
C         -9.72520      -12.26230        4.76630
C         -9.38660      -11.39390        5.79330
C         -8.73800      -10.21000        5.47610
C         -8.26580       -9.10060        6.29740
C         -8.48350       -8.97220        7.64580
C         -8.12220       -7.87200        8.45060
N         -7.88990       -7.01950        9.18580
C         -9.14970       -9.93680        8.43070
N         -9.67620      -10.67740        9.13270
H          9.23270        5.39370       -4.81880
H          5.57080        6.74060       -9.76000
H          6.42260        6.25960      -12.05730
H         10.10600        4.81250      -10.44090
H          3.97470        4.19170       -9.09880
H          6.67980        2.40000      -10.81260
H          5.18840        3.32420      -11.03010
H          3.86180        1.37020      -10.21970
H          4.84270        0.93370      -11.62350
H          5.34910        0.44820      -10.00210
H          7.42980        1.77680       -8.53570
H          8.56970        1.72850       -6.56960
H          8.34750        2.95540       -5.32740
H          6.45370        1.65040       -4.36440
H          7.93060        0.68430       -4.42690
H          6.65450        0.43030       -5.62350
H          3.57100        5.94690       -7.39060
H          4.08610        5.67650       -5.73140
H          1.68470        5.09880       -6.02020
H          2.09960        3.93900       -7.28630
H          2.60270        3.64330       -5.62570
H          4.28070        3.48210       -3.99380
H          5.61170        7.35490       -1.15020
H          7.37040        8.95820       -0.51300
H          9.06370        8.33740        1.16110
H          9.50810        4.94760        2.48270
H         10.18250        6.58230        2.42050
H          8.43420        7.36180        4.02070
H          9.37510        6.03540        4.71120
H          7.75290        5.73690        4.07600
H          7.26240        4.49220        1.55700
H         -2.45780       -2.35180        8.38260
H         -3.59880       -2.56590       10.55750
H         -6.05620       -2.60940       10.66800
H         -8.23600       -1.61110        7.97620
H         -8.17180       -2.24720        9.62590
H         -9.42130       -3.79210        8.14440
H         -8.02670       -3.92430        7.07100
H         -7.94150       -4.56740        8.71140
H         -6.25330       -2.09550        6.44190
H         -0.25730        1.39940        0.71350
H          1.05410        1.53290       -0.49060
H         -0.73040        3.26570       -0.77780
H          0.82870        4.01050       -0.42780
H         -0.39080        3.87970        0.84460
H         -1.01350       -1.09380        1.44980
H          0.60340       -0.35710        1.27810
H          1.46450       -1.82210        3.09550
H         -0.10660       -2.62730        3.18470
H          0.85620       -2.73960        1.71220
H         -3.65430       -4.37940       -0.63980
H         -3.90860       -2.39830       -2.04140
H         -5.00140       -1.09040       -1.56380
H         -5.89900       -2.31980       -3.52950
H         -5.87330       -3.82790       -2.60840
H         -6.96170       -2.52560       -2.13270
H         -6.37090       -1.29180        0.46620
H         -7.04640       -1.05380        2.69360
H         -6.45620       -2.12340        3.96590
H         -8.70870       -2.79200        2.01110
H         -8.92260       -2.31280        3.69840
H         -8.13710       -3.84520        3.30510
H         -3.53890       -5.88060        2.72410
H         -2.66000       -5.67290        1.20590
H         -4.50600       -6.87920        0.00060
H         -5.31010       -7.16290        1.54460
H         -3.73070       -7.87960        1.23280
H         -6.75340       -6.16120        3.10310
H         -6.76480       -7.00980        6.95490
H         -8.54030      -10.54870        2.09240
H        -10.69100      -13.52880        2.63160
H         -8.98800      -13.66360        2.20160
H         -9.98950      -12.44630        1.41600
H        -10.23080      -13.18520        5.01140
H         -9.62800      -11.65150        6.81130
