
  xtb     02082217343D
 energy: -414.391983839523 gnorm: 0.000968436733 xtb: 6.4.1 (unknown)
253278  0     0  0            999 V2000
   -8.7265    9.3822   -2.7827 C   0  0  0  0  0  0  0  0  0  0  0  0
   -9.8428    9.4518   -1.9691 C   0  0  0  0  0  0  0  0  0  0  0  0
   -9.7810    9.4213   -0.5013 C   0  0  0  0  0  0  0  0  0  0  0  0
   -8.7933    9.2908    0.1986 O   0  0  0  0  0  0  0  0  0  0  0  0
  -11.1570    9.7150   -0.0424 C   0  0  0  0  0  0  0  0  0  0  0  0
  -11.6423    9.8173    1.2448 C   0  0  0  0  0  0  0  0  0  0  0  0
  -12.9908   10.0890    1.4266 C   0  0  0  0  0  0  0  0  0  0  0  0
  -13.8136   10.2624    0.3224 C   0  0  0  0  0  0  0  0  0  0  0  0
  -15.4866   10.6044    0.5676 Cl  0  0  0  0  0  0  0  0  0  0  0  0
  -13.3348   10.1710   -0.9818 C   0  0  0  0  0  0  0  0  0  0  0  0
  -11.9927    9.8907   -1.1577 C   0  0  0  0  0  0  0  0  0  0  0  0
  -11.1938    9.7064   -2.3706 C   0  0  0  0  0  0  0  0  0  0  0  0
  -11.6844    9.6184   -3.6514 C   0  0  0  0  0  0  0  0  0  0  0  0
  -13.0431    9.7541   -3.9870 C   0  0  0  0  0  0  0  0  0  0  0  0
  -14.1422    9.8323   -4.3132 N   0  0  0  0  0  0  0  0  0  0  0  0
  -10.8943    9.2970   -4.7721 C   0  0  0  0  0  0  0  0  0  0  0  0
  -10.3133    9.0031   -5.7188 N   0  0  0  0  0  0  0  0  0  0  0  0
   -7.5221    8.7612   -2.4599 C   0  0  0  0  0  0  0  0  0  0  0  0
   -7.2242    7.7225   -1.5481 C   0  0  0  0  0  0  0  0  0  0  0  0
   -8.1169    6.9439   -0.8747 N   0  0  0  0  0  0  0  0  0  0  0  0
   -7.7052    6.2841    0.3053 C   0  0  0  0  0  0  0  0  0  0  0  0
   -7.0402    6.9830    1.3080 C   0  0  0  0  0  0  0  0  0  0  0  0
   -6.6430    6.3253    2.4544 C   0  0  0  0  0  0  0  0  0  0  0  0
   -6.8989    4.9693    2.6298 C   0  0  0  0  0  0  0  0  0  0  0  0
   -6.4377    4.2647    3.8681 C   0  0  0  0  0  0  0  0  0  0  0  0
   -7.5781    4.2873    1.6280 C   0  0  0  0  0  0  0  0  0  0  0  0
   -7.9811    4.9323    0.4746 C   0  0  0  0  0  0  0  0  0  0  0  0
   -9.4343    6.7361   -1.3071 C   0  0  0  0  0  0  0  0  0  0  0  0
  -10.4674    6.6869   -0.3735 C   0  0  0  0  0  0  0  0  0  0  0  0
  -11.7744    6.5168   -0.7901 C   0  0  0  0  0  0  0  0  0  0  0  0
  -12.0870    6.3831   -2.1363 C   0  0  0  0  0  0  0  0  0  0  0  0
  -13.5047    6.2516   -2.5951 C   0  0  0  0  0  0  0  0  0  0  0  0
  -11.0427    6.3880   -3.0585 C   0  0  0  0  0  0  0  0  0  0  0  0
   -9.7352    6.5618   -2.6572 C   0  0  0  0  0  0  0  0  0  0  0  0
   -5.8301    7.4945   -1.5050 C   0  0  0  0  0  0  0  0  0  0  0  0
   -4.8342    6.3646   -0.6508 S   0  0  0  0  0  0  0  0  0  0  0  0
   -3.4039    6.9969   -1.4459 C   0  0  0  0  0  0  0  0  0  0  0  0
   -3.6954    7.9823   -2.3794 C   0  0  0  0  0  0  0  0  0  0  0  0
   -2.7766    8.5672   -3.2284 N   0  0  0  0  0  0  0  0  0  0  0  0
   -2.9491    9.8990   -3.6347 C   0  0  0  0  0  0  0  0  0  0  0  0
   -2.6233   10.2827   -4.9332 C   0  0  0  0  0  0  0  0  0  0  0  0
   -2.7999   11.5909   -5.3344 C   0  0  0  0  0  0  0  0  0  0  0  0
   -3.3098   12.5481   -4.4643 C   0  0  0  0  0  0  0  0  0  0  0  0
   -3.5288   13.9576   -4.9217 C   0  0  0  0  0  0  0  0  0  0  0  0
   -3.6316   12.1565   -3.1717 C   0  0  0  0  0  0  0  0  0  0  0  0
   -3.4532   10.8522   -2.7548 C   0  0  0  0  0  0  0  0  0  0  0  0
   -1.6773    7.8259   -3.6879 C   0  0  0  0  0  0  0  0  0  0  0  0
   -0.4234    8.4199   -3.8017 C   0  0  0  0  0  0  0  0  0  0  0  0
    0.6727    7.6623   -4.1609 C   0  0  0  0  0  0  0  0  0  0  0  0
    0.5529    6.3042   -4.4326 C   0  0  0  0  0  0  0  0  0  0  0  0
    1.7627    5.4772   -4.7428 C   0  0  0  0  0  0  0  0  0  0  0  0
   -0.7136    5.7364   -4.3865 C   0  0  0  0  0  0  0  0  0  0  0  0
   -1.8171    6.4813   -4.0204 C   0  0  0  0  0  0  0  0  0  0  0  0
   -5.0826    8.2646   -2.3867 C   0  0  0  0  0  0  0  0  0  0  0  0
   -6.0777    9.3096   -3.3297 S   0  0  0  0  0  0  0  0  0  0  0  0
   -2.1163    6.4620   -1.1144 C   0  0  0  0  0  0  0  0  0  0  0  0
   -0.9613    7.1540   -0.8127 C   0  0  0  0  0  0  0  0  0  0  0  0
   -0.8920    8.5936   -0.5707 C   0  0  0  0  0  0  0  0  0  0  0  0
   -1.9368    9.2650    0.0608 C   0  0  0  0  0  0  0  0  0  0  0  0
   -1.8430   10.6225    0.2987 C   0  0  0  0  0  0  0  0  0  0  0  0
   -0.7148   11.3254   -0.0873 C   0  0  0  0  0  0  0  0  0  0  0  0
    0.3452   10.6699   -0.6988 C   0  0  0  0  0  0  0  0  0  0  0  0
    1.6043   11.4011   -1.0652 C   0  0  0  0  0  0  0  0  0  0  0  0
    2.6620   11.2145    0.0243 C   0  0  0  0  0  0  0  0  0  0  0  0
    0.2487    9.3056   -0.9257 C   0  0  0  0  0  0  0  0  0  0  0  0
    0.1329    6.2718   -0.6689 C   0  0  0  0  0  0  0  0  0  0  0  0
    1.8139    6.5186   -0.2667 S   0  0  0  0  0  0  0  0  0  0  0  0
    2.0547    4.8042   -0.2788 C   0  0  0  0  0  0  0  0  0  0  0  0
    3.0824    3.8669   -0.0560 C   0  0  0  0  0  0  0  0  0  0  0  0
    4.4685    3.9860    0.1901 C   0  0  0  0  0  0  0  0  0  0  0  0
    5.2721    2.7932    0.2876 C   0  0  0  0  0  0  0  0  0  0  0  0
    6.5561    3.0656    0.4577 N   0  0  0  0  0  0  0  0  0  0  0  0
    6.7429    4.6723    0.5009 S   0  0  0  0  0  0  0  0  0  0  0  0
    5.1915    5.0894    0.3003 N   0  0  0  0  0  0  0  0  0  0  0  0
    4.6394    1.5298    0.2632 C   0  0  0  0  0  0  0  0  0  0  0  0
    5.1004    0.2164    0.4791 C   0  0  0  0  0  0  0  0  0  0  0  0
    6.5851   -0.6241    0.7797 S   0  0  0  0  0  0  0  0  0  0  0  0
    5.6901   -2.1197    0.8973 C   0  0  0  0  0  0  0  0  0  0  0  0
    6.0838   -3.4459    1.1767 C   0  0  0  0  0  0  0  0  0  0  0  0
    7.4459   -3.7698    1.6043 C   0  0  0  0  0  0  0  0  0  0  0  0
    8.5389   -3.3203    0.8717 C   0  0  0  0  0  0  0  0  0  0  0  0
    9.8166   -3.5158    1.3590 C   0  0  0  0  0  0  0  0  0  0  0  0
   10.0106   -4.1287    2.5839 C   0  0  0  0  0  0  0  0  0  0  0  0
    8.9295   -4.5802    3.3296 C   0  0  0  0  0  0  0  0  0  0  0  0
    9.1385   -5.1753    4.6914 C   0  0  0  0  0  0  0  0  0  0  0  0
    9.2022   -4.0711    5.7490 C   0  0  0  0  0  0  0  0  0  0  0  0
    7.6512   -4.4066    2.8234 C   0  0  0  0  0  0  0  0  0  0  0  0
    5.0018   -4.3037    1.1333 C   0  0  0  0  0  0  0  0  0  0  0  0
    3.4842   -3.4643    0.8121 S   0  0  0  0  0  0  0  0  0  0  0  0
    4.3177   -1.9562    0.7059 C   0  0  0  0  0  0  0  0  0  0  0  0
    3.9784   -0.6177    0.4796 C   0  0  0  0  0  0  0  0  0  0  0  0
    2.8369    0.1174    0.2667 N   0  0  0  0  0  0  0  0  0  0  0  0
    3.2335    1.4337    0.1059 C   0  0  0  0  0  0  0  0  0  0  0  0
    2.4858    2.5894   -0.2018 C   0  0  0  0  0  0  0  0  0  0  0  0
    1.1591    2.7360   -0.5690 N   0  0  0  0  0  0  0  0  0  0  0  0
    0.8995    4.0855   -0.5954 C   0  0  0  0  0  0  0  0  0  0  0  0
   -0.1984    4.9264   -0.8205 C   0  0  0  0  0  0  0  0  0  0  0  0
   -1.8770    4.7221   -1.1658 S   0  0  0  0  0  0  0  0  0  0  0  0
    0.4019    1.8290   -1.4085 C   0  0  0  0  0  0  0  0  0  0  0  0
    0.4357    2.2750   -2.8695 C   0  0  0  0  0  0  0  0  0  0  0  0
    1.5758   -0.3346    0.8212 C   0  0  0  0  0  0  0  0  0  0  0  0
    1.6815   -0.5611    2.3294 C   0  0  0  0  0  0  0  0  0  0  0  0
    4.9476   -5.7291    1.1844 C   0  0  0  0  0  0  0  0  0  0  0  0
    5.8884   -6.6663    0.8002 C   0  0  0  0  0  0  0  0  0  0  0  0
    7.1727   -6.3907    0.2893 N   0  0  0  0  0  0  0  0  0  0  0  0
    7.2121   -6.3254   -1.1273 C   0  0  0  0  0  0  0  0  0  0  0  0
    7.8684   -7.3019   -1.8732 C   0  0  0  0  0  0  0  0  0  0  0  0
    7.8849   -7.2315   -3.2508 C   0  0  0  0  0  0  0  0  0  0  0  0
    7.2375   -6.2021   -3.9260 C   0  0  0  0  0  0  0  0  0  0  0  0
    7.2804   -6.1320   -5.4221 C   0  0  0  0  0  0  0  0  0  0  0  0
    6.5646   -5.2477   -3.1766 C   0  0  0  0  0  0  0  0  0  0  0  0
    6.5471   -5.3046   -1.7948 C   0  0  0  0  0  0  0  0  0  0  0  0
    8.2855   -6.8669    0.9908 C   0  0  0  0  0  0  0  0  0  0  0  0
    8.1636   -7.5302    2.2088 C   0  0  0  0  0  0  0  0  0  0  0  0
    9.2873   -7.9515    2.8932 C   0  0  0  0  0  0  0  0  0  0  0  0
   10.5620   -7.7111    2.4049 C   0  0  0  0  0  0  0  0  0  0  0  0
   11.7832   -8.1707    3.1435 C   0  0  0  0  0  0  0  0  0  0  0  0
   10.6794   -7.0235    1.2024 C   0  0  0  0  0  0  0  0  0  0  0  0
    9.5668   -6.6049    0.5052 C   0  0  0  0  0  0  0  0  0  0  0  0
    5.3598   -7.9747    0.8780 C   0  0  0  0  0  0  0  0  0  0  0  0
    5.9693   -9.5397    0.4929 S   0  0  0  0  0  0  0  0  0  0  0  0
    4.4620  -10.2881    1.0022 C   0  0  0  0  0  0  0  0  0  0  0  0
    3.5241   -9.3459    1.4223 C   0  0  0  0  0  0  0  0  0  0  0  0
    2.1734   -9.5970    1.6681 N   0  0  0  0  0  0  0  0  0  0  0  0
    1.7543  -10.1537    2.8883 C   0  0  0  0  0  0  0  0  0  0  0  0
    0.7361  -11.1016    2.9094 C   0  0  0  0  0  0  0  0  0  0  0  0
    0.3127  -11.6344    4.1114 C   0  0  0  0  0  0  0  0  0  0  0  0
    0.8918  -11.2443    5.3134 C   0  0  0  0  0  0  0  0  0  0  0  0
    0.4638  -11.8391    6.6178 C   0  0  0  0  0  0  0  0  0  0  0  0
    1.9060  -10.2932    5.2809 C   0  0  0  0  0  0  0  0  0  0  0  0
    2.3355   -9.7481    4.0856 C   0  0  0  0  0  0  0  0  0  0  0  0
    1.2509   -8.9446    0.8405 C   0  0  0  0  0  0  0  0  0  0  0  0
    0.0179   -8.5134    1.3233 C   0  0  0  0  0  0  0  0  0  0  0  0
   -0.8739   -7.8763    0.4832 C   0  0  0  0  0  0  0  0  0  0  0  0
   -0.5655   -7.6363   -0.8491 C   0  0  0  0  0  0  0  0  0  0  0  0
   -1.5367   -6.9529   -1.7629 C   0  0  0  0  0  0  0  0  0  0  0  0
    0.6695   -8.0642   -1.3228 C   0  0  0  0  0  0  0  0  0  0  0  0
    1.5650   -8.7133   -0.4988 C   0  0  0  0  0  0  0  0  0  0  0  0
    4.0499   -8.0406    1.3267 C   0  0  0  0  0  0  0  0  0  0  0  0
    3.4196   -6.4660    1.6502 S   0  0  0  0  0  0  0  0  0  0  0  0
    4.2968  -11.6700    0.7286 C   0  0  0  0  0  0  0  0  0  0  0  0
    3.6717  -12.6504    1.4346 C   0  0  0  0  0  0  0  0  0  0  0  0
    3.2289  -13.8825    0.7178 C   0  0  0  0  0  0  0  0  0  0  0  0
    3.4677  -14.1665   -0.4353 O   0  0  0  0  0  0  0  0  0  0  0  0
    2.4238  -14.6290    1.6938 C   0  0  0  0  0  0  0  0  0  0  0  0
    1.6778  -15.7786    1.5245 C   0  0  0  0  0  0  0  0  0  0  0  0
    0.9774  -16.2932    2.6038 C   0  0  0  0  0  0  0  0  0  0  0  0
    1.0278  -15.6582    3.8464 C   0  0  0  0  0  0  0  0  0  0  0  0
    0.3639  -16.0728    4.9482 O   0  0  0  0  0  0  0  0  0  0  0  0
   -0.4199  -17.2418    4.8821 C   0  0  0  0  0  0  0  0  0  0  0  0
    1.7986  -14.4993    4.0225 C   0  0  0  0  0  0  0  0  0  0  0  0
    2.4886  -13.9881    2.9466 C   0  0  0  0  0  0  0  0  0  0  0  0
    3.3562  -12.8152    2.8324 C   0  0  0  0  0  0  0  0  0  0  0  0
    3.9704  -12.1871    3.8836 C   0  0  0  0  0  0  0  0  0  0  0  0
    3.7918  -12.5629    5.2304 C   0  0  0  0  0  0  0  0  0  0  0  0
    3.7124  -12.8460    6.3406 N   0  0  0  0  0  0  0  0  0  0  0  0
    4.9223  -11.1580    3.7463 C   0  0  0  0  0  0  0  0  0  0  0  0
    5.7226  -10.3357    3.6991 N   0  0  0  0  0  0  0  0  0  0  0  0
   -8.7539    9.8879   -3.7406 H   0  0  0  0  0  0  0  0  0  0  0  0
  -10.9823    9.6807    2.0875 H   0  0  0  0  0  0  0  0  0  0  0  0
  -13.4065   10.1676    2.4188 H   0  0  0  0  0  0  0  0  0  0  0  0
  -14.0045   10.3231   -1.8123 H   0  0  0  0  0  0  0  0  0  0  0  0
   -6.8713    8.0413    1.1855 H   0  0  0  0  0  0  0  0  0  0  0  0
   -6.1312    6.8740    3.2314 H   0  0  0  0  0  0  0  0  0  0  0  0
   -6.5953    4.8860    4.7472 H   0  0  0  0  0  0  0  0  0  0  0  0
   -6.9649    3.3234    4.0014 H   0  0  0  0  0  0  0  0  0  0  0  0
   -5.3708    4.0514    3.7975 H   0  0  0  0  0  0  0  0  0  0  0  0
   -7.7920    3.2352    1.7481 H   0  0  0  0  0  0  0  0  0  0  0  0
   -8.5066    4.3932   -0.3002 H   0  0  0  0  0  0  0  0  0  0  0  0
  -10.2394    6.7952    0.6762 H   0  0  0  0  0  0  0  0  0  0  0  0
  -12.5649    6.5020   -0.0539 H   0  0  0  0  0  0  0  0  0  0  0  0
  -13.5896    5.4958   -3.3732 H   0  0  0  0  0  0  0  0  0  0  0  0
  -13.8526    7.1966   -3.0147 H   0  0  0  0  0  0  0  0  0  0  0  0
  -14.1589    5.9866   -1.7686 H   0  0  0  0  0  0  0  0  0  0  0  0
  -11.2599    6.2603   -4.1089 H   0  0  0  0  0  0  0  0  0  0  0  0
   -8.9430    6.5656   -3.3908 H   0  0  0  0  0  0  0  0  0  0  0  0
   -2.2362    9.5483   -5.6240 H   0  0  0  0  0  0  0  0  0  0  0  0
   -2.5463   11.8728   -6.3461 H   0  0  0  0  0  0  0  0  0  0  0  0
   -3.5194   14.6458   -4.0799 H   0  0  0  0  0  0  0  0  0  0  0  0
   -2.7632   14.2581   -5.6335 H   0  0  0  0  0  0  0  0  0  0  0  0
   -4.4974   14.0413   -5.4160 H   0  0  0  0  0  0  0  0  0  0  0  0
   -4.0243   12.8835   -2.4757 H   0  0  0  0  0  0  0  0  0  0  0  0
   -3.6922   10.5698   -1.7411 H   0  0  0  0  0  0  0  0  0  0  0  0
   -0.3160    9.4719   -3.5847 H   0  0  0  0  0  0  0  0  0  0  0  0
    1.6449    8.1301   -4.2183 H   0  0  0  0  0  0  0  0  0  0  0  0
    2.2692    5.2010   -3.8163 H   0  0  0  0  0  0  0  0  0  0  0  0
    1.4882    4.5644   -5.2665 H   0  0  0  0  0  0  0  0  0  0  0  0
    2.4687    6.0364   -5.3527 H   0  0  0  0  0  0  0  0  0  0  0  0
   -0.8439    4.6947   -4.6436 H   0  0  0  0  0  0  0  0  0  0  0  0
   -2.7932    6.0195   -3.9856 H   0  0  0  0  0  0  0  0  0  0  0  0
   -2.8104    8.7179    0.3831 H   0  0  0  0  0  0  0  0  0  0  0  0
   -2.6541   11.1373    0.7933 H   0  0  0  0  0  0  0  0  0  0  0  0
   -0.6537   12.3884    0.0957 H   0  0  0  0  0  0  0  0  0  0  0  0
    1.3937   12.4650   -1.1899 H   0  0  0  0  0  0  0  0  0  0  0  0
    1.9929   11.0159   -2.0104 H   0  0  0  0  0  0  0  0  0  0  0  0
    2.8900   10.1588    0.1527 H   0  0  0  0  0  0  0  0  0  0  0  0
    3.5771   11.7393   -0.2398 H   0  0  0  0  0  0  0  0  0  0  0  0
    2.2994   11.6042    0.9730 H   0  0  0  0  0  0  0  0  0  0  0  0
    1.0680    8.7899   -1.4033 H   0  0  0  0  0  0  0  0  0  0  0  0
    8.3839   -2.8318   -0.0786 H   0  0  0  0  0  0  0  0  0  0  0  0
   10.6663   -3.1754    0.7859 H   0  0  0  0  0  0  0  0  0  0  0  0
   11.0117   -4.2600    2.9677 H   0  0  0  0  0  0  0  0  0  0  0  0
    8.3201   -5.8569    4.9275 H   0  0  0  0  0  0  0  0  0  0  0  0
   10.0703   -5.7427    4.7042 H   0  0  0  0  0  0  0  0  0  0  0  0
   10.0212   -3.3881    5.5347 H   0  0  0  0  0  0  0  0  0  0  0  0
    9.3554   -4.4985    6.7373 H   0  0  0  0  0  0  0  0  0  0  0  0
    8.2762   -3.5001    5.7569 H   0  0  0  0  0  0  0  0  0  0  0  0
    6.7970   -4.7431    3.3944 H   0  0  0  0  0  0  0  0  0  0  0  0
    0.8385    0.8340   -1.3427 H   0  0  0  0  0  0  0  0  0  0  0  0
   -0.6336    1.8029   -1.0533 H   0  0  0  0  0  0  0  0  0  0  0  0
   -0.0156    3.2564   -2.9816 H   0  0  0  0  0  0  0  0  0  0  0  0
   -0.1153    1.5646   -3.4798 H   0  0  0  0  0  0  0  0  0  0  0  0
    1.4635    2.3192   -3.2238 H   0  0  0  0  0  0  0  0  0  0  0  0
    1.2913   -1.2680    0.3249 H   0  0  0  0  0  0  0  0  0  0  0  0
    0.8146    0.4218    0.6434 H   0  0  0  0  0  0  0  0  0  0  0  0
    2.0082    0.3520    2.8227 H   0  0  0  0  0  0  0  0  0  0  0  0
    2.3882   -1.3535    2.5579 H   0  0  0  0  0  0  0  0  0  0  0  0
    0.7088   -0.8432    2.7228 H   0  0  0  0  0  0  0  0  0  0  0  0
    8.3612   -8.1173   -1.3642 H   0  0  0  0  0  0  0  0  0  0  0  0
    8.3998   -7.9960   -3.8150 H   0  0  0  0  0  0  0  0  0  0  0  0
    7.0866   -7.1103   -5.8581 H   0  0  0  0  0  0  0  0  0  0  0  0
    8.2677   -5.8099   -5.7539 H   0  0  0  0  0  0  0  0  0  0  0  0
    6.5459   -5.4257   -5.8008 H   0  0  0  0  0  0  0  0  0  0  0  0
    6.0471   -4.4419   -3.6778 H   0  0  0  0  0  0  0  0  0  0  0  0
    6.0196   -4.5515   -1.2321 H   0  0  0  0  0  0  0  0  0  0  0  0
    7.1930   -7.7253    2.6369 H   0  0  0  0  0  0  0  0  0  0  0  0
    9.1601   -8.4799    3.8269 H   0  0  0  0  0  0  0  0  0  0  0  0
   12.5066   -7.3613    3.2321 H   0  0  0  0  0  0  0  0  0  0  0  0
   12.2655   -8.9885    2.6077 H   0  0  0  0  0  0  0  0  0  0  0  0
   11.5249   -8.5215    4.1397 H   0  0  0  0  0  0  0  0  0  0  0  0
   11.6618   -6.8081    0.8063 H   0  0  0  0  0  0  0  0  0  0  0  0
    9.6844   -6.0602   -0.4193 H   0  0  0  0  0  0  0  0  0  0  0  0
    0.2830  -11.4117    1.9790 H   0  0  0  0  0  0  0  0  0  0  0  0
   -0.4753  -12.3738    4.1136 H   0  0  0  0  0  0  0  0  0  0  0  0
    0.0841  -11.0655    7.2840 H   0  0  0  0  0  0  0  0  0  0  0  0
    1.3187  -12.3067    7.1065 H   0  0  0  0  0  0  0  0  0  0  0  0
   -0.3112  -12.5873    6.4718 H   0  0  0  0  0  0  0  0  0  0  0  0
    2.3652   -9.9762    6.2058 H   0  0  0  0  0  0  0  0  0  0  0  0
    3.1159   -9.0013    4.0744 H   0  0  0  0  0  0  0  0  0  0  0  0
   -0.2365   -8.6694    2.3609 H   0  0  0  0  0  0  0  0  0  0  0  0
   -1.8249   -7.5487    0.8785 H   0  0  0  0  0  0  0  0  0  0  0  0
   -1.0295   -6.2131   -2.3793 H   0  0  0  0  0  0  0  0  0  0  0  0
   -2.0006   -7.6805   -2.4296 H   0  0  0  0  0  0  0  0  0  0  0  0
   -2.3230   -6.4603   -1.1964 H   0  0  0  0  0  0  0  0  0  0  0  0
    0.9322   -7.8921   -2.3567 H   0  0  0  0  0  0  0  0  0  0  0  0
    2.5128   -9.0487   -0.8939 H   0  0  0  0  0  0  0  0  0  0  0  0
    4.6731  -11.9884   -0.2416 H   0  0  0  0  0  0  0  0  0  0  0  0
    1.6435  -16.2641    0.5614 H   0  0  0  0  0  0  0  0  0  0  0  0
    0.3931  -17.1895    2.4692 H   0  0  0  0  0  0  0  0  0  0  0  0
   -0.8342  -17.3723    5.8802 H   0  0  0  0  0  0  0  0  0  0  0  0
   -1.2372  -17.1371    4.1618 H   0  0  0  0  0  0  0  0  0  0  0  0
    0.1848  -18.1165    4.6249 H   0  0  0  0  0  0  0  0  0  0  0  0
    1.8113  -14.0392    4.9956 H   0  0  0  0  0  0  0  0  0  0  0  0
  1  2  2  0  0  0  0
  2  3  1  0  0  0  0
  3  4  2  0  0  0  0
  3  5  1  0  0  0  0
  5  6  2  0  0  0  0
  6  7  1  0  0  0  0
  7  8  2  0  0  0  0
  8  9  1  0  0  0  0
  8 10  1  0  0  0  0
 10 11  2  0  0  0  0
 11 12  1  0  0  0  0
 12 13  2  0  0  0  0
 13 14  1  0  0  0  0
 14 15  3  0  0  0  0
 13 16  1  0  0  0  0
 16 17  3  0  0  0  0
  1 18  1  0  0  0  0
 18 19  2  0  0  0  0
 19 20  1  0  0  0  0
 20 21  1  0  0  0  0
 21 22  2  0  0  0  0
 22 23  1  0  0  0  0
 23 24  2  0  0  0  0
 24 25  1  0  0  0  0
 24 26  1  0  0  0  0
 26 27  2  0  0  0  0
 20 28  1  0  0  0  0
 28 29  2  0  0  0  0
 29 30  1  0  0  0  0
 30 31  2  0  0  0  0
 31 32  1  0  0  0  0
 31 33  1  0  0  0  0
 33 34  2  0  0  0  0
 19 35  1  0  0  0  0
 35 36  1  0  0  0  0
 36 37  1  0  0  0  0
 37 38  2  0  0  0  0
 38 39  1  0  0  0  0
 39 40  1  0  0  0  0
 40 41  2  0  0  0  0
 41 42  1  0  0  0  0
 42 43  2  0  0  0  0
 43 44  1  0  0  0  0
 43 45  1  0  0  0  0
 45 46  2  0  0  0  0
 39 47  1  0  0  0  0
 47 48  2  0  0  0  0
 48 49  1  0  0  0  0
 49 50  2  0  0  0  0
 50 51  1  0  0  0  0
 50 52  1  0  0  0  0
 52 53  2  0  0  0  0
 38 54  1  0  0  0  0
 54 55  1  0  0  0  0
 37 56  1  0  0  0  0
 56 57  2  0  0  0  0
 57 58  1  0  0  0  0
 58 59  2  0  0  0  0
 59 60  1  0  0  0  0
 60 61  2  0  0  0  0
 61 62  1  0  0  0  0
 62 63  1  0  0  0  0
 63 64  1  0  0  0  0
 62 65  2  0  0  0  0
 57 66  1  0  0  0  0
 66 67  1  0  0  0  0
 67 68  1  0  0  0  0
 68 69  1  0  0  0  0
 69 70  1  0  0  0  0
 70 71  1  0  0  0  0
 71 72  2  0  0  0  0
 72 73  1  0  0  0  0
 73 74  1  0  0  0  0
 71 75  1  0  0  0  0
 75 76  1  0  0  0  0
 76 77  1  0  0  0  0
 77 78  1  0  0  0  0
 78 79  1  0  0  0  0
 79 80  1  0  0  0  0
 80 81  2  0  0  0  0
 81 82  1  0  0  0  0
 82 83  2  0  0  0  0
 83 84  1  0  0  0  0
 84 85  1  0  0  0  0
 85 86  1  0  0  0  0
 84 87  2  0  0  0  0
 79 88  2  0  0  0  0
 88 89  1  0  0  0  0
 89 90  1  0  0  0  0
 90 91  1  0  0  0  0
 91 92  1  0  0  0  0
 92 93  1  0  0  0  0
 93 94  1  0  0  0  0
 94 95  1  0  0  0  0
 95 96  1  0  0  0  0
 96 97  1  0  0  0  0
 97 98  1  0  0  0  0
 95 99  1  0  0  0  0
 99100  1  0  0  0  0
 92101  1  0  0  0  0
101102  1  0  0  0  0
 88103  1  0  0  0  0
103104  2  0  0  0  0
104105  1  0  0  0  0
105106  1  0  0  0  0
106107  2  0  0  0  0
107108  1  0  0  0  0
108109  2  0  0  0  0
109110  1  0  0  0  0
109111  1  0  0  0  0
111112  2  0  0  0  0
105113  1  0  0  0  0
113114  2  0  0  0  0
114115  1  0  0  0  0
115116  2  0  0  0  0
116117  1  0  0  0  0
116118  1  0  0  0  0
118119  2  0  0  0  0
104120  1  0  0  0  0
120121  1  0  0  0  0
121122  1  0  0  0  0
122123  2  0  0  0  0
123124  1  0  0  0  0
124125  1  0  0  0  0
125126  2  0  0  0  0
126127  1  0  0  0  0
127128  2  0  0  0  0
128129  1  0  0  0  0
128130  1  0  0  0  0
130131  2  0  0  0  0
124132  1  0  0  0  0
132133  2  0  0  0  0
133134  1  0  0  0  0
134135  2  0  0  0  0
135136  1  0  0  0  0
135137  1  0  0  0  0
137138  2  0  0  0  0
123139  1  0  0  0  0
139140  1  0  0  0  0
122141  1  0  0  0  0
141142  2  0  0  0  0
142143  1  0  0  0  0
143144  2  0  0  0  0
143145  1  0  0  0  0
145146  2  0  0  0  0
146147  1  0  0  0  0
147148  2  0  0  0  0
148149  1  0  0  0  0
149150  1  0  0  0  0
148151  1  0  0  0  0
151152  2  0  0  0  0
152153  1  0  0  0  0
153154  2  0  0  0  0
154155  1  0  0  0  0
155156  3  0  0  0  0
154157  1  0  0  0  0
157158  3  0  0  0  0
 12  2  1  0  0  0  0
 55 18  1  0  0  0  0
 98 56  1  0  0  0  0
140103  1  0  0  0  0
153142  1  0  0  0  0
 11  5  1  0  0  0  0
 27 21  1  0  0  0  0
 34 28  1  0  0  0  0
 54 35  2  0  0  0  0
 65 58  1  0  0  0  0
 97 66  2  0  0  0  0
112106  1  0  0  0  0
119113  1  0  0  0  0
139120  2  0  0  0  0
152145  1  0  0  0  0
 46 40  1  0  0  0  0
 53 47  1  0  0  0  0
 96 68  2  0  0  0  0
131125  1  0  0  0  0
138132  1  0  0  0  0
 94 69  2  0  0  0  0
 74 70  2  0  0  0  0
 93 75  2  0  0  0  0
 91 76  2  0  0  0  0
 90 78  2  0  0  0  0
 87 80  1  0  0  0  0
  1159  1  0  0  0  0
  6160  1  0  0  0  0
  7161  1  0  0  0  0
 10162  1  0  0  0  0
 22163  1  0  0  0  0
 23164  1  0  0  0  0
 25165  1  0  0  0  0
 25166  1  0  0  0  0
 25167  1  0  0  0  0
 26168  1  0  0  0  0
 27169  1  0  0  0  0
 29170  1  0  0  0  0
 30171  1  0  0  0  0
 32172  1  0  0  0  0
 32173  1  0  0  0  0
 32174  1  0  0  0  0
 33175  1  0  0  0  0
 34176  1  0  0  0  0
 41177  1  0  0  0  0
 42178  1  0  0  0  0
 44179  1  0  0  0  0
 44180  1  0  0  0  0
 44181  1  0  0  0  0
 45182  1  0  0  0  0
 46183  1  0  0  0  0
 48184  1  0  0  0  0
 49185  1  0  0  0  0
 51186  1  0  0  0  0
 51187  1  0  0  0  0
 51188  1  0  0  0  0
 52189  1  0  0  0  0
 53190  1  0  0  0  0
 59191  1  0  0  0  0
 60192  1  0  0  0  0
 61193  1  0  0  0  0
 63194  1  0  0  0  0
 63195  1  0  0  0  0
 64196  1  0  0  0  0
 64197  1  0  0  0  0
 64198  1  0  0  0  0
 65199  1  0  0  0  0
 81200  1  0  0  0  0
 82201  1  0  0  0  0
 83202  1  0  0  0  0
 85203  1  0  0  0  0
 85204  1  0  0  0  0
 86205  1  0  0  0  0
 86206  1  0  0  0  0
 86207  1  0  0  0  0
 87208  1  0  0  0  0
 99209  1  0  0  0  0
 99210  1  0  0  0  0
100211  1  0  0  0  0
100212  1  0  0  0  0
100213  1  0  0  0  0
101214  1  0  0  0  0
101215  1  0  0  0  0
102216  1  0  0  0  0
102217  1  0  0  0  0
102218  1  0  0  0  0
107219  1  0  0  0  0
108220  1  0  0  0  0
110221  1  0  0  0  0
110222  1  0  0  0  0
110223  1  0  0  0  0
111224  1  0  0  0  0
112225  1  0  0  0  0
114226  1  0  0  0  0
115227  1  0  0  0  0
117228  1  0  0  0  0
117229  1  0  0  0  0
117230  1  0  0  0  0
118231  1  0  0  0  0
119232  1  0  0  0  0
126233  1  0  0  0  0
127234  1  0  0  0  0
129235  1  0  0  0  0
129236  1  0  0  0  0
129237  1  0  0  0  0
130238  1  0  0  0  0
131239  1  0  0  0  0
133240  1  0  0  0  0
134241  1  0  0  0  0
136242  1  0  0  0  0
136243  1  0  0  0  0
136244  1  0  0  0  0
137245  1  0  0  0  0
138246  1  0  0  0  0
141247  1  0  0  0  0
146248  1  0  0  0  0
147249  1  0  0  0  0
150250  1  0  0  0  0
150251  1  0  0  0  0
150252  1  0  0  0  0
151253  1  0  0  0  0
M  END
