
  xtb     02082201343D
 energy: -342.771148741187 gnorm: 0.000687858283 xtb: 6.4.1 (unknown)
195217  0     0  0            999 V2000
    8.5524   -1.1185   -4.4982 C   0  0  0  0  0  0  0  0  0  0  0  0
    9.7618   -1.3481   -3.8752 C   0  0  0  0  0  0  0  0  0  0  0  0
   10.2445   -0.6952   -2.6574 C   0  0  0  0  0  0  0  0  0  0  0  0
    9.6516    0.0955   -1.9431 O   0  0  0  0  0  0  0  0  0  0  0  0
   11.6319   -1.1633   -2.4692 C   0  0  0  0  0  0  0  0  0  0  0  0
   12.5290   -0.8468   -1.4685 C   0  0  0  0  0  0  0  0  0  0  0  0
   13.7895   -1.4233   -1.5012 C   0  0  0  0  0  0  0  0  0  0  0  0
   14.1208   -2.2970   -2.5291 C   0  0  0  0  0  0  0  0  0  0  0  0
   15.6922   -3.0046   -2.5540 Cl  0  0  0  0  0  0  0  0  0  0  0  0
   13.2249   -2.6254   -3.5430 C   0  0  0  0  0  0  0  0  0  0  0  0
   11.9676   -2.0488   -3.5076 C   0  0  0  0  0  0  0  0  0  0  0  0
   10.8064   -2.1983   -4.3890 C   0  0  0  0  0  0  0  0  0  0  0  0
   10.7456   -3.0335   -5.4788 C   0  0  0  0  0  0  0  0  0  0  0  0
    9.5989   -3.2873   -6.2550 C   0  0  0  0  0  0  0  0  0  0  0  0
    8.7073   -3.5788   -6.9205 N   0  0  0  0  0  0  0  0  0  0  0  0
   11.8335   -3.7900   -5.9587 C   0  0  0  0  0  0  0  0  0  0  0  0
   12.6797   -4.4169   -6.4170 N   0  0  0  0  0  0  0  0  0  0  0  0
    7.4521   -0.3742   -4.0865 C   0  0  0  0  0  0  0  0  0  0  0  0
    6.2701   -0.2495   -4.8660 C   0  0  0  0  0  0  0  0  0  0  0  0
    6.1332   -0.6328   -6.1709 N   0  0  0  0  0  0  0  0  0  0  0  0
    4.8688   -1.0703   -6.6133 C   0  0  0  0  0  0  0  0  0  0  0  0
    4.3384   -0.6145   -7.8156 C   0  0  0  0  0  0  0  0  0  0  0  0
    3.0981   -1.0547   -8.2327 C   0  0  0  0  0  0  0  0  0  0  0  0
    2.3586   -1.9498   -7.4684 C   0  0  0  0  0  0  0  0  0  0  0  0
    1.0014   -2.4015   -7.9102 C   0  0  0  0  0  0  0  0  0  0  0  0
    2.9006   -2.4031   -6.2712 C   0  0  0  0  0  0  0  0  0  0  0  0
    4.1416   -1.9755   -5.8451 C   0  0  0  0  0  0  0  0  0  0  0  0
    7.1678   -0.4907   -7.1149 C   0  0  0  0  0  0  0  0  0  0  0  0
    8.0430    0.5908   -7.0510 C   0  0  0  0  0  0  0  0  0  0  0  0
    9.0548    0.7156   -7.9816 C   0  0  0  0  0  0  0  0  0  0  0  0
    9.2106   -0.2149   -9.0029 C   0  0  0  0  0  0  0  0  0  0  0  0
   10.3214   -0.0946   -9.9994 C   0  0  0  0  0  0  0  0  0  0  0  0
    8.3137   -1.2743   -9.0735 C   0  0  0  0  0  0  0  0  0  0  0  0
    7.3046   -1.4203   -8.1427 C   0  0  0  0  0  0  0  0  0  0  0  0
    5.2387    0.3375   -4.1135 C   0  0  0  0  0  0  0  0  0  0  0  0
    3.5816    0.7352   -4.4401 S   0  0  0  0  0  0  0  0  0  0  0  0
    3.4340    1.4566   -2.8470 C   0  0  0  0  0  0  0  0  0  0  0  0
    4.5823    1.3253   -2.0877 C   0  0  0  0  0  0  0  0  0  0  0  0
    4.6973    1.6858   -0.7558 N   0  0  0  0  0  0  0  0  0  0  0  0
    3.6431    1.4525    0.1332 C   0  0  0  0  0  0  0  0  0  0  0  0
    3.4045    2.3202    1.1978 C   0  0  0  0  0  0  0  0  0  0  0  0
    2.2974    2.1511    2.0024 C   0  0  0  0  0  0  0  0  0  0  0  0
    1.4072    1.1023    1.7951 C   0  0  0  0  0  0  0  0  0  0  0  0
    0.1679    0.9789    2.6289 C   0  0  0  0  0  0  0  0  0  0  0  0
    1.7004    0.1896    0.7922 C   0  0  0  0  0  0  0  0  0  0  0  0
    2.8002    0.3554   -0.0283 C   0  0  0  0  0  0  0  0  0  0  0  0
    5.9193    2.2250   -0.3221 C   0  0  0  0  0  0  0  0  0  0  0  0
    6.4640    1.8667    0.9065 C   0  0  0  0  0  0  0  0  0  0  0  0
    7.6856    2.3795    1.2959 C   0  0  0  0  0  0  0  0  0  0  0  0
    8.3947    3.2487    0.4769 C   0  0  0  0  0  0  0  0  0  0  0  0
    9.7415    3.7664    0.8779 C   0  0  0  0  0  0  0  0  0  0  0  0
    7.8370    3.6080   -0.7442 C   0  0  0  0  0  0  0  0  0  0  0  0
    6.6144    3.1091   -1.1430 C   0  0  0  0  0  0  0  0  0  0  0  0
    5.6202    0.7101   -2.8312 C   0  0  0  0  0  0  0  0  0  0  0  0
    7.2744    0.3633   -2.4902 S   0  0  0  0  0  0  0  0  0  0  0  0
    2.2180    2.0889   -2.4084 C   0  0  0  0  0  0  0  0  0  0  0  0
    2.0844    3.3920   -1.9708 C   0  0  0  0  0  0  0  0  0  0  0  0
    3.1531    4.3653   -2.2599 C   0  0  0  0  0  0  0  0  0  0  0  0
    3.6492    4.3366   -3.5678 C   0  0  0  0  0  0  0  0  0  0  0  0
    4.6973    5.1399   -3.9641 C   0  0  0  0  0  0  0  0  0  0  0  0
    5.2849    5.9937   -3.0454 C   0  0  0  0  0  0  0  0  0  0  0  0
    4.7877    6.0469   -1.7595 C   0  0  0  0  0  0  0  0  0  0  0  0
    3.7169    5.2589   -1.3459 C   0  0  0  0  0  0  0  0  0  0  0  0
    3.2370    5.4360    0.0657 C   0  0  0  0  0  0  0  0  0  0  0  0
    2.6208    6.8227    0.2650 C   0  0  0  0  0  0  0  0  0  0  0  0
    0.8040    3.5966   -1.4065 C   0  0  0  0  0  0  0  0  0  0  0  0
    0.0219    4.9614   -0.6431 S   0  0  0  0  0  0  0  0  0  0  0  0
   -1.3510    3.9696   -0.2969 C   0  0  0  0  0  0  0  0  0  0  0  0
   -2.5336    4.0206    0.4568 C   0  0  0  0  0  0  0  0  0  0  0  0
   -3.0474    5.0071    1.3284 C   0  0  0  0  0  0  0  0  0  0  0  0
   -4.1566    4.6757    2.1794 C   0  0  0  0  0  0  0  0  0  0  0  0
   -4.4736    5.6625    3.0020 N   0  0  0  0  0  0  0  0  0  0  0  0
   -3.4726    6.9045    2.7262 S   0  0  0  0  0  0  0  0  0  0  0  0
   -2.5891    6.2288    1.5499 N   0  0  0  0  0  0  0  0  0  0  0  0
   -4.7840    3.4185    2.0294 C   0  0  0  0  0  0  0  0  0  0  0  0
   -5.8845    2.8330    2.6724 C   0  0  0  0  0  0  0  0  0  0  0  0
   -6.9681    3.1612    3.9809 S   0  0  0  0  0  0  0  0  0  0  0  0
   -7.7590    1.6292    3.6708 C   0  0  0  0  0  0  0  0  0  0  0  0
   -8.7987    0.9641    4.3241 C   0  0  0  0  0  0  0  0  0  0  0  0
   -9.4151    1.5271    5.5331 C   0  0  0  0  0  0  0  0  0  0  0  0
   -9.2887    0.9151    6.7851 C   0  0  0  0  0  0  0  0  0  0  0  0
   -8.4939   -0.3436    6.9872 C   0  0  0  0  0  0  0  0  0  0  0  0
   -6.9928   -0.0498    6.9572 C   0  0  0  0  0  0  0  0  0  0  0  0
   -9.8670    1.5421    7.8810 C   0  0  0  0  0  0  0  0  0  0  0  0
  -10.5452    2.7412    7.7572 C   0  0  0  0  0  0  0  0  0  0  0  0
  -10.6376    3.3541    6.5203 C   0  0  0  0  0  0  0  0  0  0  0  0
  -10.0654    2.7517    5.4174 C   0  0  0  0  0  0  0  0  0  0  0  0
   -9.0694   -0.2649    3.7145 C   0  0  0  0  0  0  0  0  0  0  0  0
   -7.9713   -0.6128    2.3837 S   0  0  0  0  0  0  0  0  0  0  0  0
   -7.2003    0.9183    2.5967 C   0  0  0  0  0  0  0  0  0  0  0  0
   -6.1267    1.6064    2.0356 C   0  0  0  0  0  0  0  0  0  0  0  0
   -5.2108    1.4067    1.0328 N   0  0  0  0  0  0  0  0  0  0  0  0
   -4.3514    2.4908    1.0376 C   0  0  0  0  0  0  0  0  0  0  0  0
   -3.1407    2.7375    0.3489 C   0  0  0  0  0  0  0  0  0  0  0  0
   -2.3235    1.9267   -0.4189 N   0  0  0  0  0  0  0  0  0  0  0  0
   -1.2403    2.6708   -0.8004 C   0  0  0  0  0  0  0  0  0  0  0  0
   -0.0099    2.4613   -1.4369 C   0  0  0  0  0  0  0  0  0  0  0  0
    0.7649    1.1346   -2.2168 S   0  0  0  0  0  0  0  0  0  0  0  0
   -2.2822    0.4844   -0.5182 C   0  0  0  0  0  0  0  0  0  0  0  0
   -2.5381   -0.0035   -1.9439 C   0  0  0  0  0  0  0  0  0  0  0  0
   -5.5630    0.5519   -0.0809 C   0  0  0  0  0  0  0  0  0  0  0  0
   -6.8242    1.0527   -0.7847 C   0  0  0  0  0  0  0  0  0  0  0  0
  -10.0338   -1.2411    4.0516 C   0  0  0  0  0  0  0  0  0  0  0  0
  -11.1735   -1.0216    4.8612 C   0  0  0  0  0  0  0  0  0  0  0  0
  -11.9871   -2.1094    5.3615 C   0  0  0  0  0  0  0  0  0  0  0  0
  -12.9880   -1.6634    6.1189 N   0  0  0  0  0  0  0  0  0  0  0  0
  -12.9412   -0.0572    6.1632 S   0  0  0  0  0  4  0  0  0  0  0  0
  -11.6476    0.1621    5.2460 N   0  0  0  0  0  0  0  0  0  0  0  0
  -11.7092   -3.4719    5.0935 C   0  0  0  0  0  0  0  0  0  0  0  0
  -10.6924   -3.6696    4.1322 C   0  0  0  0  0  0  0  0  0  0  0  0
  -10.3444   -4.8307    3.5746 N   0  0  0  0  0  0  0  0  0  0  0  0
   -9.1506   -4.5868    2.5258 S   0  0  0  0  0  0  0  0  0  0  0  0
   -9.0066   -2.9984    2.7164 N   0  0  0  0  0  0  0  0  0  0  0  0
   -9.8994   -2.5792    3.6103 C   0  0  0  0  0  0  0  0  0  0  0  0
  -12.4666   -4.4860    5.7199 C   0  0  0  0  0  0  0  0  0  0  0  0
  -12.1894   -5.8167    5.8715 C   0  0  0  0  0  0  0  0  0  0  0  0
  -13.2976   -6.7633    6.1617 C   0  0  0  0  0  0  0  0  0  0  0  0
  -14.4301   -6.4872    6.4871 O   0  0  0  0  0  0  0  0  0  0  0  0
  -12.7299   -8.1081    5.9188 C   0  0  0  0  0  0  0  0  0  0  0  0
  -13.3573   -9.3385    5.9343 C   0  0  0  0  0  0  0  0  0  0  0  0
  -12.6099  -10.4692    5.6412 C   0  0  0  0  0  0  0  0  0  0  0  0
  -11.2595  -10.3455    5.3382 C   0  0  0  0  0  0  0  0  0  0  0  0
  -10.3523  -11.7618    4.9603 Cl  0  0  0  0  0  0  0  0  0  0  0  0
  -10.6113   -9.1140    5.3286 C   0  0  0  0  0  0  0  0  0  0  0  0
  -11.3596   -7.9889    5.6250 C   0  0  0  0  0  0  0  0  0  0  0  0
  -10.9784   -6.5794    5.7269 C   0  0  0  0  0  0  0  0  0  0  0  0
   -9.6933   -6.1211    5.8816 C   0  0  0  0  0  0  0  0  0  0  0  0
   -9.3658   -4.8062    6.2614 C   0  0  0  0  0  0  0  0  0  0  0  0
   -9.0350   -3.7556    6.5890 N   0  0  0  0  0  0  0  0  0  0  0  0
   -8.5430   -6.9193    5.7343 C   0  0  0  0  0  0  0  0  0  0  0  0
   -7.5624   -7.5011    5.5949 N   0  0  0  0  0  0  0  0  0  0  0  0
    8.4217   -1.6024   -5.4577 H   0  0  0  0  0  0  0  0  0  0  0  0
   12.2439   -0.1675   -0.6801 H   0  0  0  0  0  0  0  0  0  0  0  0
   14.5161   -1.2018   -0.7356 H   0  0  0  0  0  0  0  0  0  0  0  0
   13.5233   -3.3095   -4.3199 H   0  0  0  0  0  0  0  0  0  0  0  0
    4.9005    0.0861   -8.4150 H   0  0  0  0  0  0  0  0  0  0  0  0
    2.6949   -0.6917   -9.1667 H   0  0  0  0  0  0  0  0  0  0  0  0
    0.2349   -1.7825   -7.4427 H   0  0  0  0  0  0  0  0  0  0  0  0
    0.8225   -3.4336   -7.6175 H   0  0  0  0  0  0  0  0  0  0  0  0
    0.8942   -2.3157   -8.9885 H   0  0  0  0  0  0  0  0  0  0  0  0
    2.3463   -3.1071   -5.6680 H   0  0  0  0  0  0  0  0  0  0  0  0
    4.5608   -2.3467   -4.9213 H   0  0  0  0  0  0  0  0  0  0  0  0
    7.9296    1.3272   -6.2687 H   0  0  0  0  0  0  0  0  0  0  0  0
    9.7297    1.5568   -7.9170 H   0  0  0  0  0  0  0  0  0  0  0  0
    9.9470   -0.2374  -11.0111 H   0  0  0  0  0  0  0  0  0  0  0  0
   11.0731   -0.8616   -9.8134 H   0  0  0  0  0  0  0  0  0  0  0  0
   10.8012    0.8786   -9.9350 H   0  0  0  0  0  0  0  0  0  0  0  0
    8.4165   -2.0074   -9.8591 H   0  0  0  0  0  0  0  0  0  0  0  0
    6.6283   -2.2582   -8.1999 H   0  0  0  0  0  0  0  0  0  0  0  0
    4.0904    3.1318    1.3785 H   0  0  0  0  0  0  0  0  0  0  0  0
    2.1107    2.8549    2.8007 H   0  0  0  0  0  0  0  0  0  0  0  0
   -0.5507    1.7518    2.3496 H   0  0  0  0  0  0  0  0  0  0  0  0
    0.3985    1.1100    3.6843 H   0  0  0  0  0  0  0  0  0  0  0  0
   -0.3011    0.0072    2.4923 H   0  0  0  0  0  0  0  0  0  0  0  0
    1.0571   -0.6659    0.6387 H   0  0  0  0  0  0  0  0  0  0  0  0
    3.0039   -0.3661   -0.8063 H   0  0  0  0  0  0  0  0  0  0  0  0
    5.9329    1.1765    1.5455 H   0  0  0  0  0  0  0  0  0  0  0  0
    8.1016    2.0849    2.2486 H   0  0  0  0  0  0  0  0  0  0  0  0
   10.5171    3.2192    0.3418 H   0  0  0  0  0  0  0  0  0  0  0  0
    9.9084    3.6391    1.9445 H   0  0  0  0  0  0  0  0  0  0  0  0
    9.8426    4.8207    0.6270 H   0  0  0  0  0  0  0  0  0  0  0  0
    8.3684    4.2884   -1.3935 H   0  0  0  0  0  0  0  0  0  0  0  0
    6.1883    3.4023   -2.0912 H   0  0  0  0  0  0  0  0  0  0  0  0
    3.1856    3.6793   -4.2889 H   0  0  0  0  0  0  0  0  0  0  0  0
    5.0566    5.0949   -4.9815 H   0  0  0  0  0  0  0  0  0  0  0  0
    6.1204    6.6147   -3.3319 H   0  0  0  0  0  0  0  0  0  0  0  0
    5.2462    6.7113   -1.0418 H   0  0  0  0  0  0  0  0  0  0  0  0
    2.5090    4.6693    0.3232 H   0  0  0  0  0  0  0  0  0  0  0  0
    4.0905    5.3363    0.7421 H   0  0  0  0  0  0  0  0  0  0  0  0
    1.8252    6.9953   -0.4550 H   0  0  0  0  0  0  0  0  0  0  0  0
    2.2028    6.9061    1.2649 H   0  0  0  0  0  0  0  0  0  0  0  0
    3.3698    7.6002    0.1370 H   0  0  0  0  0  0  0  0  0  0  0  0
   -8.7277   -1.0873    6.2256 H   0  0  0  0  0  0  0  0  0  0  0  0
   -8.7501   -0.7804    7.9537 H   0  0  0  0  0  0  0  0  0  0  0  0
   -6.6968    0.3554    5.9920 H   0  0  0  0  0  0  0  0  0  0  0  0
   -6.7328    0.6756    7.7253 H   0  0  0  0  0  0  0  0  0  0  0  0
   -6.4322   -0.9641    7.1348 H   0  0  0  0  0  0  0  0  0  0  0  0
   -9.7791    1.0774    8.8530 H   0  0  0  0  0  0  0  0  0  0  0  0
  -10.9908    3.2004    8.6273 H   0  0  0  0  0  0  0  0  0  0  0  0
  -11.1499    4.2984    6.4147 H   0  0  0  0  0  0  0  0  0  0  0  0
  -10.1377    3.2178    4.4459 H   0  0  0  0  0  0  0  0  0  0  0  0
   -2.9925    0.0588    0.1911 H   0  0  0  0  0  0  0  0  0  0  0  0
   -1.2776    0.1643   -0.2191 H   0  0  0  0  0  0  0  0  0  0  0  0
   -1.7213    0.2987   -2.5936 H   0  0  0  0  0  0  0  0  0  0  0  0
   -3.4589    0.4062   -2.3534 H   0  0  0  0  0  0  0  0  0  0  0  0
   -2.6021   -1.0879   -1.9539 H   0  0  0  0  0  0  0  0  0  0  0  0
   -5.7297   -0.4604    0.3001 H   0  0  0  0  0  0  0  0  0  0  0  0
   -4.7497    0.5444   -0.7973 H   0  0  0  0  0  0  0  0  0  0  0  0
   -6.6833    2.0760   -1.1271 H   0  0  0  0  0  0  0  0  0  0  0  0
   -7.0347    0.4220   -1.6439 H   0  0  0  0  0  0  0  0  0  0  0  0
   -7.6807    1.0221   -0.1176 H   0  0  0  0  0  0  0  0  0  0  0  0
  -13.4323   -4.1652    6.0979 H   0  0  0  0  0  0  0  0  0  0  0  0
  -14.4076   -9.4092    6.1708 H   0  0  0  0  0  0  0  0  0  0  0  0
  -13.0675  -11.4459    5.6433 H   0  0  0  0  0  0  0  0  0  0  0  0
   -9.5629   -9.0577    5.0855 H   0  0  0  0  0  0  0  0  0  0  0  0
  1  2  2  0  0  0  0
  2  3  1  0  0  0  0
  3  4  2  0  0  0  0
  3  5  1  0  0  0  0
  5  6  2  0  0  0  0
  6  7  1  0  0  0  0
  7  8  2  0  0  0  0
  8  9  1  0  0  0  0
  8 10  1  0  0  0  0
 10 11  2  0  0  0  0
 11 12  1  0  0  0  0
 12 13  2  0  0  0  0
 13 14  1  0  0  0  0
 14 15  3  0  0  0  0
 13 16  1  0  0  0  0
 16 17  3  0  0  0  0
  1 18  1  0  0  0  0
 18 19  2  0  0  0  0
 19 20  1  0  0  0  0
 20 21  1  0  0  0  0
 21 22  2  0  0  0  0
 22 23  1  0  0  0  0
 23 24  2  0  0  0  0
 24 25  1  0  0  0  0
 24 26  1  0  0  0  0
 26 27  2  0  0  0  0
 20 28  1  0  0  0  0
 28 29  2  0  0  0  0
 29 30  1  0  0  0  0
 30 31  2  0  0  0  0
 31 32  1  0  0  0  0
 31 33  1  0  0  0  0
 33 34  2  0  0  0  0
 19 35  1  0  0  0  0
 35 36  1  0  0  0  0
 36 37  1  0  0  0  0
 37 38  2  0  0  0  0
 38 39  1  0  0  0  0
 39 40  1  0  0  0  0
 40 41  2  0  0  0  0
 41 42  1  0  0  0  0
 42 43  2  0  0  0  0
 43 44  1  0  0  0  0
 43 45  1  0  0  0  0
 45 46  2  0  0  0  0
 39 47  1  0  0  0  0
 47 48  2  0  0  0  0
 48 49  1  0  0  0  0
 49 50  2  0  0  0  0
 50 51  1  0  0  0  0
 50 52  1  0  0  0  0
 52 53  2  0  0  0  0
 38 54  1  0  0  0  0
 54 55  1  0  0  0  0
 37 56  1  0  0  0  0
 56 57  2  0  0  0  0
 57 58  1  0  0  0  0
 58 59  2  0  0  0  0
 59 60  1  0  0  0  0
 60 61  2  0  0  0  0
 61 62  1  0  0  0  0
 62 63  2  0  0  0  0
 63 64  1  0  0  0  0
 64 65  1  0  0  0  0
 57 66  1  0  0  0  0
 66 67  1  0  0  0  0
 67 68  1  0  0  0  0
 68 69  1  0  0  0  0
 69 70  1  0  0  0  0
 70 71  1  0  0  0  0
 71 72  2  0  0  0  0
 72 73  1  0  0  0  0
 73 74  1  0  0  0  0
 71 75  1  0  0  0  0
 75 76  1  0  0  0  0
 76 77  1  0  0  0  0
 77 78  1  0  0  0  0
 78 79  1  0  0  0  0
 79 80  1  0  0  0  0
 80 81  2  0  0  0  0
 81 82  1  0  0  0  0
 82 83  1  0  0  0  0
 81 84  1  0  0  0  0
 84 85  2  0  0  0  0
 85 86  1  0  0  0  0
 86 87  2  0  0  0  0
 79 88  2  0  0  0  0
 88 89  1  0  0  0  0
 89 90  1  0  0  0  0
 90 91  1  0  0  0  0
 91 92  1  0  0  0  0
 92 93  1  0  0  0  0
 93 94  1  0  0  0  0
 94 95  1  0  0  0  0
 95 96  1  0  0  0  0
 96 97  1  0  0  0  0
 97 98  1  0  0  0  0
 95 99  1  0  0  0  0
 99100  1  0  0  0  0
 92101  1  0  0  0  0
101102  1  0  0  0  0
 88103  1  0  0  0  0
103104  2  0  0  0  0
104105  1  0  0  0  0
105106  1  0  0  0  0
106107  2  0  0  0  0
107108  2  0  0  0  0
105109  2  0  0  0  0
109110  1  0  0  0  0
110111  2  0  0  0  0
111112  1  0  0  0  0
112113  1  0  0  0  0
113114  2  0  0  0  0
109115  1  0  0  0  0
115116  2  0  0  0  0
116117  1  0  0  0  0
117118  2  0  0  0  0
117119  1  0  0  0  0
119120  2  0  0  0  0
120121  1  0  0  0  0
121122  2  0  0  0  0
122123  1  0  0  0  0
122124  1  0  0  0  0
124125  2  0  0  0  0
125126  1  0  0  0  0
126127  2  0  0  0  0
127128  1  0  0  0  0
128129  3  0  0  0  0
127130  1  0  0  0  0
130131  3  0  0  0  0
 12  2  1  0  0  0  0
 55 18  1  0  0  0  0
 98 56  1  0  0  0  0
114103  1  0  0  0  0
126116  1  0  0  0  0
 11  5  1  0  0  0  0
 27 21  1  0  0  0  0
 34 28  1  0  0  0  0
 54 35  2  0  0  0  0
 63 58  1  0  0  0  0
 97 66  2  0  0  0  0
108104  1  0  0  0  0
114110  1  0  0  0  0
125119  1  0  0  0  0
 46 40  1  0  0  0  0
 53 47  1  0  0  0  0
 96 68  2  0  0  0  0
 94 69  2  0  0  0  0
 74 70  2  0  0  0  0
 93 75  2  0  0  0  0
 91 76  2  0  0  0  0
 90 78  2  0  0  0  0
 87 80  1  0  0  0  0
  1132  1  0  0  0  0
  6133  1  0  0  0  0
  7134  1  0  0  0  0
 10135  1  0  0  0  0
 22136  1  0  0  0  0
 23137  1  0  0  0  0
 25138  1  0  0  0  0
 25139  1  0  0  0  0
 25140  1  0  0  0  0
 26141  1  0  0  0  0
 27142  1  0  0  0  0
 29143  1  0  0  0  0
 30144  1  0  0  0  0
 32145  1  0  0  0  0
 32146  1  0  0  0  0
 32147  1  0  0  0  0
 33148  1  0  0  0  0
 34149  1  0  0  0  0
 41150  1  0  0  0  0
 42151  1  0  0  0  0
 44152  1  0  0  0  0
 44153  1  0  0  0  0
 44154  1  0  0  0  0
 45155  1  0  0  0  0
 46156  1  0  0  0  0
 48157  1  0  0  0  0
 49158  1  0  0  0  0
 51159  1  0  0  0  0
 51160  1  0  0  0  0
 51161  1  0  0  0  0
 52162  1  0  0  0  0
 53163  1  0  0  0  0
 59164  1  0  0  0  0
 60165  1  0  0  0  0
 61166  1  0  0  0  0
 62167  1  0  0  0  0
 64168  1  0  0  0  0
 64169  1  0  0  0  0
 65170  1  0  0  0  0
 65171  1  0  0  0  0
 65172  1  0  0  0  0
 82173  1  0  0  0  0
 82174  1  0  0  0  0
 83175  1  0  0  0  0
 83176  1  0  0  0  0
 83177  1  0  0  0  0
 84178  1  0  0  0  0
 85179  1  0  0  0  0
 86180  1  0  0  0  0
 87181  1  0  0  0  0
 99182  1  0  0  0  0
 99183  1  0  0  0  0
100184  1  0  0  0  0
100185  1  0  0  0  0
100186  1  0  0  0  0
101187  1  0  0  0  0
101188  1  0  0  0  0
102189  1  0  0  0  0
102190  1  0  0  0  0
102191  1  0  0  0  0
115192  1  0  0  0  0
120193  1  0  0  0  0
121194  1  0  0  0  0
124195  1  0  0  0  0
M  END
