
  xtb     02062207033D
 energy: -405.062762570399 gnorm: 0.000853522041 xtb: 6.4.1 (unknown)
246271  0     0  0            999 V2000
   -1.7688   -2.0569   -5.5967 C   0  0  0  0  0  0  0  0  0  0  0  0
   -1.7907   -2.4755   -6.9099 C   0  0  0  0  0  0  0  0  0  0  0  0
   -1.6476   -3.8541   -7.3812 C   0  0  0  0  0  0  0  0  0  0  0  0
   -1.3779   -4.8469   -6.7276 O   0  0  0  0  0  0  0  0  0  0  0  0
   -1.9246   -3.8147   -8.8312 C   0  0  0  0  0  0  0  0  0  0  0  0
   -1.9312   -4.8504   -9.7441 C   0  0  0  0  0  0  0  0  0  0  0  0
   -2.2252   -4.5652  -11.0688 C   0  0  0  0  0  0  0  0  0  0  0  0
   -2.5037   -3.2577  -11.4463 C   0  0  0  0  0  0  0  0  0  0  0  0
   -2.8685   -2.9216  -13.0970 Cl  0  0  0  0  0  0  0  0  0  0  0  0
   -2.4976   -2.2041  -10.5362 C   0  0  0  0  0  0  0  0  0  0  0  0
   -2.2050   -2.4917   -9.2148 C   0  0  0  0  0  0  0  0  0  0  0  0
   -2.1002   -1.6298   -8.0347 C   0  0  0  0  0  0  0  0  0  0  0  0
   -2.2525   -0.2632   -8.0355 C   0  0  0  0  0  0  0  0  0  0  0  0
   -2.0287    0.5902   -6.9398 C   0  0  0  0  0  0  0  0  0  0  0  0
   -1.8362    1.3676   -6.1136 N   0  0  0  0  0  0  0  0  0  0  0  0
   -2.6400    0.4877   -9.1634 C   0  0  0  0  0  0  0  0  0  0  0  0
   -2.9726    1.1565  -10.0360 N   0  0  0  0  0  0  0  0  0  0  0  0
   -1.4925   -2.7553   -4.4264 C   0  0  0  0  0  0  0  0  0  0  0  0
   -1.5815   -2.1601   -3.1394 C   0  0  0  0  0  0  0  0  0  0  0  0
   -2.1538   -0.9477   -2.8662 N   0  0  0  0  0  0  0  0  0  0  0  0
   -1.6564   -0.1655   -1.8046 C   0  0  0  0  0  0  0  0  0  0  0  0
   -2.5323    0.4701   -0.9288 C   0  0  0  0  0  0  0  0  0  0  0  0
   -2.0403    1.2718    0.0801 C   0  0  0  0  0  0  0  0  0  0  0  0
   -0.6729    1.4576    0.2481 C   0  0  0  0  0  0  0  0  0  0  0  0
   -0.1538    2.3180    1.3579 C   0  0  0  0  0  0  0  0  0  0  0  0
    0.1941    0.8148   -0.6274 C   0  0  0  0  0  0  0  0  0  0  0  0
   -0.2855    0.0127   -1.6449 C   0  0  0  0  0  0  0  0  0  0  0  0
   -3.2956   -0.4894   -3.5528 C   0  0  0  0  0  0  0  0  0  0  0  0
   -4.2789   -1.3836   -3.9696 C   0  0  0  0  0  0  0  0  0  0  0  0
   -5.3790   -0.9264   -4.6666 C   0  0  0  0  0  0  0  0  0  0  0  0
   -5.5404    0.4255   -4.9474 C   0  0  0  0  0  0  0  0  0  0  0  0
   -6.7173    0.9245   -5.7269 C   0  0  0  0  0  0  0  0  0  0  0  0
   -4.5752    1.3138   -4.4885 C   0  0  0  0  0  0  0  0  0  0  0  0
   -3.4619    0.8708   -3.8031 C   0  0  0  0  0  0  0  0  0  0  0  0
   -1.0258   -3.0069   -2.1655 C   0  0  0  0  0  0  0  0  0  0  0  0
   -0.7896   -2.8782   -0.4569 S   0  0  0  0  0  0  0  0  0  0  0  0
   -0.1243   -4.5127   -0.4118 C   0  0  0  0  0  0  0  0  0  0  0  0
   -0.0583   -5.0920   -1.6597 C   0  0  0  0  0  0  0  0  0  0  0  0
    0.4751   -6.3396   -1.9223 N   0  0  0  0  0  0  0  0  0  0  0  0
   -0.0967   -7.1307   -2.9310 C   0  0  0  0  0  0  0  0  0  0  0  0
   -1.4772   -7.1386   -3.1181 C   0  0  0  0  0  0  0  0  0  0  0  0
   -2.0335   -7.8886   -4.1337 C   0  0  0  0  0  0  0  0  0  0  0  0
   -1.2397   -8.6549   -4.9781 C   0  0  0  0  0  0  0  0  0  0  0  0
   -1.8571   -9.4340   -6.0983 C   0  0  0  0  0  0  0  0  0  0  0  0
    0.1332   -8.6586   -4.7688 C   0  0  0  0  0  0  0  0  0  0  0  0
    0.7050   -7.9060   -3.7622 C   0  0  0  0  0  0  0  0  0  0  0  0
    1.6112   -6.7743   -1.2225 C   0  0  0  0  0  0  0  0  0  0  0  0
    2.6491   -5.8907   -0.9439 C   0  0  0  0  0  0  0  0  0  0  0  0
    3.7559   -6.3167   -0.2350 C   0  0  0  0  0  0  0  0  0  0  0  0
    3.8626   -7.6287    0.2045 C   0  0  0  0  0  0  0  0  0  0  0  0
    5.0506   -8.0915    0.9918 C   0  0  0  0  0  0  0  0  0  0  0  0
    2.8303   -8.5116   -0.0966 C   0  0  0  0  0  0  0  0  0  0  0  0
    1.7177   -8.0973   -0.7991 C   0  0  0  0  0  0  0  0  0  0  0  0
   -0.5920   -4.2313   -2.6578 C   0  0  0  0  0  0  0  0  0  0  0  0
   -0.8506   -4.3996   -4.3560 S   0  0  0  0  0  0  0  0  0  0  0  0
    0.3036   -4.9561    0.8981 C   0  0  0  0  0  0  0  0  0  0  0  0
   -0.4531   -5.5694    1.8701 C   0  0  0  0  0  0  0  0  0  0  0  0
   -1.7185   -6.2535    1.6020 C   0  0  0  0  0  0  0  0  0  0  0  0
   -1.8340   -7.1133    0.5136 C   0  0  0  0  0  0  0  0  0  0  0  0
   -3.0291   -7.7615    0.2683 C   0  0  0  0  0  0  0  0  0  0  0  0
   -4.1139   -7.5643    1.1054 C   0  0  0  0  0  0  0  0  0  0  0  0
   -4.0152   -6.7131    2.1986 C   0  0  0  0  0  0  0  0  0  0  0  0
   -5.1638   -6.5346    3.1490 C   0  0  0  0  0  0  0  0  0  0  0  0
   -4.9845   -7.4391    4.3699 C   0  0  0  0  0  0  0  0  0  0  0  0
   -2.8139   -6.0621    2.4364 C   0  0  0  0  0  0  0  0  0  0  0  0
    0.1159   -5.3952    3.1565 C   0  0  0  0  0  0  0  0  0  0  0  0
   -0.4900   -5.6566    4.7834 S   0  0  0  0  0  0  0  0  0  0  0  0
    0.7928   -4.6641    5.4123 C   0  0  0  0  0  0  0  0  0  0  0  0
    1.0521   -3.8512    6.5356 C   0  0  0  0  0  0  0  0  0  0  0  0
    0.2368   -3.4892    7.6378 C   0  0  0  0  0  0  0  0  0  0  0  0
    0.3732   -2.1625    8.1992 C   0  0  0  0  0  0  0  0  0  0  0  0
   -0.5625   -1.9003    9.0934 N   0  0  0  0  0  0  0  0  0  0  0  0
   -1.5204   -3.1995    9.2436 S   0  0  0  0  0  0  0  0  0  0  0  0
   -0.7878   -4.1455    8.1499 N   0  0  0  0  0  0  0  0  0  0  0  0
    1.4135   -1.3192    7.7395 C   0  0  0  0  0  0  0  0  0  0  0  0
    1.6287    0.0782    7.7446 C   0  0  0  0  0  0  0  0  0  0  0  0
    0.6931    1.5329    7.9578 S   0  0  0  0  0  0  0  0  0  0  0  0
    1.7884    2.3865    6.8762 C   0  0  0  0  0  0  0  0  0  0  0  0
    1.6519    3.5374    6.0737 C   0  0  0  0  0  0  0  0  0  0  0  0
    0.5923    4.5347    6.2158 C   0  0  0  0  0  0  0  0  0  0  0  0
    0.9097    5.8923    6.2026 C   0  0  0  0  0  0  0  0  0  0  0  0
   -0.0815    6.8330    6.3978 C   0  0  0  0  0  0  0  0  0  0  0  0
   -1.3900    6.4339    6.6076 C   0  0  0  0  0  0  0  0  0  0  0  0
   -1.7269    5.0872    6.6075 C   0  0  0  0  0  0  0  0  0  0  0  0
   -3.1355    4.6415    6.8747 C   0  0  0  0  0  0  0  0  0  0  0  0
   -3.3019    4.2641    8.3480 C   0  0  0  0  0  0  0  0  0  0  0  0
   -0.7272    4.1459    6.4145 C   0  0  0  0  0  0  0  0  0  0  0  0
    2.6439    3.5883    5.1014 C   0  0  0  0  0  0  0  0  0  0  0  0
    3.8576    2.3253    5.2971 S   0  0  0  0  0  0  0  0  0  0  0  0
    2.9049    1.6177    6.5477 C   0  0  0  0  0  0  0  0  0  0  0  0
    2.8056    0.3105    7.0266 C   0  0  0  0  0  0  0  0  0  0  0  0
    3.3527   -0.8744    6.6016 N   0  0  0  0  0  0  0  0  0  0  0  0
    2.4417   -1.8645    6.9261 C   0  0  0  0  0  0  0  0  0  0  0  0
    2.1706   -3.0454    6.1951 C   0  0  0  0  0  0  0  0  0  0  0  0
    2.5812   -3.3606    4.9185 N   0  0  0  0  0  0  0  0  0  0  0  0
    1.7135   -4.2927    4.4285 C   0  0  0  0  0  0  0  0  0  0  0  0
    1.3104   -4.6847    3.1443 C   0  0  0  0  0  0  0  0  0  0  0  0
    1.7648   -4.2217    1.5474 S   0  0  0  0  0  0  0  0  0  0  0  0
    3.5314   -2.7174    4.0457 C   0  0  0  0  0  0  0  0  0  0  0  0
    4.8095   -3.5412    3.9063 C   0  0  0  0  0  0  0  0  0  0  0  0
    4.7833   -1.0178    6.4348 C   0  0  0  0  0  0  0  0  0  0  0  0
    5.5197   -0.6279    7.7157 C   0  0  0  0  0  0  0  0  0  0  0  0
    2.6305    4.2544    3.8490 C   0  0  0  0  0  0  0  0  0  0  0  0
    3.5795    4.0791    2.8538 C   0  0  0  0  0  0  0  0  0  0  0  0
    4.7719    3.3386    3.0244 N   0  0  0  0  0  0  0  0  0  0  0  0
    4.8464    2.0716    2.4380 C   0  0  0  0  0  0  0  0  0  0  0  0
    3.7085    1.4458    1.9300 C   0  0  0  0  0  0  0  0  0  0  0  0
    3.7799    0.1781    1.3895 C   0  0  0  0  0  0  0  0  0  0  0  0
    4.9822   -0.5153    1.3361 C   0  0  0  0  0  0  0  0  0  0  0  0
    5.0666   -1.8480    0.6536 C   0  0  0  0  0  0  0  0  0  0  0  0
    6.1003    0.0853    1.9007 C   0  0  0  0  0  0  0  0  0  0  0  0
    6.0386    1.3490    2.4552 C   0  0  0  0  0  0  0  0  0  0  0  0
    5.9212    4.1715    3.0983 C   0  0  0  0  0  0  0  0  0  0  0  0
    6.8246    4.2653    2.0447 C   0  0  0  0  0  0  0  0  0  0  0  0
    7.9140    5.1063    2.1471 C   0  0  0  0  0  0  0  0  0  0  0  0
    8.1218    5.8807    3.2843 C   0  0  0  0  0  0  0  0  0  0  0  0
    9.3136    6.7843    3.3735 C   0  0  0  0  0  0  0  0  0  0  0  0
    7.1984    5.7991    4.3173 C   0  0  0  0  0  0  0  0  0  0  0  0
    6.1060    4.9559    4.2285 C   0  0  0  0  0  0  0  0  0  0  0  0
    3.1902    4.6612    1.6356 C   0  0  0  0  0  0  0  0  0  0  0  0
    3.9064    4.6894    0.0657 S   0  0  0  0  0  0  0  0  0  0  0  0
    2.4657    5.4857   -0.5744 C   0  0  0  0  0  0  0  0  0  0  0  0
    1.4446    5.6074    0.4066 C   0  0  0  0  0  0  0  0  0  0  0  0
    0.1527    5.9736    0.1478 N   0  0  0  0  0  0  0  0  0  0  0  0
   -0.5989    6.5842    1.1675 C   0  0  0  0  0  0  0  0  0  0  0  0
   -0.0395    7.6044    1.9313 C   0  0  0  0  0  0  0  0  0  0  0  0
   -0.7852    8.2204    2.9167 C   0  0  0  0  0  0  0  0  0  0  0  0
   -2.0983    7.8419    3.1635 C   0  0  0  0  0  0  0  0  0  0  0  0
   -2.9279    8.5543    4.1854 C   0  0  0  0  0  0  0  0  0  0  0  0
   -2.6430    6.8111    2.4057 C   0  0  0  0  0  0  0  0  0  0  0  0
   -1.9090    6.1857    1.4192 C   0  0  0  0  0  0  0  0  0  0  0  0
   -0.4984    5.6090   -1.0516 C   0  0  0  0  0  0  0  0  0  0  0  0
   -0.2359    4.3879   -1.6666 C   0  0  0  0  0  0  0  0  0  0  0  0
   -0.8656    4.0581   -2.8504 C   0  0  0  0  0  0  0  0  0  0  0  0
   -1.7763    4.9238   -3.4444 C   0  0  0  0  0  0  0  0  0  0  0  0
   -2.4290    4.5943   -4.7506 C   0  0  0  0  0  0  0  0  0  0  0  0
   -2.0580    6.1246   -2.8018 C   0  0  0  0  0  0  0  0  0  0  0  0
   -1.4300    6.4718   -1.6224 C   0  0  0  0  0  0  0  0  0  0  0  0
    1.9133    5.2132    1.6695 C   0  0  0  0  0  0  0  0  0  0  0  0
    1.2213    5.1284    3.2674 S   0  0  0  0  0  0  0  0  0  0  0  0
    2.3642    6.0490   -1.8428 C   0  0  0  0  0  0  0  0  0  0  0  0
    3.2479    6.0393   -2.8984 C   0  0  0  0  0  0  0  0  0  0  0  0
    4.5093    5.2864   -2.9852 C   0  0  0  0  0  0  0  0  0  0  0  0
    5.0207    4.5890   -2.1260 O   0  0  0  0  0  0  0  0  0  0  0  0
    5.0237    5.5376   -4.3402 C   0  0  0  0  0  0  0  0  0  0  0  0
    6.1306    5.1785   -5.1271 C   0  0  0  0  0  0  0  0  0  0  0  0
    6.0594    5.7558   -6.3604 C   0  0  0  0  0  0  0  0  0  0  0  0
    4.6577    6.7402   -6.5903 S   0  0  0  0  0  0  0  0  0  0  0  0
    4.1403    6.3777   -4.9983 C   0  0  0  0  0  0  0  0  0  0  0  0
    3.0315    6.7336   -4.1495 C   0  0  0  0  0  0  0  0  0  0  0  0
    2.0187    7.5911   -4.5124 C   0  0  0  0  0  0  0  0  0  0  0  0
    0.9704    8.0294   -3.6874 C   0  0  0  0  0  0  0  0  0  0  0  0
    0.1030    8.4538   -3.0627 N   0  0  0  0  0  0  0  0  0  0  0  0
    1.9862    8.1571   -5.8021 C   0  0  0  0  0  0  0  0  0  0  0  0
    1.9474    8.6177   -6.8532 N   0  0  0  0  0  0  0  0  0  0  0  0
   -2.0098   -1.0137   -5.4378 H   0  0  0  0  0  0  0  0  0  0  0  0
   -1.7078   -5.8562   -9.4238 H   0  0  0  0  0  0  0  0  0  0  0  0
   -2.2391   -5.3482  -11.8103 H   0  0  0  0  0  0  0  0  0  0  0  0
   -2.7180   -1.2046  -10.8729 H   0  0  0  0  0  0  0  0  0  0  0  0
   -3.5966    0.3315   -1.0463 H   0  0  0  0  0  0  0  0  0  0  0  0
   -2.7295    1.7607    0.7530 H   0  0  0  0  0  0  0  0  0  0  0  0
   -0.8218    3.1543    1.5537 H   0  0  0  0  0  0  0  0  0  0  0  0
    0.8320    2.7073    1.1152 H   0  0  0  0  0  0  0  0  0  0  0  0
   -0.0708    1.7357    2.2768 H   0  0  0  0  0  0  0  0  0  0  0  0
    1.2607    0.9543   -0.5227 H   0  0  0  0  0  0  0  0  0  0  0  0
    0.3982   -0.4653   -2.3312 H   0  0  0  0  0  0  0  0  0  0  0  0
   -4.1733   -2.4365   -3.7529 H   0  0  0  0  0  0  0  0  0  0  0  0
   -6.1286   -1.6337   -4.9911 H   0  0  0  0  0  0  0  0  0  0  0  0
   -7.2351    1.7090   -5.1772 H   0  0  0  0  0  0  0  0  0  0  0  0
   -7.4189    0.1207   -5.9343 H   0  0  0  0  0  0  0  0  0  0  0  0
   -6.3858    1.3485   -6.6746 H   0  0  0  0  0  0  0  0  0  0  0  0
   -4.6864    2.3686   -4.6874 H   0  0  0  0  0  0  0  0  0  0  0  0
   -2.7170    1.5740   -3.4668 H   0  0  0  0  0  0  0  0  0  0  0  0
   -2.1095   -6.5578   -2.4619 H   0  0  0  0  0  0  0  0  0  0  0  0
   -3.1049   -7.8793   -4.2736 H   0  0  0  0  0  0  0  0  0  0  0  0
   -2.1404   -8.7558   -6.9033 H   0  0  0  0  0  0  0  0  0  0  0  0
   -2.7562   -9.9483   -5.7635 H   0  0  0  0  0  0  0  0  0  0  0  0
   -1.1594  -10.1664   -6.4968 H   0  0  0  0  0  0  0  0  0  0  0  0
    0.7699   -9.2487   -5.4123 H   0  0  0  0  0  0  0  0  0  0  0  0
    1.7760   -7.9066   -3.6211 H   0  0  0  0  0  0  0  0  0  0  0  0
    2.5861   -4.8681   -1.2870 H   0  0  0  0  0  0  0  0  0  0  0  0
    4.5485   -5.6130   -0.0241 H   0  0  0  0  0  0  0  0  0  0  0  0
    5.4547   -9.0109    0.5719 H   0  0  0  0  0  0  0  0  0  0  0  0
    4.7619   -8.2968    2.0230 H   0  0  0  0  0  0  0  0  0  0  0  0
    5.8322   -7.3358    0.9974 H   0  0  0  0  0  0  0  0  0  0  0  0
    2.8972   -9.5384    0.2330 H   0  0  0  0  0  0  0  0  0  0  0  0
    0.9242   -8.7950   -1.0245 H   0  0  0  0  0  0  0  0  0  0  0  0
   -0.9785   -7.2901   -0.1172 H   0  0  0  0  0  0  0  0  0  0  0  0
   -3.1114   -8.4293   -0.5773 H   0  0  0  0  0  0  0  0  0  0  0  0
   -5.0445   -8.0782    0.9110 H   0  0  0  0  0  0  0  0  0  0  0  0
   -5.2127   -5.4946    3.4781 H   0  0  0  0  0  0  0  0  0  0  0  0
   -6.1028   -6.7808    2.6493 H   0  0  0  0  0  0  0  0  0  0  0  0
   -4.0590   -7.1963    4.8869 H   0  0  0  0  0  0  0  0  0  0  0  0
   -5.8138   -7.3132    5.0620 H   0  0  0  0  0  0  0  0  0  0  0  0
   -4.9422   -8.4822    4.0639 H   0  0  0  0  0  0  0  0  0  0  0  0
   -2.7338   -5.3871    3.2756 H   0  0  0  0  0  0  0  0  0  0  0  0
    1.9355    6.2000    6.0609 H   0  0  0  0  0  0  0  0  0  0  0  0
    0.1698    7.8833    6.3991 H   0  0  0  0  0  0  0  0  0  0  0  0
   -2.1572    7.1739    6.7801 H   0  0  0  0  0  0  0  0  0  0  0  0
   -3.3722    3.7752    6.2536 H   0  0  0  0  0  0  0  0  0  0  0  0
   -3.8334    5.4431    6.6251 H   0  0  0  0  0  0  0  0  0  0  0  0
   -4.3203    3.9373    8.5449 H   0  0  0  0  0  0  0  0  0  0  0  0
   -2.6205    3.4582    8.6107 H   0  0  0  0  0  0  0  0  0  0  0  0
   -3.0820    5.1189    8.9838 H   0  0  0  0  0  0  0  0  0  0  0  0
   -0.9784    3.0955    6.4100 H   0  0  0  0  0  0  0  0  0  0  0  0
    3.0616   -2.6243    3.0622 H   0  0  0  0  0  0  0  0  0  0  0  0
    3.7361   -1.7104    4.3995 H   0  0  0  0  0  0  0  0  0  0  0  0
    5.2292   -3.7857    4.8799 H   0  0  0  0  0  0  0  0  0  0  0  0
    4.5966   -4.4722    3.3863 H   0  0  0  0  0  0  0  0  0  0  0  0
    5.5447   -2.9807    3.3382 H   0  0  0  0  0  0  0  0  0  0  0  0
    5.1148   -0.3719    5.6137 H   0  0  0  0  0  0  0  0  0  0  0  0
    5.0050   -2.0570    6.1976 H   0  0  0  0  0  0  0  0  0  0  0  0
    5.1846   -1.2422    8.5489 H   0  0  0  0  0  0  0  0  0  0  0  0
    5.3372    0.4162    7.9572 H   0  0  0  0  0  0  0  0  0  0  0  0
    6.5883   -0.7713    7.5815 H   0  0  0  0  0  0  0  0  0  0  0  0
    2.7584    1.9558    1.9598 H   0  0  0  0  0  0  0  0  0  0  0  0
    2.8839   -0.2802    0.9941 H   0  0  0  0  0  0  0  0  0  0  0  0
    5.9614   -2.3878    0.9549 H   0  0  0  0  0  0  0  0  0  0  0  0
    5.1120   -1.7035   -0.4266 H   0  0  0  0  0  0  0  0  0  0  0  0
    4.1915   -2.4590    0.8682 H   0  0  0  0  0  0  0  0  0  0  0  0
    7.0445   -0.4416    1.9039 H   0  0  0  0  0  0  0  0  0  0  0  0
    6.9211    1.7847    2.8985 H   0  0  0  0  0  0  0  0  0  0  0  0
    6.6619    3.6880    1.1468 H   0  0  0  0  0  0  0  0  0  0  0  0
    8.6113    5.1735    1.3246 H   0  0  0  0  0  0  0  0  0  0  0  0
    9.3334    7.3122    4.3234 H   0  0  0  0  0  0  0  0  0  0  0  0
    9.2945    7.5177    2.5682 H   0  0  0  0  0  0  0  0  0  0  0  0
   10.2337    6.2094    3.2757 H   0  0  0  0  0  0  0  0  0  0  0  0
    7.3339    6.4003    5.2050 H   0  0  0  0  0  0  0  0  0  0  0  0
    5.3924    4.8996    5.0371 H   0  0  0  0  0  0  0  0  0  0  0  0
    0.9732    7.9238    1.7332 H   0  0  0  0  0  0  0  0  0  0  0  0
   -0.3424    9.0196    3.4924 H   0  0  0  0  0  0  0  0  0  0  0  0
   -3.6077    7.8644    4.6798 H   0  0  0  0  0  0  0  0  0  0  0  0
   -3.5282    9.3255    3.7010 H   0  0  0  0  0  0  0  0  0  0  0  0
   -2.2995    9.0350    4.9304 H   0  0  0  0  0  0  0  0  0  0  0  0
   -3.6594    6.4950    2.5909 H   0  0  0  0  0  0  0  0  0  0  0  0
   -2.3449    5.3895    0.8334 H   0  0  0  0  0  0  0  0  0  0  0  0
    0.4689    3.7004   -1.2253 H   0  0  0  0  0  0  0  0  0  0  0  0
   -0.6403    3.1118   -3.3208 H   0  0  0  0  0  0  0  0  0  0  0  0
   -2.0899    5.2892   -5.5190 H   0  0  0  0  0  0  0  0  0  0  0  0
   -2.1893    3.5847   -5.0726 H   0  0  0  0  0  0  0  0  0  0  0  0
   -3.5104    4.6981   -4.6725 H   0  0  0  0  0  0  0  0  0  0  0  0
   -2.7636    6.8117   -3.2438 H   0  0  0  0  0  0  0  0  0  0  0  0
   -1.6427    7.4179   -1.1501 H   0  0  0  0  0  0  0  0  0  0  0  0
    1.4476    6.6018   -2.0073 H   0  0  0  0  0  0  0  0  0  0  0  0
    6.9285    4.5365   -4.8024 H   0  0  0  0  0  0  0  0  0  0  0  0
    6.7591    5.6645   -7.1681 H   0  0  0  0  0  0  0  0  0  0  0  0
  1  2  2  0  0  0  0
  2  3  1  0  0  0  0
  3  4  2  0  0  0  0
  3  5  1  0  0  0  0
  5  6  2  0  0  0  0
  6  7  1  0  0  0  0
  7  8  2  0  0  0  0
  8  9  1  0  0  0  0
  8 10  1  0  0  0  0
 10 11  2  0  0  0  0
 11 12  1  0  0  0  0
 12 13  2  0  0  0  0
 13 14  1  0  0  0  0
 14 15  3  0  0  0  0
 13 16  1  0  0  0  0
 16 17  3  0  0  0  0
  1 18  1  0  0  0  0
 18 19  2  0  0  0  0
 19 20  1  0  0  0  0
 20 21  1  0  0  0  0
 21 22  2  0  0  0  0
 22 23  1  0  0  0  0
 23 24  2  0  0  0  0
 24 25  1  0  0  0  0
 24 26  1  0  0  0  0
 26 27  2  0  0  0  0
 20 28  1  0  0  0  0
 28 29  2  0  0  0  0
 29 30  1  0  0  0  0
 30 31  2  0  0  0  0
 31 32  1  0  0  0  0
 31 33  1  0  0  0  0
 33 34  2  0  0  0  0
 19 35  1  0  0  0  0
 35 36  1  0  0  0  0
 36 37  1  0  0  0  0
 37 38  2  0  0  0  0
 38 39  1  0  0  0  0
 39 40  1  0  0  0  0
 40 41  2  0  0  0  0
 41 42  1  0  0  0  0
 42 43  2  0  0  0  0
 43 44  1  0  0  0  0
 43 45  1  0  0  0  0
 45 46  2  0  0  0  0
 39 47  1  0  0  0  0
 47 48  2  0  0  0  0
 48 49  1  0  0  0  0
 49 50  2  0  0  0  0
 50 51  1  0  0  0  0
 50 52  1  0  0  0  0
 52 53  2  0  0  0  0
 38 54  1  0  0  0  0
 54 55  1  0  0  0  0
 37 56  1  0  0  0  0
 56 57  2  0  0  0  0
 57 58  1  0  0  0  0
 58 59  2  0  0  0  0
 59 60  1  0  0  0  0
 60 61  2  0  0  0  0
 61 62  1  0  0  0  0
 62 63  1  0  0  0  0
 63 64  1  0  0  0  0
 62 65  2  0  0  0  0
 57 66  1  0  0  0  0
 66 67  1  0  0  0  0
 67 68  1  0  0  0  0
 68 69  1  0  0  0  0
 69 70  1  0  0  0  0
 70 71  1  0  0  0  0
 71 72  2  0  0  0  0
 72 73  1  0  0  0  0
 73 74  1  0  0  0  0
 71 75  1  0  0  0  0
 75 76  1  0  0  0  0
 76 77  1  0  0  0  0
 77 78  1  0  0  0  0
 78 79  1  0  0  0  0
 79 80  1  0  0  0  0
 80 81  2  0  0  0  0
 81 82  1  0  0  0  0
 82 83  2  0  0  0  0
 83 84  1  0  0  0  0
 84 85  1  0  0  0  0
 85 86  1  0  0  0  0
 84 87  2  0  0  0  0
 79 88  2  0  0  0  0
 88 89  1  0  0  0  0
 89 90  1  0  0  0  0
 90 91  1  0  0  0  0
 91 92  1  0  0  0  0
 92 93  1  0  0  0  0
 93 94  1  0  0  0  0
 94 95  1  0  0  0  0
 95 96  1  0  0  0  0
 96 97  1  0  0  0  0
 97 98  1  0  0  0  0
 95 99  1  0  0  0  0
 99100  1  0  0  0  0
 92101  1  0  0  0  0
101102  1  0  0  0  0
 88103  1  0  0  0  0
103104  2  0  0  0  0
104105  1  0  0  0  0
105106  1  0  0  0  0
106107  2  0  0  0  0
107108  1  0  0  0  0
108109  2  0  0  0  0
109110  1  0  0  0  0
109111  1  0  0  0  0
111112  2  0  0  0  0
105113  1  0  0  0  0
113114  2  0  0  0  0
114115  1  0  0  0  0
115116  2  0  0  0  0
116117  1  0  0  0  0
116118  1  0  0  0  0
118119  2  0  0  0  0
104120  1  0  0  0  0
120121  1  0  0  0  0
121122  1  0  0  0  0
122123  2  0  0  0  0
123124  1  0  0  0  0
124125  1  0  0  0  0
125126  2  0  0  0  0
126127  1  0  0  0  0
127128  2  0  0  0  0
128129  1  0  0  0  0
128130  1  0  0  0  0
130131  2  0  0  0  0
124132  1  0  0  0  0
132133  2  0  0  0  0
133134  1  0  0  0  0
134135  2  0  0  0  0
135136  1  0  0  0  0
135137  1  0  0  0  0
137138  2  0  0  0  0
123139  1  0  0  0  0
139140  1  0  0  0  0
122141  1  0  0  0  0
141142  2  0  0  0  0
142143  1  0  0  0  0
143144  2  0  0  0  0
143145  1  0  0  0  0
145146  1  0  0  0  0
146147  2  0  0  0  0
147148  1  0  0  0  0
148149  1  0  0  0  0
149150  1  0  0  0  0
150151  2  0  0  0  0
151152  1  0  0  0  0
152153  3  0  0  0  0
151154  1  0  0  0  0
154155  3  0  0  0  0
 12  2  1  0  0  0  0
 55 18  1  0  0  0  0
 98 56  1  0  0  0  0
140103  1  0  0  0  0
150142  1  0  0  0  0
 11  5  1  0  0  0  0
 27 21  1  0  0  0  0
 34 28  1  0  0  0  0
 54 35  2  0  0  0  0
 65 58  1  0  0  0  0
 97 66  2  0  0  0  0
112106  1  0  0  0  0
119113  1  0  0  0  0
139120  2  0  0  0  0
149145  2  0  0  0  0
 46 40  1  0  0  0  0
 53 47  1  0  0  0  0
 96 68  2  0  0  0  0
131125  1  0  0  0  0
138132  1  0  0  0  0
 94 69  2  0  0  0  0
 74 70  2  0  0  0  0
 93 75  2  0  0  0  0
 91 76  2  0  0  0  0
 90 78  2  0  0  0  0
 87 80  1  0  0  0  0
  1156  1  0  0  0  0
  6157  1  0  0  0  0
  7158  1  0  0  0  0
 10159  1  0  0  0  0
 22160  1  0  0  0  0
 23161  1  0  0  0  0
 25162  1  0  0  0  0
 25163  1  0  0  0  0
 25164  1  0  0  0  0
 26165  1  0  0  0  0
 27166  1  0  0  0  0
 29167  1  0  0  0  0
 30168  1  0  0  0  0
 32169  1  0  0  0  0
 32170  1  0  0  0  0
 32171  1  0  0  0  0
 33172  1  0  0  0  0
 34173  1  0  0  0  0
 41174  1  0  0  0  0
 42175  1  0  0  0  0
 44176  1  0  0  0  0
 44177  1  0  0  0  0
 44178  1  0  0  0  0
 45179  1  0  0  0  0
 46180  1  0  0  0  0
 48181  1  0  0  0  0
 49182  1  0  0  0  0
 51183  1  0  0  0  0
 51184  1  0  0  0  0
 51185  1  0  0  0  0
 52186  1  0  0  0  0
 53187  1  0  0  0  0
 59188  1  0  0  0  0
 60189  1  0  0  0  0
 61190  1  0  0  0  0
 63191  1  0  0  0  0
 63192  1  0  0  0  0
 64193  1  0  0  0  0
 64194  1  0  0  0  0
 64195  1  0  0  0  0
 65196  1  0  0  0  0
 81197  1  0  0  0  0
 82198  1  0  0  0  0
 83199  1  0  0  0  0
 85200  1  0  0  0  0
 85201  1  0  0  0  0
 86202  1  0  0  0  0
 86203  1  0  0  0  0
 86204  1  0  0  0  0
 87205  1  0  0  0  0
 99206  1  0  0  0  0
 99207  1  0  0  0  0
100208  1  0  0  0  0
100209  1  0  0  0  0
100210  1  0  0  0  0
101211  1  0  0  0  0
101212  1  0  0  0  0
102213  1  0  0  0  0
102214  1  0  0  0  0
102215  1  0  0  0  0
107216  1  0  0  0  0
108217  1  0  0  0  0
110218  1  0  0  0  0
110219  1  0  0  0  0
110220  1  0  0  0  0
111221  1  0  0  0  0
112222  1  0  0  0  0
114223  1  0  0  0  0
115224  1  0  0  0  0
117225  1  0  0  0  0
117226  1  0  0  0  0
117227  1  0  0  0  0
118228  1  0  0  0  0
119229  1  0  0  0  0
126230  1  0  0  0  0
127231  1  0  0  0  0
129232  1  0  0  0  0
129233  1  0  0  0  0
129234  1  0  0  0  0
130235  1  0  0  0  0
131236  1  0  0  0  0
133237  1  0  0  0  0
134238  1  0  0  0  0
136239  1  0  0  0  0
136240  1  0  0  0  0
136241  1  0  0  0  0
137242  1  0  0  0  0
138243  1  0  0  0  0
141244  1  0  0  0  0
146245  1  0  0  0  0
147246  1  0  0  0  0
M  END
