284

C         -7.15150       10.47800       -1.94430
C         -8.08780       10.48790       -2.95980
C         -8.06310        9.66270       -4.16700
O         -7.17620        8.92040       -4.55460
C         -9.35980        9.88620       -4.83770
C         -9.84110        9.33440       -6.00800
C        -11.10480        9.70290       -6.44430
C        -11.85080       10.61070       -5.70390
Cl       -13.41940       11.05870       -6.26180
C        -11.37590       11.17600       -4.52350
C        -10.11610       10.80410       -4.08930
C         -9.32980       11.21640       -2.92320
C         -9.72750       12.14810       -1.99330
C        -10.99960       12.75250       -1.97230
N        -12.02340       13.26520       -1.87910
C         -8.93060       12.65610       -0.95040
N         -8.34170       13.14990       -0.09470
C         -5.93770        9.81050       -1.84120
C         -5.13170        9.83840       -0.66830
N         -5.51240       10.34460        0.54490
C         -6.82790       10.22710        1.03370
C         -7.37320       11.24350        1.81360
C         -8.66430       11.12980        2.28940
C         -9.44390       10.01720        1.99630
C        -10.85860        9.93390        2.47990
C         -8.88170        8.99860        1.23510
C         -7.58720        9.09070        0.76520
C         -4.52140       10.87270        1.39470
C         -4.50610       10.55860        2.74960
C         -3.52930       11.08750        3.57000
C         -2.54870       11.93320        3.06640
C         -1.47600       12.48930        3.95060
C         -2.57550       12.24420        1.71120
C         -3.54850       11.72670        0.88130
C         -3.88820        9.23640       -0.90410
S         -2.49510        8.89660        0.08040
C         -1.76450        7.99060       -1.23640
C         -2.53200        8.03430       -2.39810
N         -2.20830        7.41540       -3.60370
C         -1.07350        7.78700       -4.32930
C         -0.45380        9.01620       -4.11470
C          0.69300        9.34710       -4.80770
C          1.25320        8.47460       -5.73360
C          2.49810        8.85630       -6.47640
C          0.63000        7.25060       -5.94290
C         -0.51250        6.90290       -5.25160
C         -3.22390        6.63180       -4.18070
C         -3.93920        5.75390       -3.37180
C         -4.97060        5.00430       -3.90130
C         -5.30780        5.10090       -5.24490
C         -6.44180        4.30710       -5.81770
C         -4.58080        5.97310       -6.04680
C         -3.55500        6.73580       -5.52790
C         -3.74720        8.71850       -2.18740
S         -5.15330        8.93670       -3.16280
C         -0.64180        7.16630       -0.99200
C         -0.02940        6.90260        0.22090
C          0.85370        5.82670        0.13040
S          1.74940        4.86880        1.28120
C          2.17050        3.73510        0.02160
C          2.67050        2.38770       -0.05600
C          3.15030        1.48680        0.90430
O          3.48220        1.78560        2.18640
C          4.10870        3.02730        2.46010
C          5.26820        2.78230        3.41650
C          3.26140        0.16330        0.50480
C          2.97910       -0.29700       -0.80320
C          2.61720        0.63380       -1.79700
O          2.45440        0.42150       -3.13580
C          1.69330       -0.66830       -3.61770
C          0.35960       -0.85040       -2.90780
C          2.46390        1.94950       -1.38490
C          1.99050        3.09300       -2.26570
C          3.09990        3.66590       -3.13690
C          2.83110        4.80530       -3.88940
C          3.81620        5.38890       -4.65920
C          5.09810        4.85360       -4.70220
C          6.15120        5.46820       -5.57930
C          5.99690        4.98230       -7.02180
C          5.36030        3.71650       -3.95260
C          4.37750        3.13080       -3.17230
C          0.74810        2.78380       -3.07730
C         -0.49080        2.75310       -2.44700
C         -1.65080        2.58120       -3.17840
C         -1.60560        2.41890       -4.55680
C         -2.86690        2.22080       -5.34620
C         -3.26820        0.74450       -5.35810
C         -0.36260        2.39670       -5.17460
C          0.79990        2.58070       -4.44900
C          1.69520        4.12260       -1.21460
C          0.94940        5.29290       -1.16100
S         -0.06720        6.11360       -2.27390
C          3.13470       -1.73080       -0.76160
C          3.47950       -2.14260        0.51360
C          3.69420       -0.96680        1.41850
C          2.81280       -1.03250        2.65150
C          1.51850       -1.52210        2.53070
C          0.68560       -1.59400        3.63080
C          1.11990       -1.17300        4.88010
C          0.20350       -1.21550        6.06930
C         -0.57330        0.09680        6.19280
C          2.40610       -0.66270        4.99080
C          3.24360       -0.59130        3.89370
C          5.17810       -0.91270        1.74090
C          6.03080       -0.00680        1.12610
C          7.38190        0.00330        1.42460
C          7.91960       -0.89810        2.33180
C          9.37380       -0.84310        2.70240
C          9.58500        0.10070        3.88820
C          7.06730       -1.82180        2.92280
C          5.71800       -1.83640        2.62860
C          3.49120       -3.52840        0.65320
C          3.17600       -4.18920       -0.54000
S          2.89860       -3.07710       -1.84510
C          3.05880       -5.57050       -0.40920
C          3.26970       -5.98460        0.89170
S          3.66350       -4.64360        1.95920
C          3.02820       -7.28860        1.39000
C          3.18600       -7.79060        2.67830
N          3.80930       -7.14550        3.73640
C          5.10190       -6.62860        3.61530
C          5.97020       -7.07890        2.62220
C          7.24360       -6.55800        2.52260
C          7.70070       -5.59360        3.41290
C          9.08950       -5.04480        3.28750
C          6.83090       -5.15140        4.40140
C          5.54570       -5.64510        4.49770
C          3.20060       -7.28450        4.99860
C          3.93260       -7.64480        6.12580
C          3.29730       -7.79610        7.34190
C          1.92620       -7.60490        7.46730
C          1.24180       -7.80480        8.78450
C          1.20300       -7.25060        6.33510
C          1.82750       -7.08730        5.11490
C          2.60790       -9.07450        2.79430
S          2.49150      -10.20240        4.09210
C          1.60640      -11.33700        3.05680
C          1.52000      -10.87420        1.72180
N          1.09760      -11.58540        0.63860
C          0.64010      -10.89360       -0.50520
C          1.10970      -11.25000       -1.76400
C          0.66700      -10.56900       -2.88170
C         -0.24600       -9.52770       -2.77080
C         -0.70600       -8.76910       -3.97730
C         -0.72170       -9.19350       -1.50700
C         -0.28970       -9.86580       -0.38190
C          1.11720      -12.98640        0.58760
C          2.17580      -13.71700        1.12640
C          2.15180      -15.09490        1.09750
C          1.08070      -15.78740        0.53570
C          1.04990      -17.28280        0.56200
C          0.05310      -15.05230       -0.03890
C          0.06650      -13.66990       -0.02040
C          2.05510       -9.57150        1.62140
S          2.25750       -8.44970        0.31520
C          1.14080      -12.50270        3.65860
C          0.09530      -13.28800        3.20600
C         -1.02810      -12.76960        2.41410
O         -1.19160      -11.63200        2.01170
C         -1.99130      -13.88950        2.31640
C         -3.21820      -13.93080        1.68720
C         -3.94080      -15.11510        1.71770
C         -3.42590      -16.21940        2.38230
Cl        -4.33970      -17.68250        2.41210
C         -2.19340      -16.18840        3.02930
C         -1.47410      -15.00880        2.98910
C         -0.16160      -14.65770        3.53430
C          0.73230      -15.53150        4.10640
C          2.04260      -15.17770        4.48230
N          3.13180      -14.96860        4.78230
C          0.48090      -16.90010        4.30780
N          0.33750      -18.02710        4.48120
H         -7.40110       11.07410       -1.07620
H         -9.23830        8.63410       -6.56520
H        -11.51450        9.29300       -7.35390
H        -11.98800       11.87770       -3.98170
H         -6.78840       12.12340        2.03030
H         -9.08050       11.93050        2.88160
H        -10.92290       10.21000        3.53060
H        -11.48510       10.62600        1.91670
H        -11.25710        8.93040        2.35360
H         -9.46230        8.11500        1.01200
H         -7.16210        8.28720        0.18150
H         -5.25850        9.89690        3.15230
H         -3.52680       10.83290        4.61980
H         -1.74010       12.38170        4.99940
H         -1.30720       13.54250        3.73530
H         -0.53890       11.95960        3.77770
H         -1.82740       12.90790        1.30300
H         -3.56940       11.98840       -0.16650
H         -0.87600        9.71160       -3.40370
H          1.16090       10.30490       -4.63010
H          3.31380        9.04950       -5.77980
H          2.33340        9.76670       -7.05190
H          2.80140        8.06720       -7.16040
H          1.05080        6.54800       -6.64800
H         -0.96660        5.93470       -5.40240
H         -3.68090        5.66570       -2.32610
H         -5.52290        4.33290       -3.25840
H         -6.19090        3.93280       -6.80820
H         -6.69500        3.46620       -5.17610
H         -7.32370        4.94100       -5.91190
H         -4.83500        6.06890       -7.09230
H         -3.01630        7.42670       -6.15880
H         -0.25880        7.44260        1.12160
H          4.47250        3.48490        1.53300
H          3.38100        3.70470        2.92430
H          4.89680        2.34530        4.33910
H          5.76360        3.72270        3.64160
H          5.98330        2.09500        2.97000
H          1.52660       -0.41780       -4.66930
H          2.27980       -1.59360       -3.57560
H         -0.23050        0.06000       -2.97950
H          0.51080       -1.08630       -1.85680
H         -0.18570       -1.66690       -3.37240
H          1.84030        5.23600       -3.88170
H          3.58500        6.27660       -5.22940
H          7.14380        5.19940       -5.21260
H          6.06140        6.55660       -5.55610
H          5.01810        5.25480       -7.41010
H          6.09250        3.89960       -7.06720
H          6.75940        5.42590       -7.65800
H          6.34940        3.28070       -3.97300
H          4.61080        2.24720       -2.59850
H         -0.55010        2.87390       -1.37420
H         -2.60670        2.58610       -2.67410
H         -3.67080        2.81350       -4.90600
H         -2.71800        2.56260       -6.37240
H         -2.48200        0.14170       -5.80780
H         -4.18360        0.60330       -5.92810
H         -3.43200        0.38840       -4.34330
H         -0.30350        2.24880       -6.24400
H          1.75430        2.56860       -4.95240
H          1.15660       -1.85220        1.56680
H         -0.31560       -1.98580        3.51710
H         -0.50130       -2.04300        5.96460
H          0.78530       -1.37620        6.97940
H          0.11340        0.93230        6.30890
H         -1.23680        0.06860        7.05430
H         -1.16940        0.26820        5.29930
H          2.75990       -0.31850        5.95270
H          4.23720       -0.18710        4.00510
H          5.64460        0.70020        0.40700
H          8.02710        0.72350        0.94070
H          9.72710       -1.84040        2.97110
H          9.96090       -0.48940        1.85230
H          9.01420       -0.24100        4.74880
H         10.63690        0.14050        4.16170
H          9.25340        1.10570        3.63630
H          7.46330       -2.54380        3.61960
H          5.07810       -2.56890        3.09930
H          2.80620       -6.24650       -1.20590
H          5.64780       -7.84560        1.93300
H          7.90270       -6.91890        1.74600
H          9.80660       -5.84770        3.12580
H          9.37550       -4.49750        4.18290
H          9.14790       -4.36880        2.43340
H          7.15900       -4.40740        5.11350
H          4.87670       -5.27210        5.25840
H          4.99560       -7.81430        6.04110
H          3.87610       -8.08050        8.20880
H          0.34480       -7.19380        8.85330
H          1.90510       -7.55440        9.60910
H          0.94770       -8.84920        8.89490
H          0.13630       -7.09630        6.40980
H          1.25630       -6.80400        4.24250
H          1.82270      -12.05590       -1.85990
H          1.04250      -10.84940       -3.85510
H         -0.44360       -9.29360       -4.89240
H         -1.78390       -8.62190       -3.95150
H         -0.23680       -7.78530       -3.99950
H         -1.44570       -8.39830       -1.40560
H         -0.68300       -9.62870        0.59410
H          3.01400      -13.20260        1.57190
H          2.97520      -15.64700        1.52660
H          1.95940      -17.69170        0.12480
H          0.19300      -17.66450        0.01330
H          0.98900      -17.64260        1.58920
H         -0.78120      -15.56510       -0.49500
H         -0.74380      -13.11080       -0.46360
H          1.62420      -12.77670        4.58890
H         -3.59830      -13.05860        1.17800
H         -4.89990      -15.18620        1.22950
H         -1.83310      -17.06470        3.54250
