249

C         10.26920       -4.56660        4.55730
C         10.07900       -5.07310        5.82870
C          8.91420       -5.82320        6.29870
O          7.86400       -6.03290        5.71470
C          9.26880       -6.32300        7.64280
C          8.52200       -7.09630        8.50890
C          9.07580       -7.44650        9.73100
C         10.35600       -7.01620       10.05510
Cl        11.02960       -7.46270       11.57800
C         11.11780       -6.23290        9.19220
C         10.56260       -5.88630        7.97330
C         11.07660       -5.07310        6.86790
C         12.28020       -4.40840        6.87230
C         12.71740       -3.50500        5.88570
N         13.13350       -2.72730        5.14770
C         13.24050       -4.51440        7.89730
N         14.07980       -4.56660        8.68000
C          9.39340       -4.48240        3.48170
C          9.76240       -3.98290        2.20130
N         11.03660       -3.66700        1.80670
C         11.23600       -2.57240        0.94630
C         12.21150       -2.61870       -0.04600
C         12.43410       -1.51960       -0.85050
C         11.69290       -0.35320       -0.69800
C         11.99080        0.85420       -1.53100
C         10.70760       -0.32390        0.28000
C         10.48190       -1.41200        1.09880
C         12.14960       -4.42690        2.21420
C         13.36250       -3.80400        2.49960
C         14.44450       -4.55760        2.90740
C         14.34910       -5.93720        3.05000
C         15.52470       -6.72980        3.53160
C         13.13950       -6.55050        2.74490
C         12.05210       -5.81200        2.32280
C          8.63460       -3.83230        1.38190
S          8.38100       -3.29810       -0.25070
C          6.64450       -3.57150       -0.09820
C          6.29730       -4.01000        1.18080
N          5.01500       -4.22850        1.68170
C          4.87890       -5.33260        2.54700
C          5.41430       -6.56080        2.17000
C          5.36690       -7.63350        3.03680
C          4.78080       -7.51410        4.29050
C          4.79400       -8.66170        5.25140
C          4.22260       -6.29270        4.64570
C          4.27040       -5.20960        3.79160
C          4.02220       -3.25290        1.61220
C          4.33460       -1.90960        1.39870
C          3.33150       -0.98400        1.19980
C          1.99170       -1.35500        1.22470
C          0.92000       -0.34260        0.95240
C          1.68490       -2.68330        1.49130
C          2.67790       -3.62250        1.68190
C          7.43990       -4.19550        1.99100
S          7.66230       -4.81900        3.58460
C          5.79800       -3.27660       -1.20000
C          6.10300       -2.55820       -2.34880
C          7.44730       -2.13830       -2.76970
C          7.82080       -0.80060       -2.75970
C          9.07560       -0.43940       -3.21210
C          9.95500       -1.40080       -3.67780
C          9.58990       -2.73930       -3.71010
C         10.53740       -3.80010       -4.19030
C         11.13460       -4.55560       -3.00260
C          8.32990       -3.09580       -3.25490
C          4.95470       -2.28040       -3.10630
S          4.67150       -1.30070       -4.52850
C          2.96390       -1.54380       -4.33010
C          1.74660       -1.08490       -4.86730
C          1.42480       -0.31170       -6.00540
C          0.04340       -0.01510       -6.28440
N         -0.10700        0.67770       -7.40150
S          1.35510        0.93730       -8.04890
N          2.24030        0.17920       -6.92430
C         -0.94200       -0.37310       -5.33610
C         -2.27600        0.03890       -5.16760
S         -3.44810        1.04030       -5.95970
C         -4.46160        0.94230       -4.53940
C         -5.61000        1.66520       -4.14770
C         -6.31530        2.58040       -5.04920
C         -6.60380        2.15540       -6.34470
C         -7.24790        3.00640       -7.21910
C         -7.59330        4.29090       -6.83060
C         -7.30320        4.73890       -5.54970
C         -7.61710        6.12970       -5.06090
C         -8.28000        7.05300       -6.07460
C         -6.67550        3.86580       -4.66950
C         -5.90910        1.43260       -2.82200
S         -4.87350        0.20970       -2.09880
C         -3.92020        0.14240       -3.53520
C         -2.68050       -0.39560       -3.90240
N         -1.67560       -1.10810       -3.30690
C         -0.59830       -1.10990       -4.17100
C          0.72110       -1.60100       -4.02940
N          1.28790       -2.42490       -3.07520
C          2.64580       -2.37070       -3.24820
C          3.78160       -2.81230       -2.56680
S          4.10020       -3.74070       -1.15440
C          0.67500       -3.54160       -2.39010
C          1.12080       -4.87430       -2.99040
C         -1.72320       -1.38480       -1.88850
C         -2.67680       -2.53120       -1.55690
C         -6.86630        2.10020       -1.99250
C         -6.63170        2.68400       -0.75500
N         -5.42630        2.72900       -0.07130
C         -5.46170        2.65910        1.33410
C         -6.33250        1.78220        1.97590
C         -6.37500        1.73310        3.35440
C         -5.54850        2.54090        4.12690
C         -5.62030        2.48750        5.62160
C         -4.67310        3.40230        3.47730
C         -4.62830        3.46890        2.09880
C         -4.19300        2.78480       -0.73000
C         -4.04960        3.47930       -1.92960
C         -2.87110        3.41050       -2.64390
C         -1.78420        2.68630       -2.16790
C         -0.52330        2.58660       -2.97080
C         -1.90110        2.07530       -0.92530
C         -3.08680        2.10830       -0.21740
C         -7.81450        3.29120       -0.26420
S         -8.19390        4.14200        1.18560
C         -9.84880        4.42070        0.61820
C        -10.09990        3.77450       -0.61210
N        -11.31150        3.60380       -1.21280
C        -12.52700        3.63230       -0.51650
C        -13.64090        4.23260       -1.09910
C        -14.83320        4.31090       -0.40350
C        -14.95180        3.79100        0.87800
C        -16.22280        3.91610        1.65730
C        -13.84760        3.14610        1.43190
C        -12.65180        3.06480        0.75120
C        -11.34960        3.33970       -2.60110
C        -10.65730        4.16010       -3.48610
C        -10.66010        3.87130       -4.83440
C        -11.34670        2.76760       -5.32950
C        -11.29160        2.44900       -6.79120
C        -12.06520        1.97850       -4.44070
C        -12.07280        2.25740       -3.08670
C         -8.91190        3.18390       -1.10690
S         -8.51710        2.30990       -2.54950
C        -10.67050        5.18700        1.44390
C        -11.79690        5.88120        1.04960
C        -12.00490        6.40020       -0.31010
O        -11.26990        6.27280       -1.27290
C        -13.22590        7.23310       -0.23150
C        -13.84660        7.96040       -1.22490
C        -14.99760        8.66740       -0.90000
C        -15.49460        8.64670        0.39340
C        -14.86760        7.91940        1.39850
C        -13.72650        7.20450        1.08090
C        -12.86310        6.34410        1.88890
C        -13.12090        5.91730        3.16950
C        -12.33100        4.97650        3.85810
N        -11.74970        4.19190        4.46390
C        -14.24920        6.29890        3.91680
N        -15.15970        6.55810        4.56870
H         11.25770       -4.17440        4.35600
H          7.52810       -7.41340        8.23370
H          8.52250       -8.04920       10.43370
H         12.10620       -5.91950        9.48490
H         12.79960       -3.51600       -0.17100
H         13.20210       -1.56570       -1.60930
H         12.86520        1.37040       -1.13270
H         11.15550        1.54930       -1.52150
H         12.21010        0.57460       -2.55860
H         10.11920        0.57130        0.41830
H          9.73520       -1.35860        1.87740
H         13.44630       -2.73200        2.41850
H         15.37480       -4.06160        3.13950
H         15.74330       -6.48040        4.56990
H         16.41030       -6.49710        2.94270
H         15.33040       -7.79730        3.46690
H         13.04700       -7.62350        2.83210
H         11.11950       -6.30240        2.08480
H          5.88010       -6.66020        1.19980
H          5.79980       -8.57740        2.73820
H          5.72820       -8.64590        5.81340
H          3.97070       -8.59110        5.95820
H          4.73230       -9.61280        4.72690
H          3.76340       -6.17930        5.61690
H          3.85840       -4.25790        4.09310
H          5.36880       -1.59930        1.36820
H          3.59260        0.04840        1.01580
H          1.01290        0.50590        1.62900
H          1.01350        0.03530       -0.06680
H         -0.06950       -0.77730        1.07520
H          0.65000       -2.99450        1.53460
H          2.42220       -4.65720        1.85300
H          7.12950       -0.05430       -2.39750
H          9.36620        0.60020       -3.20980
H         10.93200       -1.10930       -4.03470
H         10.00530       -4.50350       -4.83490
H         11.34070       -3.34560       -4.77270
H         11.66430       -3.86540       -2.35110
H         10.34860       -5.03120       -2.42080
H         11.82720       -5.32090       -3.34550
H          8.02120       -4.13140       -3.28310
H         -6.33040        1.15810       -6.65470
H         -7.47570        2.67160       -8.22090
H         -8.08280        4.93870       -7.54060
H         -6.68060        6.58770       -4.72680
H         -8.25910        6.04760       -4.17900
H         -7.64650        7.18990       -6.94830
H         -8.45020        8.02770       -5.62270
H         -9.24250        6.66020       -6.39510
H         -6.44750        4.21350       -3.67290
H          0.95110       -3.50360       -1.33010
H         -0.40300       -3.46240       -2.49560
H          0.59320       -5.68710       -2.49890
H          0.89540       -4.90220       -4.05450
H          2.18750       -5.02620       -2.85470
H         -0.71370       -1.58450       -1.53010
H         -2.08740       -0.47890       -1.38990
H         -3.69570       -2.25310       -1.81230
H         -2.42710       -3.43770       -2.10390
H         -2.63620       -2.74390       -0.49240
H         -6.96980        1.13780        1.38730
H         -7.05860        1.05270        3.84100
H         -6.53320        2.97220        5.96750
H         -4.77130        2.99530        6.07200
H         -5.63980        1.45630        5.96980
H         -4.02210        4.03970        4.05820
H         -3.95010        4.14970        1.60550
H         -4.87360        4.06460       -2.30510
H         -2.79570        3.92430       -3.59130
H         -0.75070        2.42270       -4.02270
H          0.04950        3.51120       -2.89460
H          0.10240        1.76880       -2.61930
H         -1.05410        1.54770       -0.50960
H         -3.17150        1.58610        0.72410
H        -13.55890        4.65080       -2.09110
H        -15.67960        4.80170       -0.86180
H        -16.06040        4.51470        2.55370
H        -16.99910        4.39050        1.06280
H        -16.57320        2.93560        1.97640
H        -13.92590        2.71000        2.41720
H        -11.80810        2.56540        1.20350
H        -10.14600        5.02660       -3.09740
H        -10.11570        4.50300       -5.51830
H        -11.94190        1.61330       -7.03600
H        -11.59160        3.31220       -7.38320
H        -10.27040        2.19220       -7.07260
H        -12.61830        1.12620       -4.80780
H        -12.62570        1.63260       -2.40020
H        -10.35240        5.26560        2.47690
H        -13.44280        7.96790       -2.22600
H        -15.50870        9.23960       -1.66010
H        -16.38600        9.20830        0.63030
H        -15.26770        7.92770        2.39950
