
  xtb     02072212523D
 energy: -354.362595091490 gnorm: 0.000635444638 xtb: 6.4.1 (unknown)
211233  0     0  0            999 V2000
   10.0530    4.8285    4.0633 C   0  0  0  0  0  0  0  0  0  0  0  0
   11.0791    5.6683    3.6800 C   0  0  0  0  0  0  0  0  0  0  0  0
   11.3925    6.0841    2.3127 C   0  0  0  0  0  0  0  0  0  0  0  0
   10.8866    5.6957    1.2735 O   0  0  0  0  0  0  0  0  0  0  0  0
   12.4528    7.1049    2.4328 C   0  0  0  0  0  0  0  0  0  0  0  0
   13.0868    7.8223    1.4381 C   0  0  0  0  0  0  0  0  0  0  0  0
   14.0581    8.7429    1.8009 C   0  0  0  0  0  0  0  0  0  0  0  0
   14.3698    8.9221    3.1426 C   0  0  0  0  0  0  0  0  0  0  0  0
   15.5783   10.0727    3.5757 Cl  0  0  0  0  0  0  0  0  0  0  0  0
   13.7400    8.2030    4.1548 C   0  0  0  0  0  0  0  0  0  0  0  0
   12.7707    7.2856    3.7897 C   0  0  0  0  0  0  0  0  0  0  0  0
   11.9482    6.3727    4.5883 C   0  0  0  0  0  0  0  0  0  0  0  0
   12.0377    6.2178    5.9515 C   0  0  0  0  0  0  0  0  0  0  0  0
   11.3587    5.2476    6.7122 C   0  0  0  0  0  0  0  0  0  0  0  0
   10.8763    4.4659    7.4046 N   0  0  0  0  0  0  0  0  0  0  0  0
   12.8640    6.9975    6.7846 C   0  0  0  0  0  0  0  0  0  0  0  0
   13.4963    7.6090    7.5235 N   0  0  0  0  0  0  0  0  0  0  0  0
    9.1522    4.0933    3.3017 C   0  0  0  0  0  0  0  0  0  0  0  0
    8.1338    3.2869    3.8790 C   0  0  0  0  0  0  0  0  0  0  0  0
    7.7686    3.2864    5.1974 N   0  0  0  0  0  0  0  0  0  0  0  0
    7.7395    4.4581    5.9764 C   0  0  0  0  0  0  0  0  0  0  0  0
    8.0319    4.3961    7.3366 C   0  0  0  0  0  0  0  0  0  0  0  0
    7.9978    5.5447    8.1018 C   0  0  0  0  0  0  0  0  0  0  0  0
    7.6855    6.7763    7.5384 C   0  0  0  0  0  0  0  0  0  0  0  0
    7.6932    8.0167    8.3770 C   0  0  0  0  0  0  0  0  0  0  0  0
    7.3789    6.8237    6.1832 C   0  0  0  0  0  0  0  0  0  0  0  0
    7.3939    5.6819    5.4080 C   0  0  0  0  0  0  0  0  0  0  0  0
    7.2718    2.0912    5.7547 C   0  0  0  0  0  0  0  0  0  0  0  0
    7.9374    0.8901    5.5227 C   0  0  0  0  0  0  0  0  0  0  0  0
    7.4510   -0.2842    6.0587 C   0  0  0  0  0  0  0  0  0  0  0  0
    6.3004   -0.2929    6.8402 C   0  0  0  0  0  0  0  0  0  0  0  0
    5.7744   -1.5789    7.3979 C   0  0  0  0  0  0  0  0  0  0  0  0
    5.6512    0.9126    7.0751 C   0  0  0  0  0  0  0  0  0  0  0  0
    6.1249    2.0948    6.5408 C   0  0  0  0  0  0  0  0  0  0  0  0
    7.5269    2.4789    2.9048 C   0  0  0  0  0  0  0  0  0  0  0  0
    6.2333    1.3227    2.9399 S   0  0  0  0  0  0  0  0  0  0  0  0
    6.3595    1.1192    1.1999 C   0  0  0  0  0  0  0  0  0  0  0  0
    7.3039    1.9596    0.6232 C   0  0  0  0  0  0  0  0  0  0  0  0
    7.5156    2.1113   -0.7335 N   0  0  0  0  0  0  0  0  0  0  0  0
    6.4520    1.9893   -1.6386 C   0  0  0  0  0  0  0  0  0  0  0  0
    6.6484    1.3922   -2.8819 C   0  0  0  0  0  0  0  0  0  0  0  0
    5.5777    1.1698   -3.7229 C   0  0  0  0  0  0  0  0  0  0  0  0
    4.2865    1.5379   -3.3600 C   0  0  0  0  0  0  0  0  0  0  0  0
    3.1259    1.2132   -4.2497 C   0  0  0  0  0  0  0  0  0  0  0  0
    4.1102    2.1996   -2.1528 C   0  0  0  0  0  0  0  0  0  0  0  0
    5.1752    2.4340   -1.3046 C   0  0  0  0  0  0  0  0  0  0  0  0
    8.8044    2.4289   -1.1928 C   0  0  0  0  0  0  0  0  0  0  0  0
    8.9782    3.3343   -2.2347 C   0  0  0  0  0  0  0  0  0  0  0  0
   10.2489    3.6593   -2.6653 C   0  0  0  0  0  0  0  0  0  0  0  0
   11.3738    3.1023   -2.0710 C   0  0  0  0  0  0  0  0  0  0  0  0
   12.7540    3.4841   -2.5100 C   0  0  0  0  0  0  0  0  0  0  0  0
   11.1901    2.1928   -1.0368 C   0  0  0  0  0  0  0  0  0  0  0  0
    9.9258    1.8539   -0.6014 C   0  0  0  0  0  0  0  0  0  0  0  0
    7.9901    2.7038    1.6139 C   0  0  0  0  0  0  0  0  0  0  0  0
    9.2204    3.9137    1.5440 S   0  0  0  0  0  0  0  0  0  0  0  0
    5.4993    0.2088    0.5060 C   0  0  0  0  0  0  0  0  0  0  0  0
    5.8548   -0.6753   -0.4953 C   0  0  0  0  0  0  0  0  0  0  0  0
    7.2322   -1.0778   -0.7698 C   0  0  0  0  0  0  0  0  0  0  0  0
    7.6361   -1.4300   -2.0547 C   0  0  0  0  0  0  0  0  0  0  0  0
    8.9464   -1.7999   -2.2916 C   0  0  0  0  0  0  0  0  0  0  0  0
    9.8622   -1.8414   -1.2560 C   0  0  0  0  0  0  0  0  0  0  0  0
    9.4697   -1.5310    0.0404 C   0  0  0  0  0  0  0  0  0  0  0  0
   10.4369   -1.6465    1.1843 C   0  0  0  0  0  0  0  0  0  0  0  0
   10.4270   -3.0683    1.7484 C   0  0  0  0  0  0  0  0  0  0  0  0
    8.1561   -1.1565    0.2702 C   0  0  0  0  0  0  0  0  0  0  0  0
    4.7091   -1.1966   -1.1360 C   0  0  0  0  0  0  0  0  0  0  0  0
    4.4839   -2.2740   -2.4909 S   0  0  0  0  0  0  0  0  0  0  0  0
    2.7683   -2.1330   -2.3021 C   0  0  0  0  0  0  0  0  0  0  0  0
    1.5836   -2.6392   -2.8704 C   0  0  0  0  0  0  0  0  0  0  0  0
    1.3278   -3.6289   -3.8462 C   0  0  0  0  0  0  0  0  0  0  0  0
   -0.0266   -4.0735   -4.0590 C   0  0  0  0  0  0  0  0  0  0  0  0
   -0.0995   -5.0607   -4.9375 N   0  0  0  0  0  0  0  0  0  0  0  0
    1.3948   -5.3964   -5.4626 S   0  0  0  0  0  0  0  0  0  0  0  0
    2.1979   -4.2983   -4.5855 N   0  0  0  0  0  0  0  0  0  0  0  0
   -1.0826   -3.4094   -3.3954 C   0  0  0  0  0  0  0  0  0  0  0  0
   -2.4843   -3.5282   -3.4502 C   0  0  0  0  0  0  0  0  0  0  0  0
   -3.6855   -4.5537   -4.1580 S   0  0  0  0  0  0  0  0  0  0  0  0
   -4.9273   -3.6011   -3.3802 C   0  0  0  0  0  0  0  0  0  0  0  0
   -6.3330   -3.6986   -3.3619 C   0  0  0  0  0  0  0  0  0  0  0  0
   -7.0657   -4.6860   -4.1578 C   0  0  0  0  0  0  0  0  0  0  0  0
   -8.1365   -4.3034   -4.9629 C   0  0  0  0  0  0  0  0  0  0  0  0
   -8.7820   -5.2441   -5.7415 C   0  0  0  0  0  0  0  0  0  0  0  0
   -8.3656   -6.5650   -5.7324 C   0  0  0  0  0  0  0  0  0  0  0  0
   -7.2936   -6.9615   -4.9440 C   0  0  0  0  0  0  0  0  0  0  0  0
   -6.7867   -8.3739   -4.9776 C   0  0  0  0  0  0  0  0  0  0  0  0
   -5.6332   -8.4936   -5.9758 C   0  0  0  0  0  0  0  0  0  0  0  0
   -6.6511   -6.0126   -4.1619 C   0  0  0  0  0  0  0  0  0  0  0  0
   -6.8890   -2.7140   -2.5636 C   0  0  0  0  0  0  0  0  0  0  0  0
   -5.6811   -1.6369   -1.8778 S   0  0  0  0  0  0  0  0  0  0  0  0
   -4.4170   -2.5368   -2.6345 C   0  0  0  0  0  0  0  0  0  0  0  0
   -3.0186   -2.4965   -2.6723 C   0  0  0  0  0  0  0  0  0  0  0  0
   -2.0069   -1.7447   -2.1239 N   0  0  0  0  0  0  0  0  0  0  0  0
   -0.8150   -2.3205   -2.5278 C   0  0  0  0  0  0  0  0  0  0  0  0
    0.5162   -2.0480   -2.1477 C   0  0  0  0  0  0  0  0  0  0  0  0
    1.0271   -1.2462   -1.1421 N   0  0  0  0  0  0  0  0  0  0  0  0
    2.3954   -1.2999   -1.2447 C   0  0  0  0  0  0  0  0  0  0  0  0
    3.5055   -0.7609   -0.5831 C   0  0  0  0  0  0  0  0  0  0  0  0
    3.7618    0.3200    0.7366 S   0  0  0  0  0  0  0  0  0  0  0  0
    0.4088   -0.9678    0.1384 C   0  0  0  0  0  0  0  0  0  0  0  0
    0.8617   -1.9677    1.2022 C   0  0  0  0  0  0  0  0  0  0  0  0
   -2.2151   -0.3429   -1.8197 C   0  0  0  0  0  0  0  0  0  0  0  0
   -2.7538    0.4148   -3.0332 C   0  0  0  0  0  0  0  0  0  0  0  0
   -8.2479   -2.5528   -2.1634 C   0  0  0  0  0  0  0  0  0  0  0  0
   -9.2379   -3.4945   -2.1515 C   0  0  0  0  0  0  0  0  0  0  0  0
  -10.4721   -3.0219   -1.6475 C   0  0  0  0  0  0  0  0  0  0  0  0
  -11.6720   -3.7300   -1.5041 C   0  0  0  0  0  0  0  0  0  0  0  0
  -11.8056   -5.1547   -1.9510 C   0  0  0  0  0  0  0  0  0  0  0  0
  -12.0070   -5.2341   -3.4655 C   0  0  0  0  0  0  0  0  0  0  0  0
  -12.7412   -3.0351   -0.9684 C   0  0  0  0  0  0  0  0  0  0  0  0
  -12.6569   -1.6719   -0.5652 C   0  0  0  0  0  0  0  0  0  0  0  0
  -11.4486   -0.9583   -0.7074 C   0  0  0  0  0  0  0  0  0  0  0  0
  -11.3327    0.4877   -0.3344 C   0  0  0  0  0  0  0  0  0  0  0  0
  -11.8557    1.3805   -1.4620 C   0  0  0  0  0  0  0  0  0  0  0  0
  -10.3950   -1.6574   -1.2496 C   0  0  0  0  0  0  0  0  0  0  0  0
   -8.7954   -1.0115   -1.5319 S   0  0  0  0  0  0  0  0  0  0  0  0
  -13.8772   -1.2202   -0.0447 C   0  0  0  0  0  0  0  0  0  0  0  0
  -14.8802   -2.1764   -0.0307 C   0  0  0  0  0  0  0  0  0  0  0  0
  -14.3267   -3.7022   -0.6901 S   0  0  0  0  0  0  0  0  0  0  0  0
  -16.1623   -1.8863    0.4727 C   0  0  0  0  0  0  0  0  0  0  0  0
  -17.2729   -2.6755    0.6092 C   0  0  0  0  0  0  0  0  0  0  0  0
  -17.3823   -4.0989    0.2429 C   0  0  0  0  0  0  0  0  0  0  0  0
  -16.5387   -4.8056   -0.2721 O   0  0  0  0  0  0  0  0  0  0  0  0
  -18.7441   -4.5115    0.6303 C   0  0  0  0  0  0  0  0  0  0  0  0
  -19.3384   -5.7534    0.5126 C   0  0  0  0  0  0  0  0  0  0  0  0
  -20.6422   -5.9084    0.9548 C   0  0  0  0  0  0  0  0  0  0  0  0
  -21.3185   -4.8238    1.5022 C   0  0  0  0  0  0  0  0  0  0  0  0
  -22.9381   -5.0360    2.0498 Cl  0  0  0  0  0  0  0  0  0  0  0  0
  -20.7314   -3.5680    1.6248 C   0  0  0  0  0  0  0  0  0  0  0  0
  -19.4284   -3.4147    1.1812 C   0  0  0  0  0  0  0  0  0  0  0  0
  -18.5420   -2.2496    1.1684 C   0  0  0  0  0  0  0  0  0  0  0  0
  -18.8871   -0.9960    1.6028 C   0  0  0  0  0  0  0  0  0  0  0  0
  -18.0596    0.1466    1.5863 C   0  0  0  0  0  0  0  0  0  0  0  0
  -17.4591    1.1259    1.6121 N   0  0  0  0  0  0  0  0  0  0  0  0
  -20.1515   -0.6590    2.1322 C   0  0  0  0  0  0  0  0  0  0  0  0
  -21.1508   -0.3065    2.5736 N   0  0  0  0  0  0  0  0  0  0  0  0
    9.9181    4.7169    5.1315 H   0  0  0  0  0  0  0  0  0  0  0  0
   12.8242    7.6627    0.4037 H   0  0  0  0  0  0  0  0  0  0  0  0
   14.5745    9.3222    1.0520 H   0  0  0  0  0  0  0  0  0  0  0  0
   14.0137    8.3737    5.1827 H   0  0  0  0  0  0  0  0  0  0  0  0
    8.2966    3.4515    7.7844 H   0  0  0  0  0  0  0  0  0  0  0  0
    8.2378    5.4856    9.1526 H   0  0  0  0  0  0  0  0  0  0  0  0
    7.1246    7.8643    9.2926 H   0  0  0  0  0  0  0  0  0  0  0  0
    8.7152    8.2688    8.6603 H   0  0  0  0  0  0  0  0  0  0  0  0
    7.2690    8.8583    7.8352 H   0  0  0  0  0  0  0  0  0  0  0  0
    7.1157    7.7672    5.7271 H   0  0  0  0  0  0  0  0  0  0  0  0
    7.1444    5.7346    4.3583 H   0  0  0  0  0  0  0  0  0  0  0  0
    8.8400    0.8892    4.9289 H   0  0  0  0  0  0  0  0  0  0  0  0
    7.9758   -1.2103    5.8748 H   0  0  0  0  0  0  0  0  0  0  0  0
    5.3109   -2.1666    6.6052 H   0  0  0  0  0  0  0  0  0  0  0  0
    6.5812   -2.1725    7.8234 H   0  0  0  0  0  0  0  0  0  0  0  0
    5.0290   -1.3949    8.1672 H   0  0  0  0  0  0  0  0  0  0  0  0
    4.7566    0.9279    7.6802 H   0  0  0  0  0  0  0  0  0  0  0  0
    5.6071    3.0245    6.7244 H   0  0  0  0  0  0  0  0  0  0  0  0
    7.6426    1.0836   -3.1675 H   0  0  0  0  0  0  0  0  0  0  0  0
    5.7409    0.6797   -4.6719 H   0  0  0  0  0  0  0  0  0  0  0  0
    2.2068    1.6502   -3.8666 H   0  0  0  0  0  0  0  0  0  0  0  0
    3.2975    1.5861   -5.2581 H   0  0  0  0  0  0  0  0  0  0  0  0
    2.9936    0.1328   -4.3141 H   0  0  0  0  0  0  0  0  0  0  0  0
    3.1231    2.5317   -1.8629 H   0  0  0  0  0  0  0  0  0  0  0  0
    5.0166    2.9521   -0.3699 H   0  0  0  0  0  0  0  0  0  0  0  0
    8.1134    3.7873   -2.6969 H   0  0  0  0  0  0  0  0  0  0  0  0
   10.3673    4.3700   -3.4705 H   0  0  0  0  0  0  0  0  0  0  0  0
   12.7322    3.9889   -3.4726 H   0  0  0  0  0  0  0  0  0  0  0  0
   13.3927    2.6060   -2.5862 H   0  0  0  0  0  0  0  0  0  0  0  0
   13.1993    4.1590   -1.7788 H   0  0  0  0  0  0  0  0  0  0  0  0
   12.0513    1.7424   -0.5647 H   0  0  0  0  0  0  0  0  0  0  0  0
    9.7993    1.1369    0.1949 H   0  0  0  0  0  0  0  0  0  0  0  0
    6.9280   -1.3976   -2.8675 H   0  0  0  0  0  0  0  0  0  0  0  0
    9.2554   -2.0574   -3.2939 H   0  0  0  0  0  0  0  0  0  0  0  0
   10.8864   -2.1247   -1.4507 H   0  0  0  0  0  0  0  0  0  0  0  0
   10.1633   -0.9450    1.9761 H   0  0  0  0  0  0  0  0  0  0  0  0
   11.4445   -1.4008    0.8427 H   0  0  0  0  0  0  0  0  0  0  0  0
   10.7083   -3.7825    0.9779 H   0  0  0  0  0  0  0  0  0  0  0  0
   11.1273   -3.1555    2.5760 H   0  0  0  0  0  0  0  0  0  0  0  0
    9.4320   -3.3257    2.1051 H   0  0  0  0  0  0  0  0  0  0  0  0
    7.8398   -0.9350    1.2798 H   0  0  0  0  0  0  0  0  0  0  0  0
   -8.4503   -3.2701   -4.9803 H   0  0  0  0  0  0  0  0  0  0  0  0
   -9.6107   -4.9455   -6.3669 H   0  0  0  0  0  0  0  0  0  0  0  0
   -8.8749   -7.2929   -6.3472 H   0  0  0  0  0  0  0  0  0  0  0  0
   -6.4343   -8.6650   -3.9859 H   0  0  0  0  0  0  0  0  0  0  0  0
   -7.5909   -9.0522   -5.2690 H   0  0  0  0  0  0  0  0  0  0  0  0
   -5.2563   -9.5133   -6.0006 H   0  0  0  0  0  0  0  0  0  0  0  0
   -5.9684   -8.2225   -6.9745 H   0  0  0  0  0  0  0  0  0  0  0  0
   -4.8200   -7.8278   -5.6960 H   0  0  0  0  0  0  0  0  0  0  0  0
   -5.8219   -6.3115   -3.5372 H   0  0  0  0  0  0  0  0  0  0  0  0
    0.6844    0.0471    0.4426 H   0  0  0  0  0  0  0  0  0  0  0  0
   -0.6720   -1.0394    0.0404 H   0  0  0  0  0  0  0  0  0  0  0  0
    0.6228   -2.9817    0.8887 H   0  0  0  0  0  0  0  0  0  0  0  0
    1.9320   -1.8976    1.3733 H   0  0  0  0  0  0  0  0  0  0  0  0
    0.3489   -1.7598    2.1372 H   0  0  0  0  0  0  0  0  0  0  0  0
   -1.2628    0.1013   -1.5340 H   0  0  0  0  0  0  0  0  0  0  0  0
   -2.9243   -0.2624   -0.9891 H   0  0  0  0  0  0  0  0  0  0  0  0
   -2.0771    0.3001   -3.8775 H   0  0  0  0  0  0  0  0  0  0  0  0
   -2.8387    1.4710   -2.7931 H   0  0  0  0  0  0  0  0  0  0  0  0
   -3.7350    0.0474   -3.3197 H   0  0  0  0  0  0  0  0  0  0  0  0
   -9.0750   -4.5056   -2.4751 H   0  0  0  0  0  0  0  0  0  0  0  0
  -12.6647   -5.6052   -1.4502 H   0  0  0  0  0  0  0  0  0  0  0  0
  -10.9119   -5.7168   -1.6733 H   0  0  0  0  0  0  0  0  0  0  0  0
  -11.1584   -4.7983   -3.9881 H   0  0  0  0  0  0  0  0  0  0  0  0
  -12.1099   -6.2707   -3.7763 H   0  0  0  0  0  0  0  0  0  0  0  0
  -12.9069   -4.6953   -3.7522 H   0  0  0  0  0  0  0  0  0  0  0  0
  -11.8962    0.6839    0.5790 H   0  0  0  0  0  0  0  0  0  0  0  0
  -10.2830    0.7250   -0.1469 H   0  0  0  0  0  0  0  0  0  0  0  0
  -11.2804    1.2145   -2.3699 H   0  0  0  0  0  0  0  0  0  0  0  0
  -12.9000    1.1605   -1.6710 H   0  0  0  0  0  0  0  0  0  0  0  0
  -11.7690    2.4276   -1.1833 H   0  0  0  0  0  0  0  0  0  0  0  0
  -14.0439   -0.2228    0.3232 H   0  0  0  0  0  0  0  0  0  0  0  0
  -16.2530   -0.8614    0.8127 H   0  0  0  0  0  0  0  0  0  0  0  0
  -18.7890   -6.5774    0.0846 H   0  0  0  0  0  0  0  0  0  0  0  0
  -21.1390   -6.8626    0.8800 H   0  0  0  0  0  0  0  0  0  0  0  0
  -21.2929   -2.7561    2.0561 H   0  0  0  0  0  0  0  0  0  0  0  0
  1  2  2  0  0  0  0
  2  3  1  0  0  0  0
  3  4  2  0  0  0  0
  3  5  1  0  0  0  0
  5  6  2  0  0  0  0
  6  7  1  0  0  0  0
  7  8  2  0  0  0  0
  8  9  1  0  0  0  0
  8 10  1  0  0  0  0
 10 11  2  0  0  0  0
 11 12  1  0  0  0  0
 12 13  2  0  0  0  0
 13 14  1  0  0  0  0
 14 15  3  0  0  0  0
 13 16  1  0  0  0  0
 16 17  3  0  0  0  0
  1 18  1  0  0  0  0
 18 19  2  0  0  0  0
 19 20  1  0  0  0  0
 20 21  1  0  0  0  0
 21 22  2  0  0  0  0
 22 23  1  0  0  0  0
 23 24  2  0  0  0  0
 24 25  1  0  0  0  0
 24 26  1  0  0  0  0
 26 27  2  0  0  0  0
 20 28  1  0  0  0  0
 28 29  2  0  0  0  0
 29 30  1  0  0  0  0
 30 31  2  0  0  0  0
 31 32  1  0  0  0  0
 31 33  1  0  0  0  0
 33 34  2  0  0  0  0
 19 35  1  0  0  0  0
 35 36  1  0  0  0  0
 36 37  1  0  0  0  0
 37 38  2  0  0  0  0
 38 39  1  0  0  0  0
 39 40  1  0  0  0  0
 40 41  2  0  0  0  0
 41 42  1  0  0  0  0
 42 43  2  0  0  0  0
 43 44  1  0  0  0  0
 43 45  1  0  0  0  0
 45 46  2  0  0  0  0
 39 47  1  0  0  0  0
 47 48  2  0  0  0  0
 48 49  1  0  0  0  0
 49 50  2  0  0  0  0
 50 51  1  0  0  0  0
 50 52  1  0  0  0  0
 52 53  2  0  0  0  0
 38 54  1  0  0  0  0
 54 55  1  0  0  0  0
 37 56  1  0  0  0  0
 56 57  2  0  0  0  0
 57 58  1  0  0  0  0
 58 59  2  0  0  0  0
 59 60  1  0  0  0  0
 60 61  2  0  0  0  0
 61 62  1  0  0  0  0
 62 63  1  0  0  0  0
 63 64  1  0  0  0  0
 62 65  2  0  0  0  0
 57 66  1  0  0  0  0
 66 67  1  0  0  0  0
 67 68  1  0  0  0  0
 68 69  1  0  0  0  0
 69 70  1  0  0  0  0
 70 71  1  0  0  0  0
 71 72  2  0  0  0  0
 72 73  1  0  0  0  0
 73 74  1  0  0  0  0
 71 75  1  0  0  0  0
 75 76  1  0  0  0  0
 76 77  1  0  0  0  0
 77 78  1  0  0  0  0
 78 79  1  0  0  0  0
 79 80  1  0  0  0  0
 80 81  2  0  0  0  0
 81 82  1  0  0  0  0
 82 83  2  0  0  0  0
 83 84  1  0  0  0  0
 84 85  1  0  0  0  0
 85 86  1  0  0  0  0
 84 87  2  0  0  0  0
 79 88  2  0  0  0  0
 88 89  1  0  0  0  0
 89 90  1  0  0  0  0
 90 91  1  0  0  0  0
 91 92  1  0  0  0  0
 92 93  1  0  0  0  0
 93 94  1  0  0  0  0
 94 95  1  0  0  0  0
 95 96  1  0  0  0  0
 96 97  1  0  0  0  0
 97 98  1  0  0  0  0
 95 99  1  0  0  0  0
 99100  1  0  0  0  0
 92101  1  0  0  0  0
101102  1  0  0  0  0
 88103  1  0  0  0  0
103104  2  0  0  0  0
104105  1  0  0  0  0
105106  2  0  0  0  0
106107  1  0  0  0  0
107108  1  0  0  0  0
106109  1  0  0  0  0
109110  2  0  0  0  0
110111  1  0  0  0  0
111112  1  0  0  0  0
112113  1  0  0  0  0
111114  2  0  0  0  0
114115  1  0  0  0  0
110116  1  0  0  0  0
116117  2  0  0  0  0
117118  1  0  0  0  0
117119  1  0  0  0  0
119120  2  0  0  0  0
120121  1  0  0  0  0
121122  2  0  0  0  0
121123  1  0  0  0  0
123124  2  0  0  0  0
124125  1  0  0  0  0
125126  2  0  0  0  0
126127  1  0  0  0  0
126128  1  0  0  0  0
128129  2  0  0  0  0
129130  1  0  0  0  0
130131  2  0  0  0  0
131132  1  0  0  0  0
132133  3  0  0  0  0
131134  1  0  0  0  0
134135  3  0  0  0  0
 12  2  1  0  0  0  0
 55 18  1  0  0  0  0
 98 56  1  0  0  0  0
115103  1  0  0  0  0
130120  1  0  0  0  0
 11  5  1  0  0  0  0
 27 21  1  0  0  0  0
 34 28  1  0  0  0  0
 54 35  2  0  0  0  0
 65 58  1  0  0  0  0
 97 66  2  0  0  0  0
114105  1  0  0  0  0
129123  1  0  0  0  0
 46 40  1  0  0  0  0
 53 47  1  0  0  0  0
 96 68  2  0  0  0  0
118109  1  0  0  0  0
 94 69  2  0  0  0  0
 74 70  2  0  0  0  0
 93 75  2  0  0  0  0
 91 76  2  0  0  0  0
 90 78  2  0  0  0  0
 87 80  1  0  0  0  0
  1136  1  0  0  0  0
  6137  1  0  0  0  0
  7138  1  0  0  0  0
 10139  1  0  0  0  0
 22140  1  0  0  0  0
 23141  1  0  0  0  0
 25142  1  0  0  0  0
 25143  1  0  0  0  0
 25144  1  0  0  0  0
 26145  1  0  0  0  0
 27146  1  0  0  0  0
 29147  1  0  0  0  0
 30148  1  0  0  0  0
 32149  1  0  0  0  0
 32150  1  0  0  0  0
 32151  1  0  0  0  0
 33152  1  0  0  0  0
 34153  1  0  0  0  0
 41154  1  0  0  0  0
 42155  1  0  0  0  0
 44156  1  0  0  0  0
 44157  1  0  0  0  0
 44158  1  0  0  0  0
 45159  1  0  0  0  0
 46160  1  0  0  0  0
 48161  1  0  0  0  0
 49162  1  0  0  0  0
 51163  1  0  0  0  0
 51164  1  0  0  0  0
 51165  1  0  0  0  0
 52166  1  0  0  0  0
 53167  1  0  0  0  0
 59168  1  0  0  0  0
 60169  1  0  0  0  0
 61170  1  0  0  0  0
 63171  1  0  0  0  0
 63172  1  0  0  0  0
 64173  1  0  0  0  0
 64174  1  0  0  0  0
 64175  1  0  0  0  0
 65176  1  0  0  0  0
 81177  1  0  0  0  0
 82178  1  0  0  0  0
 83179  1  0  0  0  0
 85180  1  0  0  0  0
 85181  1  0  0  0  0
 86182  1  0  0  0  0
 86183  1  0  0  0  0
 86184  1  0  0  0  0
 87185  1  0  0  0  0
 99186  1  0  0  0  0
 99187  1  0  0  0  0
100188  1  0  0  0  0
100189  1  0  0  0  0
100190  1  0  0  0  0
101191  1  0  0  0  0
101192  1  0  0  0  0
102193  1  0  0  0  0
102194  1  0  0  0  0
102195  1  0  0  0  0
104196  1  0  0  0  0
107197  1  0  0  0  0
107198  1  0  0  0  0
108199  1  0  0  0  0
108200  1  0  0  0  0
108201  1  0  0  0  0
112202  1  0  0  0  0
112203  1  0  0  0  0
113204  1  0  0  0  0
113205  1  0  0  0  0
113206  1  0  0  0  0
116207  1  0  0  0  0
119208  1  0  0  0  0
124209  1  0  0  0  0
125210  1  0  0  0  0
128211  1  0  0  0  0
M  END
