195

C          8.55240       -1.11850       -4.49820
C          9.76180       -1.34810       -3.87520
C         10.24450       -0.69520       -2.65740
O          9.65160        0.09550       -1.94310
C         11.63190       -1.16330       -2.46920
C         12.52900       -0.84680       -1.46850
C         13.78950       -1.42330       -1.50120
C         14.12080       -2.29700       -2.52910
Cl        15.69220       -3.00460       -2.55400
C         13.22490       -2.62540       -3.54300
C         11.96760       -2.04880       -3.50760
C         10.80640       -2.19830       -4.38900
C         10.74560       -3.03350       -5.47880
C          9.59890       -3.28730       -6.25500
N          8.70730       -3.57880       -6.92050
C         11.83350       -3.79000       -5.95870
N         12.67970       -4.41690       -6.41700
C          7.45210       -0.37420       -4.08650
C          6.27010       -0.24950       -4.86600
N          6.13320       -0.63280       -6.17090
C          4.86880       -1.07030       -6.61330
C          4.33840       -0.61450       -7.81560
C          3.09810       -1.05470       -8.23270
C          2.35860       -1.94980       -7.46840
C          1.00140       -2.40150       -7.91020
C          2.90060       -2.40310       -6.27120
C          4.14160       -1.97550       -5.84510
C          7.16780       -0.49070       -7.11490
C          8.04300        0.59080       -7.05100
C          9.05480        0.71560       -7.98160
C          9.21060       -0.21490       -9.00290
C         10.32140       -0.09460       -9.99940
C          8.31370       -1.27430       -9.07350
C          7.30460       -1.42030       -8.14270
C          5.23870        0.33750       -4.11350
S          3.58160        0.73520       -4.44010
C          3.43400        1.45660       -2.84700
C          4.58230        1.32530       -2.08770
N          4.69730        1.68580       -0.75580
C          3.64310        1.45250        0.13320
C          3.40450        2.32020        1.19780
C          2.29740        2.15110        2.00240
C          1.40720        1.10230        1.79510
C          0.16790        0.97890        2.62890
C          1.70040        0.18960        0.79220
C          2.80020        0.35540       -0.02830
C          5.91930        2.22500       -0.32210
C          6.46400        1.86670        0.90650
C          7.68560        2.37950        1.29590
C          8.39470        3.24870        0.47690
C          9.74150        3.76640        0.87790
C          7.83700        3.60800       -0.74420
C          6.61440        3.10910       -1.14300
C          5.62020        0.71010       -2.83120
S          7.27440        0.36330       -2.49020
C          2.21800        2.08890       -2.40840
C          2.08440        3.39200       -1.97080
C          3.15310        4.36530       -2.25990
C          3.64920        4.33660       -3.56780
C          4.69730        5.13990       -3.96410
C          5.28490        5.99370       -3.04540
C          4.78770        6.04690       -1.75950
C          3.71690        5.25890       -1.34590
C          3.23700        5.43600        0.06570
C          2.62080        6.82270        0.26500
C          0.80400        3.59660       -1.40650
S          0.02190        4.96140       -0.64310
C         -1.35100        3.96960       -0.29690
C         -2.53360        4.02060        0.45680
C         -3.04740        5.00710        1.32840
C         -4.15660        4.67570        2.17940
N         -4.47360        5.66250        3.00200
S         -3.47260        6.90450        2.72620
N         -2.58910        6.22880        1.54990
C         -4.78400        3.41850        2.02940
C         -5.88450        2.83300        2.67240
S         -6.96810        3.16120        3.98090
C         -7.75900        1.62920        3.67080
C         -8.79870        0.96410        4.32410
C         -9.41510        1.52710        5.53310
C         -9.28870        0.91510        6.78510
C         -8.49390       -0.34360        6.98720
C         -6.99280       -0.04980        6.95720
C         -9.86700        1.54210        7.88100
C        -10.54520        2.74120        7.75720
C        -10.63760        3.35410        6.52030
C        -10.06540        2.75170        5.41740
C         -9.06940       -0.26490        3.71450
S         -7.97130       -0.61280        2.38370
C         -7.20030        0.91830        2.59670
C         -6.12670        1.60640        2.03560
N         -5.21080        1.40670        1.03280
C         -4.35140        2.49080        1.03760
C         -3.14070        2.73750        0.34890
N         -2.32350        1.92670       -0.41890
C         -1.24030        2.67080       -0.80040
C         -0.00990        2.46130       -1.43690
S          0.76490        1.13460       -2.21680
C         -2.28220        0.48440       -0.51820
C         -2.53810       -0.00350       -1.94390
C         -5.56300        0.55190       -0.08090
C         -6.82420        1.05270       -0.78470
C        -10.03380       -1.24110        4.05160
C        -11.17350       -1.02160        4.86120
C        -11.98710       -2.10940        5.36150
N        -12.98800       -1.66340        6.11890
S        -12.94120       -0.05720        6.16320
N        -11.64760        0.16210        5.24600
C        -11.70920       -3.47190        5.09350
C        -10.69240       -3.66960        4.13220
N        -10.34440       -4.83070        3.57460
S         -9.15060       -4.58680        2.52580
N         -9.00660       -2.99840        2.71640
C         -9.89940       -2.57920        3.61030
C        -12.46660       -4.48600        5.71990
C        -12.18940       -5.81670        5.87150
C        -13.29760       -6.76330        6.16170
O        -14.43010       -6.48720        6.48710
C        -12.72990       -8.10810        5.91880
C        -13.35730       -9.33850        5.93430
C        -12.60990      -10.46920        5.64120
C        -11.25950      -10.34550        5.33820
Cl       -10.35230      -11.76180        4.96030
C        -10.61130       -9.11400        5.32860
C        -11.35960       -7.98890        5.62500
C        -10.97840       -6.57940        5.72690
C         -9.69330       -6.12110        5.88160
C         -9.36580       -4.80620        6.26140
N         -9.03500       -3.75560        6.58900
C         -8.54300       -6.91930        5.73430
N         -7.56240       -7.50110        5.59490
H          8.42170       -1.60240       -5.45770
H         12.24390       -0.16750       -0.68010
H         14.51610       -1.20180       -0.73560
H         13.52330       -3.30950       -4.31990
H          4.90050        0.08610       -8.41500
H          2.69490       -0.69170       -9.16670
H          0.23490       -1.78250       -7.44270
H          0.82250       -3.43360       -7.61750
H          0.89420       -2.31570       -8.98850
H          2.34630       -3.10710       -5.66800
H          4.56080       -2.34670       -4.92130
H          7.92960        1.32720       -6.26870
H          9.72970        1.55680       -7.91700
H          9.94700       -0.23740      -11.01110
H         11.07310       -0.86160       -9.81340
H         10.80120        0.87860       -9.93500
H          8.41650       -2.00740       -9.85910
H          6.62830       -2.25820       -8.19990
H          4.09040        3.13180        1.37850
H          2.11070        2.85490        2.80070
H         -0.55070        1.75180        2.34960
H          0.39850        1.11000        3.68430
H         -0.30110        0.00720        2.49230
H          1.05710       -0.66590        0.63870
H          3.00390       -0.36610       -0.80630
H          5.93290        1.17650        1.54550
H          8.10160        2.08490        2.24860
H         10.51710        3.21920        0.34180
H          9.90840        3.63910        1.94450
H          9.84260        4.82070        0.62700
H          8.36840        4.28840       -1.39350
H          6.18830        3.40230       -2.09120
H          3.18560        3.67930       -4.28890
H          5.05660        5.09490       -4.98150
H          6.12040        6.61470       -3.33190
H          5.24620        6.71130       -1.04180
H          2.50900        4.66930        0.32320
H          4.09050        5.33630        0.74210
H          1.82520        6.99530       -0.45500
H          2.20280        6.90610        1.26490
H          3.36980        7.60020        0.13700
H         -8.72770       -1.08730        6.22560
H         -8.75010       -0.78040        7.95370
H         -6.69680        0.35540        5.99200
H         -6.73280        0.67560        7.72530
H         -6.43220       -0.96410        7.13480
H         -9.77910        1.07740        8.85300
H        -10.99080        3.20040        8.62730
H        -11.14990        4.29840        6.41470
H        -10.13770        3.21780        4.44590
H         -2.99250        0.05880        0.19110
H         -1.27760        0.16430       -0.21910
H         -1.72130        0.29870       -2.59360
H         -3.45890        0.40620       -2.35340
H         -2.60210       -1.08790       -1.95390
H         -5.72970       -0.46040        0.30010
H         -4.74970        0.54440       -0.79730
H         -6.68330        2.07600       -1.12710
H         -7.03470        0.42200       -1.64390
H         -7.68070        1.02210       -0.11760
H        -13.43230       -4.16520        6.09790
H        -14.40760       -9.40920        6.17080
H        -13.06750      -11.44590        5.64330
H         -9.56290       -9.05770        5.08550
