216

C         10.46990        4.52380        3.49110
C         11.81030        4.52800        3.14590
C         12.31920        4.03430        1.85950
O         11.68210        3.53310        0.95090
C         13.75540        4.39240        1.84060
C         14.69620        4.16580        0.85780
C         16.00160        4.58100        1.07960
C         16.32880        5.21900        2.26780
Cl        17.95650        5.72980        2.52560
C         15.38660        5.46380        3.26320
C         14.08960        5.04070        3.04090
C         12.88990        5.11870        3.87670
C         12.84870        5.52860        5.18850
C         13.96570        5.99030        5.90670
N         14.84620        6.35760        6.54760
C         11.69860        5.45550        5.99770
N         10.80920        5.39530        6.72280
C          9.50970        3.63400        3.01920
C          9.62400        2.32850        2.48450
N         10.73940        1.54470        2.45930
C         11.80630        1.70250        3.35390
C         13.11580        1.53730        2.90710
C         14.17660        1.73330        3.77150
C         13.96660        2.09050        5.09650
C         15.11080        2.35860        6.02200
C         12.65300        2.20610        5.54680
C         11.58600        2.01580        4.69490
C         10.82610        0.50800        1.50360
C         10.53240        0.75990        0.16680
C         10.64260       -0.25400       -0.76190
C         11.04920       -1.53040       -0.38800
C         11.21020       -2.59980       -1.42260
C         11.33480       -1.76990        0.94960
C         11.22580       -0.76520        1.89190
C          8.35890        1.85370        2.07720
S          7.80250        0.37340        1.36790
C          6.13130        0.91050        1.47450
C          6.03390        2.20820        1.97500
N          4.86390        2.95620        2.13340
C          4.12380        3.36320        1.02070
C          2.79320        3.75420        1.17250
C          2.04050        4.10890        0.07190
C          2.57710        4.07580       -1.20910
C          1.76120        4.45050       -2.40910
C          3.90230        3.68230       -1.35390
C          4.67050        3.33510       -0.26130
C          4.72830        3.60240        3.37660
C          4.98140        2.88020        4.54050
C          4.89990        3.49500        5.77290
C          4.55800        4.83790        5.88220
C          4.50300        5.50340        7.22250
C          4.30060        5.54860        4.71660
C          4.38890        4.94780        3.47620
C          7.29960        2.70920        2.34470
S          7.81820        4.15960        3.11680
C          5.08440        0.04170        1.07070
C          5.16270       -1.25340        0.57540
C          6.34330       -2.11990        0.47280
C          7.07420       -2.47130        1.60440
C          8.11050       -3.37820        1.49850
C          8.40290       -3.96600        0.28050
C          7.66940       -3.64430       -0.85320
C          7.90180       -4.35050       -2.15780
C          6.89730       -5.49420       -2.31700
C          6.64860       -2.71180       -0.74610
C          3.89770       -1.73480        0.19610
S          3.37960       -3.24010       -0.52860
C          1.75170       -2.64660       -0.52900
C          0.47690       -3.03420       -0.96750
C          0.06290       -4.18950       -1.66350
C         -1.30360       -4.28980       -2.08300
N         -1.54630       -5.40200       -2.75910
S         -0.17090       -6.25180       -2.85510
N          0.78780       -5.23170       -2.03940
C         -2.20320       -3.26700       -1.71620
C         -3.58800       -3.15840       -1.91580
S         -4.87930       -4.03520       -2.66550
C         -6.00130       -2.83050       -2.08160
C         -7.39700       -2.67980       -2.20430
C         -8.29500       -3.62180       -2.87500
C         -8.14410       -4.98980       -2.66820
C         -9.03860       -5.87650       -3.23750
C        -10.08010       -5.41430       -4.02240
C        -10.22600       -4.05460       -4.26970
C        -11.35880       -3.54560       -5.11570
C        -12.60320       -3.29920       -4.26160
C         -9.33020       -3.17060       -3.68950
C         -7.82890       -1.53650       -1.56520
S         -6.54020       -0.63740       -0.82040
C         -5.38910       -1.80590       -1.35860
C         -4.00190       -1.99700       -1.26500
N         -2.92760       -1.36750       -0.69830
C         -1.79850       -2.12940       -0.95910
C         -0.41910       -1.97190       -0.64910
N          0.31430       -0.96110       -0.04470
C          1.61950       -1.36860        0.01510
C          2.84870       -0.84530        0.43210
S          3.42160        0.61800        1.13890
C          0.01560        0.43840        0.16050
C         -0.23720        1.15690       -1.16260
C         -3.16010       -0.32230        0.27170
C         -2.92990       -0.82190        1.69620
C         -9.21860       -1.12780       -1.44200
C         -9.66190        0.11630       -1.90090
S         -8.47240        1.29090       -2.51000
C         -8.85830        1.21590       -4.31210
C         -8.85000        2.60390       -4.91750
C        -11.01860        0.45800       -1.90190
S        -11.42140        2.09520       -2.42610
C        -12.95000        1.94600       -3.42390
C        -12.82700        0.95720       -4.56520
C        -11.96030       -0.48000       -1.46680
C        -11.52200       -1.74800       -1.06170
C        -10.16180       -2.06410       -0.98720
C         -9.73080       -3.33380       -0.35130
O         -8.66310       -3.48360        0.20380
C        -10.75950       -4.38240       -0.39170
C        -12.14020       -4.07980       -0.58030
C        -12.59210       -2.70850       -0.75760
O        -13.76500       -2.36110       -0.74220
C        -12.92430       -5.20090       -0.55970
S        -11.99910       -6.62190       -0.33970
C        -10.54440       -5.71810       -0.23030
C        -13.39630       -0.19760       -1.38200
C        -13.90390        0.54870       -0.37100
C        -13.10000        0.92920        0.81700
O        -11.92180        0.71490        0.99960
C        -14.05190        1.58540        1.73320
C        -13.82040        2.11970        2.98690
C        -14.88280        2.68070        3.67630
C        -16.15070        2.69430        3.10360
Cl       -17.45860        3.39250        3.97940
C        -16.39850        2.16100        1.84290
C        -15.33430        1.60270        1.15370
C        -15.27210        0.98710       -0.17020
C        -16.29820        0.89490       -1.06960
C        -16.16300        0.38440       -2.37820
N        -16.09830        0.02290       -3.46640
C        -17.61680        1.33510       -0.82470
N        -18.70500        1.67260       -0.68940
H         10.10650        5.30050        4.15350
H         14.41670        3.66890       -0.05840
H         16.76540        4.41280        0.33680
H         15.67930        5.97210        4.16720
H         13.29440        1.26990        1.87650
H         15.18540        1.62190        3.40160
H         16.05230        2.04470        5.57920
H         14.97160        1.83690        6.96700
H         15.17510        3.42480        6.24200
H         12.46540        2.45780        6.58040
H         10.57700        2.11470        5.06620
H         10.25810        1.75980       -0.13050
H         10.42380       -0.05020       -1.79980
H         11.34600       -3.57340       -0.95990
H         12.08270       -2.39040       -2.04210
H         10.33900       -2.63370       -2.07270
H         11.64920       -2.75520        1.26100
H         11.45280       -0.96000        2.93000
H          2.35250        3.76160        2.15790
H          1.01200        4.41010        0.21300
H          0.75910        4.75650       -2.11960
H          1.68240        3.60860       -3.09640
H          2.23220        5.27250       -2.94670
H          4.34270        3.65350       -2.34030
H          5.70040        3.03950       -0.39860
H          5.24500        1.83450        4.46820
H          5.10420        2.92340        6.66670
H          4.08970        4.83190        7.97220
H          3.89940        6.40680        7.18520
H          5.50910        5.77970        7.53940
H          4.04160        6.59580        4.77750
H          4.20990        5.52310        2.58020
H          6.81410       -2.04930        2.56390
H          8.67940       -3.64490        2.37680
H          9.19670       -4.69560        0.21320
H          8.91510       -4.75510       -2.19210
H          7.78070       -3.65020       -2.98730
H          7.04700       -6.00320       -3.26630
H          5.87920       -5.11370       -2.28100
H          7.01860       -6.21600       -1.51250
H          6.07280       -2.44740       -1.62150
H         -7.33970       -5.34760       -2.04480
H         -8.92320       -6.93720       -3.06860
H        -10.77780       -6.11340       -4.46060
H        -11.59670       -4.27460       -5.89230
H        -11.06570       -2.61280       -5.60260
H        -12.38640       -2.57280       -3.48060
H        -12.92640       -4.22110       -3.78290
H        -13.42000       -2.92100       -4.87160
H         -9.42690       -2.11160       -3.88650
H          0.89480        0.87810        0.63860
H         -0.81720        0.55770        0.85210
H          0.65820        1.11790       -1.77830
H         -1.05220        0.69300       -1.71380
H         -0.48030        2.19930       -0.97730
H         -2.55300        0.55370        0.04520
H         -4.20570       -0.02450        0.16140
H         -3.63120       -1.62120        1.92360
H         -3.08670       -0.01280        2.40450
H         -1.92130       -1.21050        1.81910
H         -9.83240        0.74260       -4.41290
H         -8.09620        0.58000       -4.76350
H         -9.60390        3.22610       -4.44200
H         -9.05880        2.54390       -5.98410
H         -7.87860        3.07110       -4.77820
H        -13.08500        2.95960       -3.80250
H        -13.78510        1.70620       -2.77060
H        -13.79040        0.86430       -5.06200
H        -12.53670       -0.02830       -4.20510
H        -12.08970        1.29590       -5.28970
H        -13.98930       -5.25050       -0.67470
H         -9.60620       -6.21080       -0.07230
H        -14.01890       -0.53630       -2.20040
H        -12.82780        2.09550        3.40930
H        -14.73800        3.10750        4.65610
H        -17.39550        2.18870        1.43480
