201

C         -4.44740        2.55470       -1.13700
C         -4.62200        1.33040       -1.74340
C         -3.61420        0.27340       -1.88220
O         -2.41090        0.35270       -1.70260
C         -4.35140       -0.94160       -2.27340
C         -3.87020       -2.21760       -2.49530
C         -4.76270       -3.21470       -2.85790
C         -6.11170       -2.90730       -2.99470
Cl        -7.20930       -4.15500       -3.45030
C         -6.61060       -1.62410       -2.77930
C         -5.71640       -0.63420       -2.41090
C         -5.90540        0.79040       -2.12820
C         -7.09720        1.46710       -2.21270
C         -7.25120        2.86190       -2.09450
N         -7.46010        3.99170       -2.05140
C         -8.34390        0.85270       -2.44220
N         -9.39840        0.41900       -2.58080
C         -3.30930        3.12130       -0.56130
C         -3.33400        4.22930        0.32490
N         -4.45390        4.86040        0.79790
C         -4.34680        6.21670        1.16230
C         -4.92680        6.68380        2.33850
C         -4.79710        8.01120        2.69090
C         -4.08970        8.90320        1.89100
C         -3.95780       10.33980        2.29170
C         -3.52650        8.43010        0.71330
C         -3.65370        7.10530        0.34530
C         -5.66780        4.18800        1.03990
C         -5.67400        2.89780        1.56610
C         -6.86940        2.23180        1.74480
C         -8.08330        2.83670        1.43520
C         -9.37400        2.09220        1.57740
C         -8.06730        4.14400        0.96450
C         -6.87780        4.81570        0.76050
C         -2.03090        4.57500        0.72740
S         -1.37850        5.65100        1.93280
C          0.21900        4.97200        1.69150
C          0.24650        4.04230        0.66460
N          1.41270        3.41160        0.24610
C          2.52040        4.20060       -0.10660
C          3.81620        3.76360        0.15850
C          4.89880        4.53150       -0.21640
C          4.72570        5.75410       -0.85550
C          5.91060        6.56820       -1.27390
C          3.43130        6.18730       -1.10780
C          2.33960        5.42620       -0.74020
C          1.44280        2.02590        0.06080
C          2.26020        1.46100       -0.91760
C          2.34980        0.09270       -1.04410
C          1.61860       -0.75770       -0.22190
C          1.74370       -2.24040       -0.38340
C          0.77130       -0.19050        0.71820
C          0.68170        1.18170        0.86530
C         -1.04220        3.79530        0.14050
S         -1.66780        2.54100       -0.85710
C          1.31830        4.94680        2.64500
C          2.58290        5.50220        2.64320
C          2.86910        6.80790        2.06300
C          4.17380        7.26170        1.87800
C          4.40460        8.50430        1.32160
C          3.34860        9.31060        0.93330
C          2.04000        8.88940        1.12980
C          0.87030        9.73130        0.70400
C          0.20830        9.14340       -0.54310
C          1.81690        7.65010        1.70540
C          3.52660        4.60460        3.23040
S          5.27910        4.45520        3.14440
C          5.16890        2.76010        3.52920
C          5.88380        1.56270        3.31180
C          7.10750        1.28420        2.65580
C          7.33150       -0.03320        2.10340
N          8.45320       -0.09850        1.40690
S          9.17680        1.34950        1.44570
N          8.07650        2.12790        2.34430
C          6.38110       -1.05720        2.32970
C          6.16090       -2.34090        1.78160
S          6.73840       -3.34870        0.48900
C          5.33100       -4.37940        0.67810
C          4.75190       -5.36490       -0.14480
C          5.40170       -5.84760       -1.36610
C          6.72310       -6.28040       -1.31240
C          7.34680       -6.73100       -2.46090
C          6.66470       -6.74740       -3.66440
C          5.35080       -6.30010       -3.73900
C          4.62280       -6.26670       -5.05180
C          4.84140       -4.92350       -5.75070
C          4.73320       -5.84270       -2.58590
C          3.47850       -5.69960        0.29230
S          3.02400       -4.84890        1.75890
C          4.51680       -3.99030        1.74450
C          5.00020       -2.84390        2.37730
N          4.50670       -1.95470        3.29940
C          5.29710       -0.82120        3.21320
C          4.97770        0.50230        3.58420
N          3.75980        1.02850        3.95400
C          3.86920        2.38840        3.88040
C          2.95250        3.43080        3.70500
S          1.24000        3.44140        3.56290
C          2.45910        0.40080        3.96930
C          1.83710        0.41890        5.36310
C          3.82450       -2.43830        4.48330
C          4.65390       -3.50260        5.20080
C          2.47200       -6.49060       -0.35480
C          1.12110       -6.07760       -0.28140
N          0.54600       -5.04910        0.35980
N         -0.69700       -5.08150       -0.02750
C         -1.65240       -4.10130        0.40620
C         -1.77070       -4.10190        1.92470
N         -1.02480       -6.02890       -0.86110
C          0.11360       -6.70390       -1.06300
C          0.39220       -7.80780       -1.91190
C          1.72180       -8.24140       -1.89530
C          2.71270       -7.60630       -1.15570
C         -0.69670       -8.26500       -2.70060
C         -0.86280       -9.27710       -3.60540
C          0.05220      -10.38450       -3.96510
O          1.20440      -10.56660       -3.62930
C         -0.73430      -11.28240       -4.83500
C         -0.35140      -12.48540       -5.39690
C         -1.26760      -13.17570       -6.17360
C         -2.54020      -12.65070       -6.36880
Cl        -3.66990      -13.52750       -7.33050
C         -2.93610      -11.43840       -5.81260
C         -2.01730      -10.74920       -5.03850
C         -2.10860       -9.47270       -4.33100
C         -3.16730       -8.60560       -4.41600
C         -3.26660       -7.32030       -3.84150
N         -3.46430       -6.25500       -3.45710
C         -4.34290       -8.86770       -5.15350
N         -5.32610       -9.01040       -5.72860
H         -5.34280        3.15150       -1.02350
H         -2.81630       -2.42530       -2.39300
H         -4.41810       -4.22110       -3.04040
H         -7.66370       -1.43120       -2.90120
H         -5.46820        5.99870        2.97390
H         -5.24440        8.36220        3.60950
H         -3.24460       10.85810        1.65610
H         -3.62960       10.41950        3.32660
H         -4.92110       10.84290        2.20940
H         -2.98430        9.10700        0.07000
H         -3.22110        6.75350       -0.58000
H         -4.73930        2.41580        1.81380
H         -6.85990        1.22450        2.13630
H         -9.27540        1.26750        2.27920
H        -10.16770        2.75420        1.91570
H         -9.67260        1.68200        0.61150
H         -8.99810        4.63570        0.72680
H         -6.87970        5.81900        0.36380
H          3.96880        2.81770        0.65930
H          5.89670        4.18000        0.00270
H          6.30340        6.19910       -2.22210
H          5.63560        7.61200       -1.40290
H          6.70450        6.49810       -0.53380
H          3.27200        7.13530       -1.60040
H          1.33980        5.77590       -0.95110
H          2.82540        2.10240       -1.57650
H          2.99660       -0.32780       -1.80060
H          2.78770       -2.52420       -0.50990
H          1.20660       -2.56670       -1.27490
H          1.33950       -2.77300        0.47310
H          0.17710       -0.82820        1.35810
H          0.02410        1.60250        1.61270
H          5.00990        6.64460        2.16260
H          5.42000        8.84620        1.18630
H          3.54120       10.27680        0.48890
H          0.13510        9.77250        1.51150
H          1.20370       10.74900        0.49280
H          0.93180        9.05730       -1.35090
H         -0.60690        9.78090       -0.87820
H         -0.18940        8.15370       -0.33060
H          0.79970        7.34240        1.89050
H          7.24980       -6.27620       -0.36980
H          8.36980       -7.07390       -2.41550
H          7.15550       -7.10820       -4.55660
H          3.55430       -6.41830       -4.88450
H          4.98500       -7.07100       -5.69490
H          5.90110       -4.76060       -5.93420
H          4.31570       -4.89980       -6.70230
H          4.47340       -4.10970       -5.13000
H          3.71850       -5.47360       -2.63440
H          2.54330       -0.60810        3.57340
H          1.81170        0.95990        3.28570
H          0.88040       -0.09480        5.34480
H          1.67120        1.44450        5.68270
H          2.48030       -0.06450        6.09520
H          3.66840       -1.60110        5.16080
H          2.85900       -2.86420        4.19020
H          5.63320       -3.10630        5.46100
H          4.78820       -4.37730        4.57010
H          4.14670       -3.80730        6.11220
H         -2.59920       -4.35570       -0.07300
H         -1.32030       -3.11760        0.05850
H         -2.45140       -3.31670        2.24060
H         -0.79440       -3.92800        2.37070
H         -2.15040       -5.05720        2.27870
H          1.99890       -9.09090       -2.49750
H          3.72110       -7.98580       -1.21860
H         -1.57620       -7.65380       -2.52730
H          0.64220      -12.86980       -5.22620
H         -1.00530      -14.11820       -6.62740
H         -3.93320      -11.07070       -5.98840
