
  xtb     02092201393D
 energy: -394.922929156500 gnorm: 0.000450402262 xtb: 6.4.1 (unknown)
236260  0     0  0            999 V2000
   -1.0087   -2.2497   12.2844 C   0  0  0  0  0  0  0  0  0  0  0  0
   -1.7232   -3.1241   13.0691 C   0  0  0  0  0  0  0  0  0  0  0  0
   -2.3610   -2.6381   14.3122 C   0  0  0  0  0  0  0  0  0  0  0  0
   -2.2150   -1.5571   14.8401 O   0  0  0  0  0  0  0  0  0  0  0  0
   -3.2685   -3.7298   14.7305 C   0  0  0  0  0  0  0  0  0  0  0  0
   -4.1788   -3.7587   15.7679 C   0  0  0  0  0  0  0  0  0  0  0  0
   -4.9444   -4.9005   15.9486 C   0  0  0  0  0  0  0  0  0  0  0  0
   -4.7722   -5.9872   15.1009 C   0  0  0  0  0  0  0  0  0  0  0  0
   -5.7454   -7.3926   15.3316 Cl  0  0  0  0  0  0  0  0  0  0  0  0
   -3.8468   -5.9789   14.0622 C   0  0  0  0  0  0  0  0  0  0  0  0
   -3.1011   -4.8302   13.8731 C   0  0  0  0  0  0  0  0  0  0  0  0
   -2.0756   -4.4996   12.8817 C   0  0  0  0  0  0  0  0  0  0  0  0
   -1.4126   -5.4009   12.0767 C   0  0  0  0  0  0  0  0  0  0  0  0
   -0.2053   -5.1031   11.4246 C   0  0  0  0  0  0  0  0  0  0  0  0
    0.8053   -4.9219   10.9065 N   0  0  0  0  0  0  0  0  0  0  0  0
   -1.8260   -6.7284   11.8705 C   0  0  0  0  0  0  0  0  0  0  0  0
   -2.1470   -7.8034   11.6217 N   0  0  0  0  0  0  0  0  0  0  0  0
   -0.7158   -2.2904   10.9178 C   0  0  0  0  0  0  0  0  0  0  0  0
   -1.2793   -3.0038    9.8369 C   0  0  0  0  0  0  0  0  0  0  0  0
   -2.4314   -3.7443    9.8586 N   0  0  0  0  0  0  0  0  0  0  0  0
   -2.6788   -4.6586    8.8002 C   0  0  0  0  0  0  0  0  0  0  0  0
   -1.7595   -5.6526    8.4808 C   0  0  0  0  0  0  0  0  0  0  0  0
   -2.0337   -6.5426    7.4606 C   0  0  0  0  0  0  0  0  0  0  0  0
   -3.2224   -6.4694    6.7442 C   0  0  0  0  0  0  0  0  0  0  0  0
   -3.5101   -7.4316    5.6349 C   0  0  0  0  0  0  0  0  0  0  0  0
   -4.1307   -5.4690    7.0690 C   0  0  0  0  0  0  0  0  0  0  0  0
   -3.8663   -4.5694    8.0815 C   0  0  0  0  0  0  0  0  0  0  0  0
   -3.5178   -3.4631   10.7047 C   0  0  0  0  0  0  0  0  0  0  0  0
   -3.7879   -2.1761   11.1636 C   0  0  0  0  0  0  0  0  0  0  0  0
   -4.8512   -1.9503   12.0139 C   0  0  0  0  0  0  0  0  0  0  0  0
   -5.6889   -2.9860   12.4140 C   0  0  0  0  0  0  0  0  0  0  0  0
   -6.8269   -2.7278   13.3498 C   0  0  0  0  0  0  0  0  0  0  0  0
   -5.4485   -4.2566   11.9066 C   0  0  0  0  0  0  0  0  0  0  0  0
   -4.3762   -4.4996   11.0726 C   0  0  0  0  0  0  0  0  0  0  0  0
   -0.5222   -2.7921    8.6616 C   0  0  0  0  0  0  0  0  0  0  0  0
   -0.6108   -3.3876    7.0390 S   0  0  0  0  0  0  0  0  0  0  0  0
    0.8402   -2.4965    6.6020 C   0  0  0  0  0  0  0  0  0  0  0  0
    1.3028   -1.7020    7.6353 C   0  0  0  0  0  0  0  0  0  0  0  0
    2.4260   -0.8854    7.5898 N   0  0  0  0  0  0  0  0  0  0  0  0
    3.3090   -0.8987    8.6809 C   0  0  0  0  0  0  0  0  0  0  0  0
    3.5582   -2.0872    9.3651 C   0  0  0  0  0  0  0  0  0  0  0  0
    4.4086   -2.1012   10.4509 C   0  0  0  0  0  0  0  0  0  0  0  0
    5.0457   -0.9428   10.8803 C   0  0  0  0  0  0  0  0  0  0  0  0
    5.9577   -0.9742   12.0683 C   0  0  0  0  0  0  0  0  0  0  0  0
    4.7973    0.2362   10.1902 C   0  0  0  0  0  0  0  0  0  0  0  0
    3.9371    0.2670    9.1099 C   0  0  0  0  0  0  0  0  0  0  0  0
    2.5324    0.0836    6.5854 C   0  0  0  0  0  0  0  0  0  0  0  0
    1.3969    0.7476    6.1231 C   0  0  0  0  0  0  0  0  0  0  0  0
    1.5044    1.6918    5.1225 C   0  0  0  0  0  0  0  0  0  0  0  0
    2.7366    2.0039    4.5601 C   0  0  0  0  0  0  0  0  0  0  0  0
    2.8309    3.0328    3.4738 C   0  0  0  0  0  0  0  0  0  0  0  0
    3.8646    1.3464    5.0350 C   0  0  0  0  0  0  0  0  0  0  0  0
    3.7714    0.3973    6.0333 C   0  0  0  0  0  0  0  0  0  0  0  0
    0.5295   -1.8986    8.8056 C   0  0  0  0  0  0  0  0  0  0  0  0
    0.6256   -1.2609   10.3990 S   0  0  0  0  0  0  0  0  0  0  0  0
    1.3981   -2.7682    5.3037 C   0  0  0  0  0  0  0  0  0  0  0  0
    1.7069   -4.0235    4.8094 C   0  0  0  0  0  0  0  0  0  0  0  0
    1.6954   -5.2587    5.5945 C   0  0  0  0  0  0  0  0  0  0  0  0
    1.9926   -5.2557    6.9565 C   0  0  0  0  0  0  0  0  0  0  0  0
    1.9700   -6.4299    7.6823 C   0  0  0  0  0  0  0  0  0  0  0  0
    1.6982   -7.6318    7.0524 C   0  0  0  0  0  0  0  0  0  0  0  0
    1.4469   -7.6670    5.6865 C   0  0  0  0  0  0  0  0  0  0  0  0
    1.1916   -8.9723    4.9867 C   0  0  0  0  0  0  0  0  0  0  0  0
   -0.2925   -9.3376    5.0169 C   0  0  0  0  0  0  0  0  0  0  0  0
    1.4214   -6.4763    4.9766 C   0  0  0  0  0  0  0  0  0  0  0  0
    2.0952   -3.9491    3.4500 C   0  0  0  0  0  0  0  0  0  0  0  0
    2.6254   -5.1353    2.2773 S   0  0  0  0  0  0  0  0  0  0  0  0
    2.7754   -3.8829    1.0907 C   0  0  0  0  0  0  0  0  0  0  0  0
    3.1121   -3.7215   -0.2673 C   0  0  0  0  0  0  0  0  0  0  0  0
    3.6155   -4.6125   -1.2406 C   0  0  0  0  0  0  0  0  0  0  0  0
    3.9108   -4.1158   -2.5585 C   0  0  0  0  0  0  0  0  0  0  0  0
    4.4216   -5.0485   -3.3461 N   0  0  0  0  0  0  0  0  0  0  0  0
    4.5201   -6.4315   -2.5096 S   0  0  0  0  0  0  0  0  0  0  0  0
    3.9122   -5.8956   -1.1081 N   0  0  0  0  0  0  0  0  0  0  0  0
    3.5567   -2.7878   -2.8868 C   0  0  0  0  0  0  0  0  0  0  0  0
    3.4811   -2.1139   -4.1183 C   0  0  0  0  0  0  0  0  0  0  0  0
    3.8353   -2.3972   -5.7902 S   0  0  0  0  0  0  0  0  0  0  0  0
    3.0647   -0.8796   -6.1841 C   0  0  0  0  0  0  0  0  0  0  0  0
    2.8236   -0.2301   -7.4116 C   0  0  0  0  0  0  0  0  0  0  0  0
    3.3000   -0.7812   -8.6855 C   0  0  0  0  0  0  0  0  0  0  0  0
    2.8934   -2.0503   -9.0814 C   0  0  0  0  0  0  0  0  0  0  0  0
    3.3975   -2.5999  -10.2448 C   0  0  0  0  0  0  0  0  0  0  0  0
    4.3244   -1.9035  -10.9991 C   0  0  0  0  0  0  0  0  0  0  0  0
    4.7562   -0.6432  -10.6051 C   0  0  0  0  0  0  0  0  0  0  0  0
    5.7574    0.1118  -11.4306 C   0  0  0  0  0  0  0  0  0  0  0  0
    5.0485    0.8993  -12.5321 C   0  0  0  0  0  0  0  0  0  0  0  0
    4.2256   -0.0838   -9.4529 C   0  0  0  0  0  0  0  0  0  0  0  0
    2.1187    0.9426   -7.2327 C   0  0  0  0  0  0  0  0  0  0  0  0
    1.7972    1.2687   -5.5279 S   0  0  0  0  0  0  0  0  0  0  0  0
    2.5852   -0.1968   -5.0658 C   0  0  0  0  0  0  0  0  0  0  0  0
    2.8374   -0.8956   -3.8793 C   0  0  0  0  0  0  0  0  0  0  0  0
    2.5538   -0.7699   -2.5443 N   0  0  0  0  0  0  0  0  0  0  0  0
    2.9959   -1.9174   -1.9140 C   0  0  0  0  0  0  0  0  0  0  0  0
    2.9174   -2.3472   -0.5674 C   0  0  0  0  0  0  0  0  0  0  0  0
    2.5429   -1.6796    0.5883 N   0  0  0  0  0  0  0  0  0  0  0  0
    2.4453   -2.6204    1.5825 C   0  0  0  0  0  0  0  0  0  0  0  0
    2.0693   -2.6571    2.9305 C   0  0  0  0  0  0  0  0  0  0  0  0
    1.5756   -1.4971    4.1065 S   0  0  0  0  0  0  0  0  0  0  0  0
    2.8373   -0.3086    0.9459 C   0  0  0  0  0  0  0  0  0  0  0  0
    4.1543   -0.2084    1.7149 C   0  0  0  0  0  0  0  0  0  0  0  0
    1.6043    0.2192   -2.0857 C   0  0  0  0  0  0  0  0  0  0  0  0
    2.2077    1.6229   -2.0374 C   0  0  0  0  0  0  0  0  0  0  0  0
    1.5117    1.8231   -8.1722 C   0  0  0  0  0  0  0  0  0  0  0  0
    0.6895    2.8630   -7.8364 C   0  0  0  0  0  0  0  0  0  0  0  0
    0.1020    3.5186   -8.9399 C   0  0  0  0  0  0  0  0  0  0  0  0
   -0.8423    4.5581   -8.9082 C   0  0  0  0  0  0  0  0  0  0  0  0
   -1.2239    5.1858   -7.6377 C   0  0  0  0  0  0  0  0  0  0  0  0
   -2.5612    5.3529   -7.2814 C   0  0  0  0  0  0  0  0  0  0  0  0
   -2.8995    5.9093   -6.0689 C   0  0  0  0  0  0  0  0  0  0  0  0
   -1.9129    6.3258   -5.1719 C   0  0  0  0  0  0  0  0  0  0  0  0
   -2.3680    6.8566   -4.0044 O   0  0  0  0  0  0  0  0  0  0  0  0
   -1.4559    7.1804   -2.9760 C   0  0  0  0  0  0  0  0  0  0  0  0
   -0.9239    5.9465   -2.2509 C   0  0  0  0  0  0  0  0  0  0  0  0
   -0.5766    6.1881   -5.5344 C   0  0  0  0  0  0  0  0  0  0  0  0
   -0.2452    5.6238   -6.7520 C   0  0  0  0  0  0  0  0  0  0  0  0
   -1.3803    4.9452  -10.1262 C   0  0  0  0  0  0  0  0  0  0  0  0
   -0.9754    4.3646  -11.3583 C   0  0  0  0  0  0  0  0  0  0  0  0
   -0.0097    3.3343  -11.3894 C   0  0  0  0  0  0  0  0  0  0  0  0
    0.4002    2.7209  -12.6580 C   0  0  0  0  0  0  0  0  0  0  0  0
    1.7443    2.6729  -13.0215 C   0  0  0  0  0  0  0  0  0  0  0  0
    2.1278    2.1179  -14.2206 C   0  0  0  0  0  0  0  0  0  0  0  0
    1.1803    1.5728  -15.0909 C   0  0  0  0  0  0  0  0  0  0  0  0
    1.6840    1.0287  -16.2294 O   0  0  0  0  0  0  0  0  0  0  0  0
    0.8120    0.5400  -17.2289 C   0  0  0  0  0  0  0  0  0  0  0  0
    0.1803    1.6575  -18.0540 C   0  0  0  0  0  0  0  0  0  0  0  0
   -0.1630    1.6089  -14.7282 C   0  0  0  0  0  0  0  0  0  0  0  0
   -0.5407    2.1821  -13.5277 C   0  0  0  0  0  0  0  0  0  0  0  0
    0.5048    2.9366  -10.1708 C   0  0  0  0  0  0  0  0  0  0  0  0
    1.6369    1.6223   -9.9115 S   0  0  0  0  0  0  0  0  0  0  0  0
   -1.6229    4.9713  -12.4470 C   0  0  0  0  0  0  0  0  0  0  0  0
   -2.5188    5.9600  -12.0896 C   0  0  0  0  0  0  0  0  0  0  0  0
   -2.5753    6.1917  -10.3529 S   0  0  0  0  0  0  0  0  0  0  0  0
   -3.2855    6.6636  -13.0436 C   0  0  0  0  0  0  0  0  0  0  0  0
   -4.2500    7.6088  -12.8793 C   0  0  0  0  0  0  0  0  0  0  0  0
   -5.0751    8.2929  -14.2786 S   0  0  0  0  0  0  0  0  0  0  0  0
   -6.1033    9.2600  -13.2528 C   0  0  0  0  0  0  0  0  0  0  0  0
   -7.1213   10.0285  -13.7568 C   0  0  0  0  0  0  0  0  0  0  0  0
   -8.0483   10.7455  -12.9798 C   0  0  0  0  0  0  0  0  0  0  0  0
   -8.8542   11.3348  -12.4122 N   0  0  0  0  0  0  0  0  0  0  0  0
   -7.3237   10.1010  -15.1491 C   0  0  0  0  0  0  0  0  0  0  0  0
   -7.4867   10.1671  -16.2828 N   0  0  0  0  0  0  0  0  0  0  0  0
   -5.7789    9.1005  -11.9421 N   0  0  0  0  0  0  0  0  0  0  0  0
   -6.3770    9.8586  -10.8919 C   0  0  0  0  0  0  0  0  0  0  0  0
   -6.1267   11.2204  -10.8057 C   0  0  0  0  0  0  0  0  0  0  0  0
   -6.6957   11.9473   -9.7769 C   0  0  0  0  0  0  0  0  0  0  0  0
   -7.4948   11.3153   -8.8393 C   0  0  0  0  0  0  0  0  0  0  0  0
   -7.7216    9.9523   -8.9217 C   0  0  0  0  0  0  0  0  0  0  0  0
   -7.1621    9.2149   -9.9494 C   0  0  0  0  0  0  0  0  0  0  0  0
   -4.7702    8.1875  -11.6511 C   0  0  0  0  0  0  0  0  0  0  0  0
   -4.4143    7.9549  -10.5162 O   0  0  0  0  0  0  0  0  0  0  0  0
   -0.6603   -1.3616   12.8040 H   0  0  0  0  0  0  0  0  0  0  0  0
   -4.2874   -2.9051   16.4188 H   0  0  0  0  0  0  0  0  0  0  0  0
   -5.6725   -4.9543   16.7425 H   0  0  0  0  0  0  0  0  0  0  0  0
   -3.7423   -6.8413   13.4241 H   0  0  0  0  0  0  0  0  0  0  0  0
   -0.8314   -5.7299    9.0252 H   0  0  0  0  0  0  0  0  0  0  0  0
   -1.3072   -7.3039    7.2221 H   0  0  0  0  0  0  0  0  0  0  0  0
   -4.5710   -7.4465    5.3981 H   0  0  0  0  0  0  0  0  0  0  0  0
   -3.1929   -8.4363    5.9034 H   0  0  0  0  0  0  0  0  0  0  0  0
   -2.9656   -7.1350    4.7383 H   0  0  0  0  0  0  0  0  0  0  0  0
   -5.0572   -5.3884    6.5195 H   0  0  0  0  0  0  0  0  0  0  0  0
   -4.5783   -3.7930    8.3210 H   0  0  0  0  0  0  0  0  0  0  0  0
   -3.1678   -1.3498   10.8518 H   0  0  0  0  0  0  0  0  0  0  0  0
   -5.0333   -0.9488   12.3744 H   0  0  0  0  0  0  0  0  0  0  0  0
   -6.5207   -2.0500   14.1436 H   0  0  0  0  0  0  0  0  0  0  0  0
   -7.1809   -3.6551   13.7930 H   0  0  0  0  0  0  0  0  0  0  0  0
   -7.6563   -2.2642   12.8150 H   0  0  0  0  0  0  0  0  0  0  0  0
   -6.0970   -5.0744   12.1834 H   0  0  0  0  0  0  0  0  0  0  0  0
   -4.1908   -5.4997   10.7088 H   0  0  0  0  0  0  0  0  0  0  0  0
    3.0805   -3.0033    9.0522 H   0  0  0  0  0  0  0  0  0  0  0  0
    4.5825   -3.0310   10.9722 H   0  0  0  0  0  0  0  0  0  0  0  0
    6.6476   -1.8136   12.0009 H   0  0  0  0  0  0  0  0  0  0  0  0
    5.3767   -1.0945   12.9829 H   0  0  0  0  0  0  0  0  0  0  0  0
    6.5305   -0.0535   12.1453 H   0  0  0  0  0  0  0  0  0  0  0  0
    5.2743    1.1522   10.5085 H   0  0  0  0  0  0  0  0  0  0  0  0
    3.7428    1.1989    8.5997 H   0  0  0  0  0  0  0  0  0  0  0  0
    0.4335    0.5186    6.5551 H   0  0  0  0  0  0  0  0  0  0  0  0
    0.6169    2.2005    4.7745 H   0  0  0  0  0  0  0  0  0  0  0  0
    2.4191    3.9820    3.8138 H   0  0  0  0  0  0  0  0  0  0  0  0
    2.2602    2.7186    2.6000 H   0  0  0  0  0  0  0  0  0  0  0  0
    3.8643    3.1930    3.1762 H   0  0  0  0  0  0  0  0  0  0  0  0
    4.8338    1.5758    4.6154 H   0  0  0  0  0  0  0  0  0  0  0  0
    4.6547   -0.1118    6.3893 H   0  0  0  0  0  0  0  0  0  0  0  0
    2.2648   -4.3329    7.4434 H   0  0  0  0  0  0  0  0  0  0  0  0
    2.1779   -6.4059    8.7417 H   0  0  0  0  0  0  0  0  0  0  0  0
    1.7008   -8.5510    7.6207 H   0  0  0  0  0  0  0  0  0  0  0  0
    1.7658   -9.7641    5.4722 H   0  0  0  0  0  0  0  0  0  0  0  0
    1.5218   -8.8988    3.9487 H   0  0  0  0  0  0  0  0  0  0  0  0
   -0.8790   -8.5615    4.5313 H   0  0  0  0  0  0  0  0  0  0  0  0
   -0.6366   -9.4434    6.0436 H   0  0  0  0  0  0  0  0  0  0  0  0
   -0.4632  -10.2781    4.4980 H   0  0  0  0  0  0  0  0  0  0  0  0
    1.1883   -6.4995    3.9226 H   0  0  0  0  0  0  0  0  0  0  0  0
    2.1819   -2.5965   -8.4802 H   0  0  0  0  0  0  0  0  0  0  0  0
    3.0753   -3.5823  -10.5571 H   0  0  0  0  0  0  0  0  0  0  0  0
    4.7281   -2.3462  -11.8983 H   0  0  0  0  0  0  0  0  0  0  0  0
    6.3163    0.8018  -10.7953 H   0  0  0  0  0  0  0  0  0  0  0  0
    6.4652   -0.5865  -11.8820 H   0  0  0  0  0  0  0  0  0  0  0  0
    4.3406    1.5966  -12.0921 H   0  0  0  0  0  0  0  0  0  0  0  0
    4.4983    0.2252  -13.1844 H   0  0  0  0  0  0  0  0  0  0  0  0
    5.7685    1.4553  -13.1285 H   0  0  0  0  0  0  0  0  0  0  0  0
    4.5542    0.8936   -9.1283 H   0  0  0  0  0  0  0  0  0  0  0  0
    2.9173    0.2874    0.0434 H   0  0  0  0  0  0  0  0  0  0  0  0
    2.0185    0.0689    1.5672 H   0  0  0  0  0  0  0  0  0  0  0  0
    4.3856    0.8356    1.9039 H   0  0  0  0  0  0  0  0  0  0  0  0
    4.0874   -0.7220    2.6699 H   0  0  0  0  0  0  0  0  0  0  0  0
    4.9621   -0.6492    1.1340 H   0  0  0  0  0  0  0  0  0  0  0  0
    0.7648    0.2294   -2.7908 H   0  0  0  0  0  0  0  0  0  0  0  0
    1.2167   -0.0876   -1.1138 H   0  0  0  0  0  0  0  0  0  0  0  0
    1.4956    2.3119   -1.5916 H   0  0  0  0  0  0  0  0  0  0  0  0
    2.4351    1.9657   -3.0429 H   0  0  0  0  0  0  0  0  0  0  0  0
    3.1290    1.6461   -1.4596 H   0  0  0  0  0  0  0  0  0  0  0  0
    0.4693    3.1211   -6.8156 H   0  0  0  0  0  0  0  0  0  0  0  0
   -3.3395    5.0214   -7.9513 H   0  0  0  0  0  0  0  0  0  0  0  0
   -3.9322    6.0333   -5.7844 H   0  0  0  0  0  0  0  0  0  0  0  0
   -2.0377    7.7943   -2.2828 H   0  0  0  0  0  0  0  0  0  0  0  0
   -0.6308    7.7904   -3.3645 H   0  0  0  0  0  0  0  0  0  0  0  0
   -1.7537    5.3728   -1.8457 H   0  0  0  0  0  0  0  0  0  0  0  0
   -0.2733    6.2527   -1.4361 H   0  0  0  0  0  0  0  0  0  0  0  0
   -0.3646    5.3075   -2.9303 H   0  0  0  0  0  0  0  0  0  0  0  0
    0.2184    6.5208   -4.8854 H   0  0  0  0  0  0  0  0  0  0  0  0
    0.7964    5.5401   -7.0266 H   0  0  0  0  0  0  0  0  0  0  0  0
    2.4852    3.1032  -12.3645 H   0  0  0  0  0  0  0  0  0  0  0  0
    3.1643    2.0913  -14.5154 H   0  0  0  0  0  0  0  0  0  0  0  0
    1.4522   -0.0748  -17.8677 H   0  0  0  0  0  0  0  0  0  0  0  0
    0.0420   -0.1066  -16.7904 H   0  0  0  0  0  0  0  0  0  0  0  0
   -0.4390    2.2988  -17.4315 H   0  0  0  0  0  0  0  0  0  0  0  0
    0.9594    2.2667  -18.5052 H   0  0  0  0  0  0  0  0  0  0  0  0
   -0.4340    1.2296  -18.8413 H   0  0  0  0  0  0  0  0  0  0  0  0
   -0.9270    1.1909  -15.3648 H   0  0  0  0  0  0  0  0  0  0  0  0
   -1.5854    2.1901  -13.2514 H   0  0  0  0  0  0  0  0  0  0  0  0
   -1.4376    4.7013  -13.4718 H   0  0  0  0  0  0  0  0  0  0  0  0
   -3.0711    6.3839  -14.0699 H   0  0  0  0  0  0  0  0  0  0  0  0
   -5.4984   11.7029  -11.5404 H   0  0  0  0  0  0  0  0  0  0  0  0
   -6.5134   13.0086   -9.7098 H   0  0  0  0  0  0  0  0  0  0  0  0
   -7.9403   11.8877   -8.0401 H   0  0  0  0  0  0  0  0  0  0  0  0
   -8.3394    9.4591   -8.1872 H   0  0  0  0  0  0  0  0  0  0  0  0
   -7.3294    8.1514  -10.0246 H   0  0  0  0  0  0  0  0  0  0  0  0
  1  2  2  0  0  0  0
  2  3  1  0  0  0  0
  3  4  2  0  0  0  0
  3  5  1  0  0  0  0
  5  6  2  0  0  0  0
  6  7  1  0  0  0  0
  7  8  2  0  0  0  0
  8  9  1  0  0  0  0
  8 10  1  0  0  0  0
 10 11  2  0  0  0  0
 11 12  1  0  0  0  0
 12 13  2  0  0  0  0
 13 14  1  0  0  0  0
 14 15  3  0  0  0  0
 13 16  1  0  0  0  0
 16 17  3  0  0  0  0
  1 18  1  0  0  0  0
 18 19  2  0  0  0  0
 19 20  1  0  0  0  0
 20 21  1  0  0  0  0
 21 22  2  0  0  0  0
 22 23  1  0  0  0  0
 23 24  2  0  0  0  0
 24 25  1  0  0  0  0
 24 26  1  0  0  0  0
 26 27  2  0  0  0  0
 20 28  1  0  0  0  0
 28 29  2  0  0  0  0
 29 30  1  0  0  0  0
 30 31  2  0  0  0  0
 31 32  1  0  0  0  0
 31 33  1  0  0  0  0
 33 34  2  0  0  0  0
 19 35  1  0  0  0  0
 35 36  1  0  0  0  0
 36 37  1  0  0  0  0
 37 38  2  0  0  0  0
 38 39  1  0  0  0  0
 39 40  1  0  0  0  0
 40 41  2  0  0  0  0
 41 42  1  0  0  0  0
 42 43  2  0  0  0  0
 43 44  1  0  0  0  0
 43 45  1  0  0  0  0
 45 46  2  0  0  0  0
 39 47  1  0  0  0  0
 47 48  2  0  0  0  0
 48 49  1  0  0  0  0
 49 50  2  0  0  0  0
 50 51  1  0  0  0  0
 50 52  1  0  0  0  0
 52 53  2  0  0  0  0
 38 54  1  0  0  0  0
 54 55  1  0  0  0  0
 37 56  1  0  0  0  0
 56 57  2  0  0  0  0
 57 58  1  0  0  0  0
 58 59  2  0  0  0  0
 59 60  1  0  0  0  0
 60 61  2  0  0  0  0
 61 62  1  0  0  0  0
 62 63  1  0  0  0  0
 63 64  1  0  0  0  0
 62 65  2  0  0  0  0
 57 66  1  0  0  0  0
 66 67  1  0  0  0  0
 67 68  1  0  0  0  0
 68 69  1  0  0  0  0
 69 70  1  0  0  0  0
 70 71  1  0  0  0  0
 71 72  2  0  0  0  0
 72 73  1  0  0  0  0
 73 74  1  0  0  0  0
 71 75  1  0  0  0  0
 75 76  1  0  0  0  0
 76 77  1  0  0  0  0
 77 78  1  0  0  0  0
 78 79  1  0  0  0  0
 79 80  1  0  0  0  0
 80 81  2  0  0  0  0
 81 82  1  0  0  0  0
 82 83  2  0  0  0  0
 83 84  1  0  0  0  0
 84 85  1  0  0  0  0
 85 86  1  0  0  0  0
 84 87  2  0  0  0  0
 79 88  2  0  0  0  0
 88 89  1  0  0  0  0
 89 90  1  0  0  0  0
 90 91  1  0  0  0  0
 91 92  1  0  0  0  0
 92 93  1  0  0  0  0
 93 94  1  0  0  0  0
 94 95  1  0  0  0  0
 95 96  1  0  0  0  0
 96 97  1  0  0  0  0
 97 98  1  0  0  0  0
 95 99  1  0  0  0  0
 99100  1  0  0  0  0
 92101  1  0  0  0  0
101102  1  0  0  0  0
 88103  1  0  0  0  0
103104  2  0  0  0  0
104105  1  0  0  0  0
105106  2  0  0  0  0
106107  1  0  0  0  0
107108  2  0  0  0  0
108109  1  0  0  0  0
109110  2  0  0  0  0
110111  1  0  0  0  0
111112  1  0  0  0  0
112113  1  0  0  0  0
110114  1  0  0  0  0
114115  2  0  0  0  0
106116  1  0  0  0  0
116117  2  0  0  0  0
117118  1  0  0  0  0
118119  1  0  0  0  0
119120  2  0  0  0  0
120121  1  0  0  0  0
121122  2  0  0  0  0
122123  1  0  0  0  0
123124  1  0  0  0  0
124125  1  0  0  0  0
122126  1  0  0  0  0
126127  2  0  0  0  0
118128  2  0  0  0  0
128129  1  0  0  0  0
117130  1  0  0  0  0
130131  2  0  0  0  0
131132  1  0  0  0  0
131133  1  0  0  0  0
133134  2  0  0  0  0
134135  1  0  0  0  0
135136  1  0  0  0  0
136137  2  0  0  0  0
137138  1  0  0  0  0
138139  3  0  0  0  0
137140  1  0  0  0  0
140141  3  0  0  0  0
136142  1  0  0  0  0
142143  1  0  0  0  0
143144  2  0  0  0  0
144145  1  0  0  0  0
145146  2  0  0  0  0
146147  1  0  0  0  0
147148  2  0  0  0  0
142149  1  0  0  0  0
149150  2  0  0  0  0
 12  2  1  0  0  0  0
 55 18  1  0  0  0  0
 98 56  1  0  0  0  0
129103  1  0  0  0  0
149134  1  0  0  0  0
 11  5  1  0  0  0  0
 27 21  1  0  0  0  0
 34 28  1  0  0  0  0
 54 35  2  0  0  0  0
 65 58  1  0  0  0  0
 97 66  2  0  0  0  0
128105  1  0  0  0  0
148143  1  0  0  0  0
 46 40  1  0  0  0  0
 53 47  1  0  0  0  0
 96 68  2  0  0  0  0
115107  1  0  0  0  0
132116  1  0  0  0  0
 94 69  2  0  0  0  0
127119  1  0  0  0  0
 74 70  2  0  0  0  0
 93 75  2  0  0  0  0
 91 76  2  0  0  0  0
 90 78  2  0  0  0  0
 87 80  1  0  0  0  0
  1151  1  0  0  0  0
  6152  1  0  0  0  0
  7153  1  0  0  0  0
 10154  1  0  0  0  0
 22155  1  0  0  0  0
 23156  1  0  0  0  0
 25157  1  0  0  0  0
 25158  1  0  0  0  0
 25159  1  0  0  0  0
 26160  1  0  0  0  0
 27161  1  0  0  0  0
 29162  1  0  0  0  0
 30163  1  0  0  0  0
 32164  1  0  0  0  0
 32165  1  0  0  0  0
 32166  1  0  0  0  0
 33167  1  0  0  0  0
 34168  1  0  0  0  0
 41169  1  0  0  0  0
 42170  1  0  0  0  0
 44171  1  0  0  0  0
 44172  1  0  0  0  0
 44173  1  0  0  0  0
 45174  1  0  0  0  0
 46175  1  0  0  0  0
 48176  1  0  0  0  0
 49177  1  0  0  0  0
 51178  1  0  0  0  0
 51179  1  0  0  0  0
 51180  1  0  0  0  0
 52181  1  0  0  0  0
 53182  1  0  0  0  0
 59183  1  0  0  0  0
 60184  1  0  0  0  0
 61185  1  0  0  0  0
 63186  1  0  0  0  0
 63187  1  0  0  0  0
 64188  1  0  0  0  0
 64189  1  0  0  0  0
 64190  1  0  0  0  0
 65191  1  0  0  0  0
 81192  1  0  0  0  0
 82193  1  0  0  0  0
 83194  1  0  0  0  0
 85195  1  0  0  0  0
 85196  1  0  0  0  0
 86197  1  0  0  0  0
 86198  1  0  0  0  0
 86199  1  0  0  0  0
 87200  1  0  0  0  0
 99201  1  0  0  0  0
 99202  1  0  0  0  0
100203  1  0  0  0  0
100204  1  0  0  0  0
100205  1  0  0  0  0
101206  1  0  0  0  0
101207  1  0  0  0  0
102208  1  0  0  0  0
102209  1  0  0  0  0
102210  1  0  0  0  0
104211  1  0  0  0  0
108212  1  0  0  0  0
109213  1  0  0  0  0
112214  1  0  0  0  0
112215  1  0  0  0  0
113216  1  0  0  0  0
113217  1  0  0  0  0
113218  1  0  0  0  0
114219  1  0  0  0  0
115220  1  0  0  0  0
120221  1  0  0  0  0
121222  1  0  0  0  0
124223  1  0  0  0  0
124224  1  0  0  0  0
125225  1  0  0  0  0
125226  1  0  0  0  0
125227  1  0  0  0  0
126228  1  0  0  0  0
127229  1  0  0  0  0
130230  1  0  0  0  0
133231  1  0  0  0  0
144232  1  0  0  0  0
145233  1  0  0  0  0
146234  1  0  0  0  0
147235  1  0  0  0  0
148236  1  0  0  0  0
M  END
