
  xtb     02072209473D
 energy: -396.394936537098 gnorm: 0.000314202630 xtb: 6.4.1 (unknown)
244268  0     0  0            999 V2000
   -0.7895   12.0215   -4.0541 C   0  0  0  0  0  0  0  0  0  0  0  0
    0.2277   12.7900   -4.5633 C   0  0  0  0  0  0  0  0  0  0  0  0
    0.0025   14.2228   -4.8471 C   0  0  0  0  0  0  0  0  0  0  0  0
   -1.0615   14.7969   -4.9413 O   0  0  0  0  0  0  0  0  0  0  0  0
    1.3594   14.8142   -4.9286 C   0  0  0  0  0  0  0  0  0  0  0  0
    1.7340   16.1370   -5.0585 C   0  0  0  0  0  0  0  0  0  0  0  0
    3.0858   16.4488   -5.0618 C   0  0  0  0  0  0  0  0  0  0  0  0
    4.0294   15.4370   -4.9374 C   0  0  0  0  0  0  0  0  0  0  0  0
    5.7046   15.8477   -4.9203 Cl  0  0  0  0  0  0  0  0  0  0  0  0
    3.6691   14.0979   -4.8239 C   0  0  0  0  0  0  0  0  0  0  0  0
    2.3208   13.7928   -4.8202 C   0  0  0  0  0  0  0  0  0  0  0  0
    1.6260   12.5073   -4.7514 C   0  0  0  0  0  0  0  0  0  0  0  0
    2.1721   11.2918   -5.0904 C   0  0  0  0  0  0  0  0  0  0  0  0
    3.5487   11.0675   -5.2604 C   0  0  0  0  0  0  0  0  0  0  0  0
    4.6668   10.8290   -5.3744 N   0  0  0  0  0  0  0  0  0  0  0  0
    1.3731   10.1666   -5.3755 C   0  0  0  0  0  0  0  0  0  0  0  0
    0.7336    9.2624   -5.6813 N   0  0  0  0  0  0  0  0  0  0  0  0
   -0.6789   10.8730   -3.2632 C   0  0  0  0  0  0  0  0  0  0  0  0
   -1.7385   10.0935   -2.7563 C   0  0  0  0  0  0  0  0  0  0  0  0
   -3.0354   10.1821   -3.1677 N   0  0  0  0  0  0  0  0  0  0  0  0
   -4.0689    9.8183   -2.2843 C   0  0  0  0  0  0  0  0  0  0  0  0
   -4.0375   10.2469   -0.9595 C   0  0  0  0  0  0  0  0  0  0  0  0
   -5.0543    9.8962   -0.0950 C   0  0  0  0  0  0  0  0  0  0  0  0
   -6.1265    9.1228   -0.5253 C   0  0  0  0  0  0  0  0  0  0  0  0
   -7.2133    8.7324    0.4276 C   0  0  0  0  0  0  0  0  0  0  0  0
   -6.1538    8.7105   -1.8523 C   0  0  0  0  0  0  0  0  0  0  0  0
   -5.1404    9.0494   -2.7268 C   0  0  0  0  0  0  0  0  0  0  0  0
   -3.3721   10.5372   -4.4922 C   0  0  0  0  0  0  0  0  0  0  0  0
   -4.4740   11.3524   -4.7276 C   0  0  0  0  0  0  0  0  0  0  0  0
   -4.8154   11.6943   -6.0216 C   0  0  0  0  0  0  0  0  0  0  0  0
   -4.0723   11.2372   -7.1030 C   0  0  0  0  0  0  0  0  0  0  0  0
   -4.4247   11.6423   -8.5004 C   0  0  0  0  0  0  0  0  0  0  0  0
   -2.9797   10.4134   -6.8540 C   0  0  0  0  0  0  0  0  0  0  0  0
   -2.6304   10.0567   -5.5676 C   0  0  0  0  0  0  0  0  0  0  0  0
   -1.2713    9.1733   -1.7912 C   0  0  0  0  0  0  0  0  0  0  0  0
   -2.0111    7.9219   -0.8480 S   0  0  0  0  0  0  0  0  0  0  0  0
   -0.4457    7.4618   -0.1973 C   0  0  0  0  0  0  0  0  0  0  0  0
    0.6025    8.1943   -0.7436 C   0  0  0  0  0  0  0  0  0  0  0  0
    1.9457    7.9474   -0.5573 N   0  0  0  0  0  0  0  0  0  0  0  0
    2.4303    6.6455   -0.3582 C   0  0  0  0  0  0  0  0  0  0  0  0
    1.8397    5.5451   -0.9733 C   0  0  0  0  0  0  0  0  0  0  0  0
    2.2749    4.2684   -0.6780 C   0  0  0  0  0  0  0  0  0  0  0  0
    3.3153    4.0512    0.2163 C   0  0  0  0  0  0  0  0  0  0  0  0
    3.7308    2.6626    0.5955 C   0  0  0  0  0  0  0  0  0  0  0  0
    3.9513    5.1599    0.7627 C   0  0  0  0  0  0  0  0  0  0  0  0
    3.5238    6.4414    0.4785 C   0  0  0  0  0  0  0  0  0  0  0  0
    2.8623    8.9833   -0.8312 C   0  0  0  0  0  0  0  0  0  0  0  0
    2.6996   10.2381   -0.2526 C   0  0  0  0  0  0  0  0  0  0  0  0
    3.5517   11.2711   -0.5951 C   0  0  0  0  0  0  0  0  0  0  0  0
    4.5773   11.0802   -1.5125 C   0  0  0  0  0  0  0  0  0  0  0  0
    5.4833   12.2069   -1.9026 C   0  0  0  0  0  0  0  0  0  0  0  0
    4.7548    9.8118   -2.0543 C   0  0  0  0  0  0  0  0  0  0  0  0
    3.9122    8.7715   -1.7200 C   0  0  0  0  0  0  0  0  0  0  0  0
    0.1033    9.1967   -1.6052 C   0  0  0  0  0  0  0  0  0  0  0  0
    0.8722   10.3996   -2.5663 S   0  0  0  0  0  0  0  0  0  0  0  0
   -0.3127    6.3964    0.7484 C   0  0  0  0  0  0  0  0  0  0  0  0
    0.4870    6.3914    1.8750 C   0  0  0  0  0  0  0  0  0  0  0  0
    1.0709    7.5952    2.4619 C   0  0  0  0  0  0  0  0  0  0  0  0
    0.3914    8.8119    2.4139 C   0  0  0  0  0  0  0  0  0  0  0  0
    0.9572    9.9433    2.9679 C   0  0  0  0  0  0  0  0  0  0  0  0
    2.1998    9.8800    3.5761 C   0  0  0  0  0  0  0  0  0  0  0  0
    2.8817    8.6735    3.6529 C   0  0  0  0  0  0  0  0  0  0  0  0
    4.2035    8.5694    4.3574 C   0  0  0  0  0  0  0  0  0  0  0  0
    4.0131    8.0129    5.7696 C   0  0  0  0  0  0  0  0  0  0  0  0
    2.3038    7.5395    3.1023 C   0  0  0  0  0  0  0  0  0  0  0  0
    0.6193    5.0851    2.3949 C   0  0  0  0  0  0  0  0  0  0  0  0
    1.5421    4.4172    3.7186 S   0  0  0  0  0  0  0  0  0  0  0  0
    0.9725    2.8381    3.2968 C   0  0  0  0  0  0  0  0  0  0  0  0
    1.1743    1.4977    3.6663 C   0  0  0  0  0  0  0  0  0  0  0  0
    2.0470    0.9211    4.6135 C   0  0  0  0  0  0  0  0  0  0  0  0
    2.1552   -0.5082    4.6753 C   0  0  0  0  0  0  0  0  0  0  0  0
    3.0503   -0.9102    5.5643 N   0  0  0  0  0  0  0  0  0  0  0  0
    3.6967    0.3975    6.2678 S   0  0  0  0  0  0  0  0  0  0  0  0
    2.8628    1.5282    5.4614 N   0  0  0  0  0  0  0  0  0  0  0  0
    1.3162   -1.2919    3.8550 C   0  0  0  0  0  0  0  0  0  0  0  0
    1.1659   -2.6854    3.7521 C   0  0  0  0  0  0  0  0  0  0  0  0
    1.8878   -4.1387    4.3574 S   0  0  0  0  0  0  0  0  0  0  0  0
    0.7953   -5.0723    3.3624 C   0  0  0  0  0  0  0  0  0  0  0  0
    0.7477   -6.4473    3.0350 C   0  0  0  0  0  0  0  0  0  0  0  0
    1.6255   -7.4375    3.6604 C   0  0  0  0  0  0  0  0  0  0  0  0
    2.2534   -8.4490    2.9390 C   0  0  0  0  0  0  0  0  0  0  0  0
    3.0855   -9.3444    3.5825 C   0  0  0  0  0  0  0  0  0  0  0  0
    3.3092   -9.2405    4.9442 C   0  0  0  0  0  0  0  0  0  0  0  0
    2.6977   -8.2351    5.6810 C   0  0  0  0  0  0  0  0  0  0  0  0
    2.9745   -8.0659    7.1469 C   0  0  0  0  0  0  0  0  0  0  0  0
    4.0534   -7.0023    7.3607 C   0  0  0  0  0  0  0  0  0  0  0  0
    1.8600   -7.3439    5.0290 C   0  0  0  0  0  0  0  0  0  0  0  0
   -0.1743   -6.6845    2.0378 C   0  0  0  0  0  0  0  0  0  0  0  0
   -1.0788   -5.2395    1.5962 S   0  0  0  0  0  0  0  0  0  0  0  0
   -0.0881   -4.2815    2.6327 C   0  0  0  0  0  0  0  0  0  0  0  0
    0.1251   -2.9147    2.8529 C   0  0  0  0  0  0  0  0  0  0  0  0
   -0.3597   -1.7275    2.3765 N   0  0  0  0  0  0  0  0  0  0  0  0
    0.3711   -0.7065    2.9657 C   0  0  0  0  0  0  0  0  0  0  0  0
    0.3754    0.7037    2.7965 C   0  0  0  0  0  0  0  0  0  0  0  0
   -0.2710    1.5502    1.9085 N   0  0  0  0  0  0  0  0  0  0  0  0
    0.0999    2.8334    2.2092 C   0  0  0  0  0  0  0  0  0  0  0  0
   -0.1022    4.1206    1.6927 C   0  0  0  0  0  0  0  0  0  0  0  0
   -0.9882    4.8168    0.3846 S   0  0  0  0  0  0  0  0  0  0  0  0
   -0.8534    1.2654    0.6166 C   0  0  0  0  0  0  0  0  0  0  0  0
    0.1398    0.5501   -0.2956 C   0  0  0  0  0  0  0  0  0  0  0  0
   -1.6510   -1.7002    1.7275 C   0  0  0  0  0  0  0  0  0  0  0  0
   -2.7055   -1.0309    2.6054 C   0  0  0  0  0  0  0  0  0  0  0  0
   -0.4220   -7.8808    1.2920 C   0  0  0  0  0  0  0  0  0  0  0  0
   -0.4692   -7.9868   -0.0914 C   0  0  0  0  0  0  0  0  0  0  0  0
   -0.2581   -6.9799   -1.0150 N   0  0  0  0  0  0  0  0  0  0  0  0
    0.5853   -5.8892   -0.7742 C   0  0  0  0  0  0  0  0  0  0  0  0
    1.7500   -6.0222   -0.0214 C   0  0  0  0  0  0  0  0  0  0  0  0
    2.5000   -4.9109    0.3056 C   0  0  0  0  0  0  0  0  0  0  0  0
    2.1338   -3.6426   -0.1297 C   0  0  0  0  0  0  0  0  0  0  0  0
    2.9266   -2.4392    0.2803 C   0  0  0  0  0  0  0  0  0  0  0  0
    1.0114   -3.5271   -0.9407 C   0  0  0  0  0  0  0  0  0  0  0  0
    0.2429   -4.6286   -1.2606 C   0  0  0  0  0  0  0  0  0  0  0  0
   -0.8770   -7.1099   -2.2766 C   0  0  0  0  0  0  0  0  0  0  0  0
   -0.1380   -6.9379   -3.4425 C   0  0  0  0  0  0  0  0  0  0  0  0
   -0.7280   -7.1543   -4.6714 C   0  0  0  0  0  0  0  0  0  0  0  0
   -2.0590   -7.5447   -4.7729 C   0  0  0  0  0  0  0  0  0  0  0  0
   -2.6658   -7.8562   -6.1040 C   0  0  0  0  0  0  0  0  0  0  0  0
   -2.8000   -7.6693   -3.6043 C   0  0  0  0  0  0  0  0  0  0  0  0
   -2.2231   -7.4513   -2.3683 C   0  0  0  0  0  0  0  0  0  0  0  0
   -0.7407   -9.3234   -0.4746 C   0  0  0  0  0  0  0  0  0  0  0  0
   -0.8773  -10.0991   -2.0065 S   0  0  0  0  0  0  0  0  0  0  0  0
   -1.1618  -11.6502   -1.2207 C   0  0  0  0  0  0  0  0  0  0  0  0
   -1.0730  -11.5557    0.1801 C   0  0  0  0  0  0  0  0  0  0  0  0
   -1.1748  -12.6071    1.0541 N   0  0  0  0  0  0  0  0  0  0  0  0
   -1.7269  -12.3975    2.3294 C   0  0  0  0  0  0  0  0  0  0  0  0
   -1.1595  -12.9937    3.4517 C   0  0  0  0  0  0  0  0  0  0  0  0
   -1.7138  -12.7863    4.6985 C   0  0  0  0  0  0  0  0  0  0  0  0
   -2.8363  -11.9827    4.8623 C   0  0  0  0  0  0  0  0  0  0  0  0
   -3.4138  -11.7398    6.2225 C   0  0  0  0  0  0  0  0  0  0  0  0
   -3.3977  -11.3951    3.7354 C   0  0  0  0  0  0  0  0  0  0  0  0
   -2.8580  -11.5998    2.4814 C   0  0  0  0  0  0  0  0  0  0  0  0
   -0.6595  -13.8757    0.7278 C   0  0  0  0  0  0  0  0  0  0  0  0
    0.5559  -13.9947    0.0592 C   0  0  0  0  0  0  0  0  0  0  0  0
    1.0418  -15.2428   -0.2737 C   0  0  0  0  0  0  0  0  0  0  0  0
    0.3427  -16.3975    0.0584 C   0  0  0  0  0  0  0  0  0  0  0  0
    0.8530  -17.7463   -0.3418 C   0  0  0  0  0  0  0  0  0  0  0  0
   -0.8573  -16.2683    0.7479 C   0  0  0  0  0  0  0  0  0  0  0  0
   -1.3587  -15.0258    1.0812 C   0  0  0  0  0  0  0  0  0  0  0  0
   -0.8704  -10.2155    0.5793 C   0  0  0  0  0  0  0  0  0  0  0  0
   -0.6755   -9.4209    2.1079 S   0  0  0  0  0  0  0  0  0  0  0  0
   -1.5250  -12.7649   -1.9875 C   0  0  0  0  0  0  0  0  0  0  0  0
   -1.7748  -12.7910   -3.3274 C   0  0  0  0  0  0  0  0  0  0  0  0
   -1.7126  -11.4422   -4.4398 S   0  0  0  0  0  0  0  0  0  0  0  0
   -2.2360  -12.4601   -5.7749 C   0  0  0  0  0  0  0  0  0  0  0  0
   -2.4618  -11.9039   -7.2948 S   0  0  0  0  0  0  0  0  0  0  0  0
   -2.4109  -13.7368   -5.3617 N   0  0  0  0  0  0  0  0  0  0  0  0
   -2.8601  -14.7852   -6.2554 C   0  0  0  0  0  0  0  0  0  0  0  0
   -4.3754  -14.7661   -6.4130 C   0  0  0  0  0  0  0  0  0  0  0  0
   -2.1793  -14.0042   -4.0168 C   0  0  0  0  0  0  0  0  0  0  0  0
   -2.3002  -15.1089   -3.5281 O   0  0  0  0  0  0  0  0  0  0  0  0
   -1.7836   12.4386   -4.1717 H   0  0  0  0  0  0  0  0  0  0  0  0
    0.9841   16.9070   -5.1529 H   0  0  0  0  0  0  0  0  0  0  0  0
    3.4123   17.4724   -5.1571 H   0  0  0  0  0  0  0  0  0  0  0  0
    4.4262   13.3370   -4.7310 H   0  0  0  0  0  0  0  0  0  0  0  0
   -3.2193   10.8644   -0.6182 H   0  0  0  0  0  0  0  0  0  0  0  0
   -5.0202   10.2360    0.9299 H   0  0  0  0  0  0  0  0  0  0  0  0
   -8.1211    8.4622   -0.1058 H   0  0  0  0  0  0  0  0  0  0  0  0
   -6.8969    7.8721    1.0182 H   0  0  0  0  0  0  0  0  0  0  0  0
   -7.4354    9.5455    1.1153 H   0  0  0  0  0  0  0  0  0  0  0  0
   -6.9786    8.1098   -2.2069 H   0  0  0  0  0  0  0  0  0  0  0  0
   -5.1699    8.7185   -3.7541 H   0  0  0  0  0  0  0  0  0  0  0  0
   -5.0536   11.7209   -3.8938 H   0  0  0  0  0  0  0  0  0  0  0  0
   -5.6685   12.3344   -6.1921 H   0  0  0  0  0  0  0  0  0  0  0  0
   -5.4946   11.8104   -8.5991 H   0  0  0  0  0  0  0  0  0  0  0  0
   -4.1163   10.8828   -9.2147 H   0  0  0  0  0  0  0  0  0  0  0  0
   -3.9133   12.5714   -8.7543 H   0  0  0  0  0  0  0  0  0  0  0  0
   -2.3937   10.0375   -7.6794 H   0  0  0  0  0  0  0  0  0  0  0  0
   -1.7783    9.4159   -5.3979 H   0  0  0  0  0  0  0  0  0  0  0  0
    1.0383    5.6924   -1.6825 H   0  0  0  0  0  0  0  0  0  0  0  0
    1.7932    3.4272   -1.1566 H   0  0  0  0  0  0  0  0  0  0  0  0
    3.1647    2.3285    1.4670 H   0  0  0  0  0  0  0  0  0  0  0  0
    3.5466    1.9627   -0.2171 H   0  0  0  0  0  0  0  0  0  0  0  0
    4.7865    2.6303    0.8536 H   0  0  0  0  0  0  0  0  0  0  0  0
    4.7844    5.0152    1.4352 H   0  0  0  0  0  0  0  0  0  0  0  0
    4.0181    7.2970    0.9138 H   0  0  0  0  0  0  0  0  0  0  0  0
    1.9000   10.3956    0.4564 H   0  0  0  0  0  0  0  0  0  0  0  0
    3.4087   12.2450   -0.1494 H   0  0  0  0  0  0  0  0  0  0  0  0
    5.8870   12.0418   -2.8986 H   0  0  0  0  0  0  0  0  0  0  0  0
    6.3201   12.2748   -1.2065 H   0  0  0  0  0  0  0  0  0  0  0  0
    4.9527   13.1567   -1.8840 H   0  0  0  0  0  0  0  0  0  0  0  0
    5.5457    9.6451   -2.7700 H   0  0  0  0  0  0  0  0  0  0  0  0
    4.0442    7.7955   -2.1635 H   0  0  0  0  0  0  0  0  0  0  0  0
   -0.5863    8.8643    1.9581 H   0  0  0  0  0  0  0  0  0  0  0  0
    0.4244   10.8829    2.9290 H   0  0  0  0  0  0  0  0  0  0  0  0
    2.6386   10.7723    3.9989 H   0  0  0  0  0  0  0  0  0  0  0  0
    4.8667    7.9056    3.7985 H   0  0  0  0  0  0  0  0  0  0  0  0
    4.6729    9.5534    4.4140 H   0  0  0  0  0  0  0  0  0  0  0  0
    3.5589    7.0256    5.7289 H   0  0  0  0  0  0  0  0  0  0  0  0
    4.9705    7.9351    6.2795 H   0  0  0  0  0  0  0  0  0  0  0  0
    3.3633    8.6655    6.3484 H   0  0  0  0  0  0  0  0  0  0  0  0
    2.8318    6.6000    3.1557 H   0  0  0  0  0  0  0  0  0  0  0  0
    2.1055   -8.5295    1.8733 H   0  0  0  0  0  0  0  0  0  0  0  0
    3.5692  -10.1265    3.0155 H   0  0  0  0  0  0  0  0  0  0  0  0
    3.9651   -9.9432    5.4376 H   0  0  0  0  0  0  0  0  0  0  0  0
    3.3077   -9.0132    7.5753 H   0  0  0  0  0  0  0  0  0  0  0  0
    2.0618   -7.7590    7.6619 H   0  0  0  0  0  0  0  0  0  0  0  0
    3.7342   -6.0503    6.9427 H   0  0  0  0  0  0  0  0  0  0  0  0
    4.2514   -6.8687    8.4216 H   0  0  0  0  0  0  0  0  0  0  0  0
    4.9776   -7.2982    6.8692 H   0  0  0  0  0  0  0  0  0  0  0  0
    1.3691   -6.5681    5.5984 H   0  0  0  0  0  0  0  0  0  0  0  0
   -1.1169    2.2303    0.1763 H   0  0  0  0  0  0  0  0  0  0  0  0
   -1.7795    0.7001    0.7261 H   0  0  0  0  0  0  0  0  0  0  0  0
    0.4715   -0.3874    0.1438 H   0  0  0  0  0  0  0  0  0  0  0  0
   -0.3203    0.3485   -1.2597 H   0  0  0  0  0  0  0  0  0  0  0  0
    1.0134    1.1790   -0.4509 H   0  0  0  0  0  0  0  0  0  0  0  0
   -1.5840   -1.2256    0.7483 H   0  0  0  0  0  0  0  0  0  0  0  0
   -1.9307   -2.7427    1.5563 H   0  0  0  0  0  0  0  0  0  0  0  0
   -2.8218   -1.5857    3.5336 H   0  0  0  0  0  0  0  0  0  0  0  0
   -3.6619   -1.0145    2.0895 H   0  0  0  0  0  0  0  0  0  0  0  0
   -2.4213   -0.0111    2.8542 H   0  0  0  0  0  0  0  0  0  0  0  0
    2.0627   -6.9995    0.3109 H   0  0  0  0  0  0  0  0  0  0  0  0
    3.3852   -5.0315    0.9133 H   0  0  0  0  0  0  0  0  0  0  0  0
    3.9909   -2.6642    0.2900 H   0  0  0  0  0  0  0  0  0  0  0  0
    2.7500   -1.6056   -0.3956 H   0  0  0  0  0  0  0  0  0  0  0  0
    2.6463   -2.1293    1.2886 H   0  0  0  0  0  0  0  0  0  0  0  0
    0.7224   -2.5562   -1.3178 H   0  0  0  0  0  0  0  0  0  0  0  0
   -0.6437   -4.5192   -1.8675 H   0  0  0  0  0  0  0  0  0  0  0  0
    0.9021   -6.6535   -3.3743 H   0  0  0  0  0  0  0  0  0  0  0  0
   -0.1389   -7.0392   -5.5694 H   0  0  0  0  0  0  0  0  0  0  0  0
   -2.2210   -7.2494   -6.8890 H   0  0  0  0  0  0  0  0  0  0  0  0
   -3.7407   -7.6923   -6.0929 H   0  0  0  0  0  0  0  0  0  0  0  0
   -2.4887   -8.9038   -6.3512 H   0  0  0  0  0  0  0  0  0  0  0  0
   -3.8413   -7.9511   -3.6613 H   0  0  0  0  0  0  0  0  0  0  0  0
   -2.8067   -7.5587   -1.4648 H   0  0  0  0  0  0  0  0  0  0  0  0
   -0.2831  -13.6146    3.3393 H   0  0  0  0  0  0  0  0  0  0  0  0
   -1.2620  -13.2521    5.5622 H   0  0  0  0  0  0  0  0  0  0  0  0
   -3.2469  -12.5944    6.8739 H   0  0  0  0  0  0  0  0  0  0  0  0
   -2.9366  -10.8711    6.6775 H   0  0  0  0  0  0  0  0  0  0  0  0
   -4.4817  -11.5436    6.1618 H   0  0  0  0  0  0  0  0  0  0  0  0
   -4.2757  -10.7743    3.8388 H   0  0  0  0  0  0  0  0  0  0  0  0
   -3.3156  -11.1516    1.6115 H   0  0  0  0  0  0  0  0  0  0  0  0
    1.1101  -13.1052   -0.2021 H   0  0  0  0  0  0  0  0  0  0  0  0
    1.9831  -15.3217   -0.7978 H   0  0  0  0  0  0  0  0  0  0  0  0
    0.5822  -18.4994    0.3946 H   0  0  0  0  0  0  0  0  0  0  0  0
    0.4116  -18.0351   -1.2962 H   0  0  0  0  0  0  0  0  0  0  0  0
    1.9340  -17.7358   -0.4590 H   0  0  0  0  0  0  0  0  0  0  0  0
   -1.4143  -17.1535    1.0172 H   0  0  0  0  0  0  0  0  0  0  0  0
   -2.2978  -14.9366    1.6072 H   0  0  0  0  0  0  0  0  0  0  0  0
   -1.6656  -13.7111   -1.4801 H   0  0  0  0  0  0  0  0  0  0  0  0
   -2.5343  -15.7283   -5.8100 H   0  0  0  0  0  0  0  0  0  0  0  0
   -2.3747  -14.6376   -7.2232 H   0  0  0  0  0  0  0  0  0  0  0  0
   -4.8554  -14.9009   -5.4465 H   0  0  0  0  0  0  0  0  0  0  0  0
   -4.6828  -15.5717   -7.0733 H   0  0  0  0  0  0  0  0  0  0  0  0
   -4.6973  -13.8203   -6.8424 H   0  0  0  0  0  0  0  0  0  0  0  0
  1  2  2  0  0  0  0
  2  3  1  0  0  0  0
  3  4  2  0  0  0  0
  3  5  1  0  0  0  0
  5  6  2  0  0  0  0
  6  7  1  0  0  0  0
  7  8  2  0  0  0  0
  8  9  1  0  0  0  0
  8 10  1  0  0  0  0
 10 11  2  0  0  0  0
 11 12  1  0  0  0  0
 12 13  2  0  0  0  0
 13 14  1  0  0  0  0
 14 15  3  0  0  0  0
 13 16  1  0  0  0  0
 16 17  3  0  0  0  0
  1 18  1  0  0  0  0
 18 19  2  0  0  0  0
 19 20  1  0  0  0  0
 20 21  1  0  0  0  0
 21 22  2  0  0  0  0
 22 23  1  0  0  0  0
 23 24  2  0  0  0  0
 24 25  1  0  0  0  0
 24 26  1  0  0  0  0
 26 27  2  0  0  0  0
 20 28  1  0  0  0  0
 28 29  2  0  0  0  0
 29 30  1  0  0  0  0
 30 31  2  0  0  0  0
 31 32  1  0  0  0  0
 31 33  1  0  0  0  0
 33 34  2  0  0  0  0
 19 35  1  0  0  0  0
 35 36  1  0  0  0  0
 36 37  1  0  0  0  0
 37 38  2  0  0  0  0
 38 39  1  0  0  0  0
 39 40  1  0  0  0  0
 40 41  2  0  0  0  0
 41 42  1  0  0  0  0
 42 43  2  0  0  0  0
 43 44  1  0  0  0  0
 43 45  1  0  0  0  0
 45 46  2  0  0  0  0
 39 47  1  0  0  0  0
 47 48  2  0  0  0  0
 48 49  1  0  0  0  0
 49 50  2  0  0  0  0
 50 51  1  0  0  0  0
 50 52  1  0  0  0  0
 52 53  2  0  0  0  0
 38 54  1  0  0  0  0
 54 55  1  0  0  0  0
 37 56  1  0  0  0  0
 56 57  2  0  0  0  0
 57 58  1  0  0  0  0
 58 59  2  0  0  0  0
 59 60  1  0  0  0  0
 60 61  2  0  0  0  0
 61 62  1  0  0  0  0
 62 63  1  0  0  0  0
 63 64  1  0  0  0  0
 62 65  2  0  0  0  0
 57 66  1  0  0  0  0
 66 67  1  0  0  0  0
 67 68  1  0  0  0  0
 68 69  1  0  0  0  0
 69 70  1  0  0  0  0
 70 71  1  0  0  0  0
 71 72  2  0  0  0  0
 72 73  1  0  0  0  0
 73 74  1  0  0  0  0
 71 75  1  0  0  0  0
 75 76  1  0  0  0  0
 76 77  1  0  0  0  0
 77 78  1  0  0  0  0
 78 79  1  0  0  0  0
 79 80  1  0  0  0  0
 80 81  2  0  0  0  0
 81 82  1  0  0  0  0
 82 83  2  0  0  0  0
 83 84  1  0  0  0  0
 84 85  1  0  0  0  0
 85 86  1  0  0  0  0
 84 87  2  0  0  0  0
 79 88  2  0  0  0  0
 88 89  1  0  0  0  0
 89 90  1  0  0  0  0
 90 91  1  0  0  0  0
 91 92  1  0  0  0  0
 92 93  1  0  0  0  0
 93 94  1  0  0  0  0
 94 95  1  0  0  0  0
 95 96  1  0  0  0  0
 96 97  1  0  0  0  0
 97 98  1  0  0  0  0
 95 99  1  0  0  0  0
 99100  1  0  0  0  0
 92101  1  0  0  0  0
101102  1  0  0  0  0
 88103  1  0  0  0  0
103104  2  0  0  0  0
104105  1  0  0  0  0
105106  1  0  0  0  0
106107  2  0  0  0  0
107108  1  0  0  0  0
108109  2  0  0  0  0
109110  1  0  0  0  0
109111  1  0  0  0  0
111112  2  0  0  0  0
105113  1  0  0  0  0
113114  2  0  0  0  0
114115  1  0  0  0  0
115116  2  0  0  0  0
116117  1  0  0  0  0
116118  1  0  0  0  0
118119  2  0  0  0  0
104120  1  0  0  0  0
120121  1  0  0  0  0
121122  1  0  0  0  0
122123  2  0  0  0  0
123124  1  0  0  0  0
124125  1  0  0  0  0
125126  2  0  0  0  0
126127  1  0  0  0  0
127128  2  0  0  0  0
128129  1  0  0  0  0
128130  1  0  0  0  0
130131  2  0  0  0  0
124132  1  0  0  0  0
132133  2  0  0  0  0
133134  1  0  0  0  0
134135  2  0  0  0  0
135136  1  0  0  0  0
135137  1  0  0  0  0
137138  2  0  0  0  0
123139  1  0  0  0  0
139140  1  0  0  0  0
122141  1  0  0  0  0
141142  2  0  0  0  0
142143  1  0  0  0  0
143144  1  0  0  0  0
144145  2  0  0  0  0
144146  1  0  0  0  0
146147  1  0  0  0  0
147148  1  0  0  0  0
146149  1  0  0  0  0
149150  2  0  0  0  0
 12  2  1  0  0  0  0
 55 18  1  0  0  0  0
 98 56  1  0  0  0  0
140103  1  0  0  0  0
149142  1  0  0  0  0
 11  5  1  0  0  0  0
 27 21  1  0  0  0  0
 34 28  1  0  0  0  0
 54 35  2  0  0  0  0
 65 58  1  0  0  0  0
 97 66  2  0  0  0  0
112106  1  0  0  0  0
119113  1  0  0  0  0
139120  2  0  0  0  0
 46 40  1  0  0  0  0
 53 47  1  0  0  0  0
 96 68  2  0  0  0  0
131125  1  0  0  0  0
138132  1  0  0  0  0
 94 69  2  0  0  0  0
 74 70  2  0  0  0  0
 93 75  2  0  0  0  0
 91 76  2  0  0  0  0
 90 78  2  0  0  0  0
 87 80  1  0  0  0  0
  1151  1  0  0  0  0
  6152  1  0  0  0  0
  7153  1  0  0  0  0
 10154  1  0  0  0  0
 22155  1  0  0  0  0
 23156  1  0  0  0  0
 25157  1  0  0  0  0
 25158  1  0  0  0  0
 25159  1  0  0  0  0
 26160  1  0  0  0  0
 27161  1  0  0  0  0
 29162  1  0  0  0  0
 30163  1  0  0  0  0
 32164  1  0  0  0  0
 32165  1  0  0  0  0
 32166  1  0  0  0  0
 33167  1  0  0  0  0
 34168  1  0  0  0  0
 41169  1  0  0  0  0
 42170  1  0  0  0  0
 44171  1  0  0  0  0
 44172  1  0  0  0  0
 44173  1  0  0  0  0
 45174  1  0  0  0  0
 46175  1  0  0  0  0
 48176  1  0  0  0  0
 49177  1  0  0  0  0
 51178  1  0  0  0  0
 51179  1  0  0  0  0
 51180  1  0  0  0  0
 52181  1  0  0  0  0
 53182  1  0  0  0  0
 59183  1  0  0  0  0
 60184  1  0  0  0  0
 61185  1  0  0  0  0
 63186  1  0  0  0  0
 63187  1  0  0  0  0
 64188  1  0  0  0  0
 64189  1  0  0  0  0
 64190  1  0  0  0  0
 65191  1  0  0  0  0
 81192  1  0  0  0  0
 82193  1  0  0  0  0
 83194  1  0  0  0  0
 85195  1  0  0  0  0
 85196  1  0  0  0  0
 86197  1  0  0  0  0
 86198  1  0  0  0  0
 86199  1  0  0  0  0
 87200  1  0  0  0  0
 99201  1  0  0  0  0
 99202  1  0  0  0  0
100203  1  0  0  0  0
100204  1  0  0  0  0
100205  1  0  0  0  0
101206  1  0  0  0  0
101207  1  0  0  0  0
102208  1  0  0  0  0
102209  1  0  0  0  0
102210  1  0  0  0  0
107211  1  0  0  0  0
108212  1  0  0  0  0
110213  1  0  0  0  0
110214  1  0  0  0  0
110215  1  0  0  0  0
111216  1  0  0  0  0
112217  1  0  0  0  0
114218  1  0  0  0  0
115219  1  0  0  0  0
117220  1  0  0  0  0
117221  1  0  0  0  0
117222  1  0  0  0  0
118223  1  0  0  0  0
119224  1  0  0  0  0
126225  1  0  0  0  0
127226  1  0  0  0  0
129227  1  0  0  0  0
129228  1  0  0  0  0
129229  1  0  0  0  0
130230  1  0  0  0  0
131231  1  0  0  0  0
133232  1  0  0  0  0
134233  1  0  0  0  0
136234  1  0  0  0  0
136235  1  0  0  0  0
136236  1  0  0  0  0
137237  1  0  0  0  0
138238  1  0  0  0  0
141239  1  0  0  0  0
147240  1  0  0  0  0
147241  1  0  0  0  0
148242  1  0  0  0  0
148243  1  0  0  0  0
148244  1  0  0  0  0
M  END
