
  xtb     02092207133D
 energy: -354.927018508358 gnorm: 0.000538869411 xtb: 6.4.1 (unknown)
209231  0     0  0            999 V2000
   -5.1936   -3.1223   -8.8858 C   0  0  0  0  0  0  0  0  0  0  0  0
   -6.4156   -3.2237   -9.5267 C   0  0  0  0  0  0  0  0  0  0  0  0
   -7.3837   -2.1226   -9.6170 C   0  0  0  0  0  0  0  0  0  0  0  0
   -7.2897   -1.0089   -9.1339 O   0  0  0  0  0  0  0  0  0  0  0  0
   -8.4448   -2.6058  -10.5298 C   0  0  0  0  0  0  0  0  0  0  0  0
   -9.5837   -1.9588  -10.9621 C   0  0  0  0  0  0  0  0  0  0  0  0
  -10.4473   -2.6321  -11.8145 C   0  0  0  0  0  0  0  0  0  0  0  0
  -10.1468   -3.9249  -12.2196 C   0  0  0  0  0  0  0  0  0  0  0  0
  -11.2308   -4.7454  -13.2819 Cl  0  0  0  0  0  0  0  0  0  0  0  0
   -8.9963   -4.5863  -11.7983 C   0  0  0  0  0  0  0  0  0  0  0  0
   -8.1435   -3.9141  -10.9432 C   0  0  0  0  0  0  0  0  0  0  0  0
   -6.8892   -4.3245  -10.3096 C   0  0  0  0  0  0  0  0  0  0  0  0
   -6.3577   -5.5924  -10.3243 C   0  0  0  0  0  0  0  0  0  0  0  0
   -6.9274   -6.6801  -11.0094 C   0  0  0  0  0  0  0  0  0  0  0  0
   -7.3547   -7.6099  -11.5328 N   0  0  0  0  0  0  0  0  0  0  0  0
   -5.2242   -5.9770   -9.5825 C   0  0  0  0  0  0  0  0  0  0  0  0
   -4.3260   -6.3668   -8.9809 N   0  0  0  0  0  0  0  0  0  0  0  0
   -4.8926   -2.2752   -7.8233 C   0  0  0  0  0  0  0  0  0  0  0  0
   -5.7167   -1.6557   -6.8545 C   0  0  0  0  0  0  0  0  0  0  0  0
   -7.0401   -1.8982   -6.6368 N   0  0  0  0  0  0  0  0  0  0  0  0
   -7.8170   -0.9238   -5.9729 C   0  0  0  0  0  0  0  0  0  0  0  0
   -7.7694    0.4073   -6.3726 C   0  0  0  0  0  0  0  0  0  0  0  0
   -8.5312    1.3504   -5.7111 C   0  0  0  0  0  0  0  0  0  0  0  0
   -9.3496    0.9926   -4.6473 C   0  0  0  0  0  0  0  0  0  0  0  0
  -10.1524    2.0188   -3.9111 C   0  0  0  0  0  0  0  0  0  0  0  0
   -9.3993   -0.3442   -4.2673 C   0  0  0  0  0  0  0  0  0  0  0  0
   -8.6447   -1.2981   -4.9195 C   0  0  0  0  0  0  0  0  0  0  0  0
   -7.6640   -3.1027   -6.9904 C   0  0  0  0  0  0  0  0  0  0  0  0
   -7.0153   -4.3275   -6.8360 C   0  0  0  0  0  0  0  0  0  0  0  0
   -7.6362   -5.4946   -7.2263 C   0  0  0  0  0  0  0  0  0  0  0  0
   -8.9153   -5.4824   -7.7794 C   0  0  0  0  0  0  0  0  0  0  0  0
   -9.5495   -6.7547   -8.2450 C   0  0  0  0  0  0  0  0  0  0  0  0
   -9.5719   -4.2641   -7.8868 C   0  0  0  0  0  0  0  0  0  0  0  0
   -8.9620   -3.0865   -7.4960 C   0  0  0  0  0  0  0  0  0  0  0  0
   -4.9434   -0.8291   -6.0078 C   0  0  0  0  0  0  0  0  0  0  0  0
   -5.3193    0.2008   -4.6653 S   0  0  0  0  0  0  0  0  0  0  0  0
   -3.6119    0.5500   -4.4262 C   0  0  0  0  0  0  0  0  0  0  0  0
   -2.8025   -0.0800   -5.3649 C   0  0  0  0  0  0  0  0  0  0  0  0
   -1.4257    0.0391   -5.4650 N   0  0  0  0  0  0  0  0  0  0  0  0
   -0.6974   -1.1024   -5.8450 C   0  0  0  0  0  0  0  0  0  0  0  0
    0.3349   -1.0159   -6.7731 C   0  0  0  0  0  0  0  0  0  0  0  0
    1.0192   -2.1537   -7.1538 C   0  0  0  0  0  0  0  0  0  0  0  0
    0.6914   -3.3988   -6.6322 C   0  0  0  0  0  0  0  0  0  0  0  0
    1.4068   -4.6394   -7.0693 C   0  0  0  0  0  0  0  0  0  0  0  0
   -0.3369   -3.4741   -5.6996 C   0  0  0  0  0  0  0  0  0  0  0  0
   -1.0217   -2.3440   -5.3032 C   0  0  0  0  0  0  0  0  0  0  0  0
   -0.7814    1.2621   -5.2602 C   0  0  0  0  0  0  0  0  0  0  0  0
    0.5059    1.2986   -4.7276 C   0  0  0  0  0  0  0  0  0  0  0  0
    1.1187    2.5094   -4.4703 C   0  0  0  0  0  0  0  0  0  0  0  0
    0.4710    3.7118   -4.7210 C   0  0  0  0  0  0  0  0  0  0  0  0
    1.1135    5.0259   -4.3979 C   0  0  0  0  0  0  0  0  0  0  0  0
   -0.8045    3.6680   -5.2738 C   0  0  0  0  0  0  0  0  0  0  0  0
   -1.4208    2.4658   -5.5507 C   0  0  0  0  0  0  0  0  0  0  0  0
   -3.5766   -0.8654   -6.2499 C   0  0  0  0  0  0  0  0  0  0  0  0
   -3.1779   -1.9156   -7.5567 S   0  0  0  0  0  0  0  0  0  0  0  0
   -3.2095    1.3168   -3.2947 C   0  0  0  0  0  0  0  0  0  0  0  0
   -3.9075    2.3126   -2.6350 C   0  0  0  0  0  0  0  0  0  0  0  0
   -5.1234    2.9723   -3.1112 C   0  0  0  0  0  0  0  0  0  0  0  0
   -5.2673    3.3455   -4.4454 C   0  0  0  0  0  0  0  0  0  0  0  0
   -6.3861    4.0454   -4.8500 C   0  0  0  0  0  0  0  0  0  0  0  0
   -7.3628    4.3955   -3.9332 C   0  0  0  0  0  0  0  0  0  0  0  0
   -7.2364    4.0343   -2.5990 C   0  0  0  0  0  0  0  0  0  0  0  0
   -8.2416    4.4725   -1.5728 C   0  0  0  0  0  0  0  0  0  0  0  0
   -7.7194    5.6960   -0.8162 C   0  0  0  0  0  0  0  0  0  0  0  0
   -6.1185    3.3160   -2.2031 C   0  0  0  0  0  0  0  0  0  0  0  0
   -3.2424    2.7058   -1.4551 C   0  0  0  0  0  0  0  0  0  0  0  0
   -3.6158    3.8886   -0.2231 S   0  0  0  0  0  0  0  0  0  0  0  0
   -2.1485    3.4715    0.5951 C   0  0  0  0  0  0  0  0  0  0  0  0
   -1.4805    3.7590    1.7971 C   0  0  0  0  0  0  0  0  0  0  0  0
   -1.8743    4.4974    2.9349 C   0  0  0  0  0  0  0  0  0  0  0  0
   -1.0853    4.4029    4.1335 C   0  0  0  0  0  0  0  0  0  0  0  0
   -1.6209    5.0695    5.1437 N   0  0  0  0  0  0  0  0  0  0  0  0
   -2.9915    5.7643    4.6326 S   0  0  0  0  0  0  0  0  0  0  0  0
   -2.9597    5.2361    3.1014 N   0  0  0  0  0  0  0  0  0  0  0  0
    0.1357    3.6949    4.0956 C   0  0  0  0  0  0  0  0  0  0  0  0
    1.1452    3.5028    5.0582 C   0  0  0  0  0  0  0  0  0  0  0  0
    1.4584    3.8403    6.7285 S   0  0  0  0  0  0  0  0  0  0  0  0
    3.0256    3.0851    6.5661 C   0  0  0  0  0  0  0  0  0  0  0  0
    4.0968    2.8858    7.4729 C   0  0  0  0  0  0  0  0  0  0  0  0
    4.0153    3.2398    8.8931 C   0  0  0  0  0  0  0  0  0  0  0  0
    5.0329    3.9400    9.5309 C   0  0  0  0  0  0  0  0  0  0  0  0
    4.9121    4.2607   10.8702 C   0  0  0  0  0  0  0  0  0  0  0  0
    3.7825    3.8922   11.5795 C   0  0  0  0  0  0  0  0  0  0  0  0
    2.7507    3.2040   10.9538 C   0  0  0  0  0  0  0  0  0  0  0  0
    1.5354    2.7721   11.7231 C   0  0  0  0  0  0  0  0  0  0  0  0
    1.7384    1.3701   12.3010 C   0  0  0  0  0  0  0  0  0  0  0  0
    2.8791    2.8818    9.6116 C   0  0  0  0  0  0  0  0  0  0  0  0
    5.1477    2.2592    6.8564 C   0  0  0  0  0  0  0  0  0  0  0  0
    4.8422    1.8926    5.1687 S   0  0  0  0  0  0  0  0  0  0  0  0
    3.2762    2.6119    5.2820 C   0  0  0  0  0  0  0  0  0  0  0  0
    2.1935    2.8401    4.4210 C   0  0  0  0  0  0  0  0  0  0  0  0
    1.8723    2.5856    3.1119 N   0  0  0  0  0  0  0  0  0  0  0  0
    0.5954    3.0815    2.8994 C   0  0  0  0  0  0  0  0  0  0  0  0
   -0.2879    2.9846    1.7946 C   0  0  0  0  0  0  0  0  0  0  0  0
   -0.2681    2.2116    0.6501 N   0  0  0  0  0  0  0  0  0  0  0  0
   -1.3972    2.4988   -0.0688 C   0  0  0  0  0  0  0  0  0  0  0  0
   -2.0354    2.0442   -1.2301 C   0  0  0  0  0  0  0  0  0  0  0  0
   -1.7290    0.8677   -2.4540 S   0  0  0  0  0  0  0  0  0  0  0  0
    0.5344    1.0588    0.3132 C   0  0  0  0  0  0  0  0  0  0  0  0
    1.4234    1.3191   -0.9038 C   0  0  0  0  0  0  0  0  0  0  0  0
    2.9502    2.4427    2.1571 C   0  0  0  0  0  0  0  0  0  0  0  0
    3.7552    3.7372    2.0394 C   0  0  0  0  0  0  0  0  0  0  0  0
    6.4032    1.7565    7.4026 C   0  0  0  0  0  0  0  0  0  0  0  0
    7.5056    2.5694    7.6748 C   0  0  0  0  0  0  0  0  0  0  0  0
    7.5329    3.9234    7.5226 N   0  0  0  0  0  0  0  0  0  0  0  0
    8.6592    4.4369    7.8217 C   0  0  0  0  0  0  0  0  0  0  0  0
    8.9897    5.8803    7.7539 C   0  0  0  0  0  0  0  0  0  0  0  0
    7.7466    6.7401    7.5577 C   0  0  0  0  0  0  0  0  0  0  0  0
    9.8928    3.2707    8.3474 S   0  0  0  0  0  0  0  0  0  0  0  0
    8.7237    2.0112    8.1320 C   0  0  0  0  0  0  0  0  0  0  0  0
    8.9319    0.6400    8.2843 C   0  0  0  0  0  0  0  0  0  0  0  0
    7.8154   -0.1753    8.0220 C   0  0  0  0  0  0  0  0  0  0  0  0
    6.5931    0.3948    7.5973 C   0  0  0  0  0  0  0  0  0  0  0  0
    5.4130   -0.8601    7.3781 S   0  0  0  0  0  0  0  0  0  0  0  0
    6.6338   -2.0275    7.8897 C   0  0  0  0  0  0  0  0  0  0  0  0
    6.2734   -3.4629    7.9947 C   0  0  0  0  0  0  0  0  0  0  0  0
    7.4944   -4.3748    7.9977 C   0  0  0  0  0  0  0  0  0  0  0  0
    7.7774   -1.5274    8.1707 N   0  0  0  0  0  0  0  0  0  0  0  0
   10.1973    0.1336    8.7277 C   0  0  0  0  0  0  0  0  0  0  0  0
   10.7886   -1.0502    8.4425 C   0  0  0  0  0  0  0  0  0  0  0  0
   11.9137   -1.5344    9.2941 C   0  0  0  0  0  0  0  0  0  0  0  0
   12.5353   -0.8927   10.1076 O   0  0  0  0  0  0  0  0  0  0  0  0
   12.0585   -2.9646    8.9582 C   0  0  0  0  0  0  0  0  0  0  0  0
   12.8793   -3.9156    9.5357 C   0  0  0  0  0  0  0  0  0  0  0  0
   12.8302   -5.2147    9.0569 C   0  0  0  0  0  0  0  0  0  0  0  0
   11.9664   -5.5364    8.0152 C   0  0  0  0  0  0  0  0  0  0  0  0
   11.9123   -7.1590    7.4408 Cl  0  0  0  0  0  0  0  0  0  0  0  0
   11.1419   -4.5883    7.4182 C   0  0  0  0  0  0  0  0  0  0  0  0
   11.1906   -3.2910    7.8991 C   0  0  0  0  0  0  0  0  0  0  0  0
   10.4885   -2.0819    7.4713 C   0  0  0  0  0  0  0  0  0  0  0  0
    9.8633   -1.9098    6.2676 C   0  0  0  0  0  0  0  0  0  0  0  0
    9.4334   -0.6633    5.7669 C   0  0  0  0  0  0  0  0  0  0  0  0
    9.1056    0.3222    5.2784 N   0  0  0  0  0  0  0  0  0  0  0  0
    9.6253   -2.9472    5.3431 C   0  0  0  0  0  0  0  0  0  0  0  0
    9.3736   -3.7548    4.5669 N   0  0  0  0  0  0  0  0  0  0  0  0
   -4.3692   -3.7203   -9.2556 H   0  0  0  0  0  0  0  0  0  0  0  0
   -9.7952   -0.9526  -10.6346 H   0  0  0  0  0  0  0  0  0  0  0  0
  -11.3511   -2.1598  -12.1661 H   0  0  0  0  0  0  0  0  0  0  0  0
   -8.7940   -5.5869  -12.1434 H   0  0  0  0  0  0  0  0  0  0  0  0
   -7.1586    0.6791   -7.2190 H   0  0  0  0  0  0  0  0  0  0  0  0
   -8.4929    2.3810   -6.0295 H   0  0  0  0  0  0  0  0  0  0  0  0
  -11.1266    1.6231   -3.6321 H   0  0  0  0  0  0  0  0  0  0  0  0
  -10.2915    2.9106   -4.5164 H   0  0  0  0  0  0  0  0  0  0  0  0
   -9.6296    2.3053   -2.9989 H   0  0  0  0  0  0  0  0  0  0  0  0
  -10.0353   -0.6410   -3.4459 H   0  0  0  0  0  0  0  0  0  0  0  0
   -8.6875   -2.3341   -4.6160 H   0  0  0  0  0  0  0  0  0  0  0  0
   -6.0222   -4.3616   -6.4136 H   0  0  0  0  0  0  0  0  0  0  0  0
   -7.1173   -6.4346   -7.1081 H   0  0  0  0  0  0  0  0  0  0  0  0
   -8.9901   -7.1724   -9.0822 H   0  0  0  0  0  0  0  0  0  0  0  0
  -10.5734   -6.5846   -8.5670 H   0  0  0  0  0  0  0  0  0  0  0  0
   -9.5489   -7.4963   -7.4477 H   0  0  0  0  0  0  0  0  0  0  0  0
  -10.5704   -4.2294   -8.2976 H   0  0  0  0  0  0  0  0  0  0  0  0
   -9.4810   -2.1448   -7.5930 H   0  0  0  0  0  0  0  0  0  0  0  0
    0.5905   -0.0564   -7.1981 H   0  0  0  0  0  0  0  0  0  0  0  0
    1.8147   -2.0723   -7.8804 H   0  0  0  0  0  0  0  0  0  0  0  0
    2.2997   -4.3960   -7.6393 H   0  0  0  0  0  0  0  0  0  0  0  0
    0.7522   -5.2439   -7.6970 H   0  0  0  0  0  0  0  0  0  0  0  0
    1.6914   -5.2431   -6.2092 H   0  0  0  0  0  0  0  0  0  0  0  0
   -0.6027   -4.4324   -5.2778 H   0  0  0  0  0  0  0  0  0  0  0  0
   -1.8125   -2.4136   -4.5700 H   0  0  0  0  0  0  0  0  0  0  0  0
    1.0137    0.3726   -4.5028 H   0  0  0  0  0  0  0  0  0  0  0  0
    2.1154    2.5163   -4.0524 H   0  0  0  0  0  0  0  0  0  0  0  0
    1.0394    5.7082   -5.2429 H   0  0  0  0  0  0  0  0  0  0  0  0
    2.1626    4.8949   -4.1447 H   0  0  0  0  0  0  0  0  0  0  0  0
    0.6099    5.4919   -3.5504 H   0  0  0  0  0  0  0  0  0  0  0  0
   -1.3205    4.5914   -5.4942 H   0  0  0  0  0  0  0  0  0  0  0  0
   -2.4030    2.4512   -5.9990 H   0  0  0  0  0  0  0  0  0  0  0  0
   -4.4893    3.1088   -5.1550 H   0  0  0  0  0  0  0  0  0  0  0  0
   -6.4877    4.3381   -5.8851 H   0  0  0  0  0  0  0  0  0  0  0  0
   -8.2251    4.9624   -4.2542 H   0  0  0  0  0  0  0  0  0  0  0  0
   -8.4220    3.6639   -0.8605 H   0  0  0  0  0  0  0  0  0  0  0  0
   -9.1878    4.7241   -2.0564 H   0  0  0  0  0  0  0  0  0  0  0  0
   -7.5439    6.5186   -1.5059 H   0  0  0  0  0  0  0  0  0  0  0  0
   -8.4405    6.0172   -0.0684 H   0  0  0  0  0  0  0  0  0  0  0  0
   -6.7813    5.4621   -0.3183 H   0  0  0  0  0  0  0  0  0  0  0  0
   -6.0198    3.0186   -1.1695 H   0  0  0  0  0  0  0  0  0  0  0  0
    5.8957    4.2527    8.9654 H   0  0  0  0  0  0  0  0  0  0  0  0
    5.7024    4.8083   11.3638 H   0  0  0  0  0  0  0  0  0  0  0  0
    3.6951    4.1494   12.6255 H   0  0  0  0  0  0  0  0  0  0  0  0
    0.6650    2.7680   11.0642 H   0  0  0  0  0  0  0  0  0  0  0  0
    1.3448    3.4733   12.5379 H   0  0  0  0  0  0  0  0  0  0  0  0
    2.5976    1.3562   12.9681 H   0  0  0  0  0  0  0  0  0  0  0  0
    0.8594    1.0574   12.8600 H   0  0  0  0  0  0  0  0  0  0  0  0
    1.9150    0.6536   11.5016 H   0  0  0  0  0  0  0  0  0  0  0  0
    2.0866    2.3387    9.1169 H   0  0  0  0  0  0  0  0  0  0  0  0
   -0.1496    0.2370    0.0716 H   0  0  0  0  0  0  0  0  0  0  0  0
    1.1132    0.7601    1.1881 H   0  0  0  0  0  0  0  0  0  0  0  0
    2.1010    0.4826   -1.0508 H   0  0  0  0  0  0  0  0  0  0  0  0
    2.0067    2.2300   -0.7864 H   0  0  0  0  0  0  0  0  0  0  0  0
    0.8134    1.4293   -1.7965 H   0  0  0  0  0  0  0  0  0  0  0  0
    3.6002    1.6327    2.5023 H   0  0  0  0  0  0  0  0  0  0  0  0
    2.5505    2.1913    1.1823 H   0  0  0  0  0  0  0  0  0  0  0  0
    3.1085    4.5548    1.7268 H   0  0  0  0  0  0  0  0  0  0  0  0
    4.5443    3.6113    1.3033 H   0  0  0  0  0  0  0  0  0  0  0  0
    4.2097    3.9982    2.9912 H   0  0  0  0  0  0  0  0  0  0  0  0
    9.6859    6.0330    6.9227 H   0  0  0  0  0  0  0  0  0  0  0  0
    9.5164    6.1654    8.6687 H   0  0  0  0  0  0  0  0  0  0  0  0
    7.0690    6.6265    8.3996 H   0  0  0  0  0  0  0  0  0  0  0  0
    8.0269    7.7865    7.4721 H   0  0  0  0  0  0  0  0  0  0  0  0
    7.2209    6.4379    6.6568 H   0  0  0  0  0  0  0  0  0  0  0  0
    5.6039   -3.7214    7.1709 H   0  0  0  0  0  0  0  0  0  0  0  0
    5.7090   -3.5972    8.9241 H   0  0  0  0  0  0  0  0  0  0  0  0
    8.1899   -4.0717    8.7756 H   0  0  0  0  0  0  0  0  0  0  0  0
    7.1895   -5.4025    8.1755 H   0  0  0  0  0  0  0  0  0  0  0  0
    8.0013   -4.3255    7.0382 H   0  0  0  0  0  0  0  0  0  0  0  0
   10.7391    0.7705    9.4220 H   0  0  0  0  0  0  0  0  0  0  0  0
   13.5421   -3.6413   10.3415 H   0  0  0  0  0  0  0  0  0  0  0  0
   13.4566   -5.9817    9.4841 H   0  0  0  0  0  0  0  0  0  0  0  0
   10.4881   -4.8780    6.6125 H   0  0  0  0  0  0  0  0  0  0  0  0
  1  2  2  0  0  0  0
  2  3  1  0  0  0  0
  3  4  2  0  0  0  0
  3  5  1  0  0  0  0
  5  6  2  0  0  0  0
  6  7  1  0  0  0  0
  7  8  2  0  0  0  0
  8  9  1  0  0  0  0
  8 10  1  0  0  0  0
 10 11  2  0  0  0  0
 11 12  1  0  0  0  0
 12 13  2  0  0  0  0
 13 14  1  0  0  0  0
 14 15  3  0  0  0  0
 13 16  1  0  0  0  0
 16 17  3  0  0  0  0
  1 18  1  0  0  0  0
 18 19  2  0  0  0  0
 19 20  1  0  0  0  0
 20 21  1  0  0  0  0
 21 22  2  0  0  0  0
 22 23  1  0  0  0  0
 23 24  2  0  0  0  0
 24 25  1  0  0  0  0
 24 26  1  0  0  0  0
 26 27  2  0  0  0  0
 20 28  1  0  0  0  0
 28 29  2  0  0  0  0
 29 30  1  0  0  0  0
 30 31  2  0  0  0  0
 31 32  1  0  0  0  0
 31 33  1  0  0  0  0
 33 34  2  0  0  0  0
 19 35  1  0  0  0  0
 35 36  1  0  0  0  0
 36 37  1  0  0  0  0
 37 38  2  0  0  0  0
 38 39  1  0  0  0  0
 39 40  1  0  0  0  0
 40 41  2  0  0  0  0
 41 42  1  0  0  0  0
 42 43  2  0  0  0  0
 43 44  1  0  0  0  0
 43 45  1  0  0  0  0
 45 46  2  0  0  0  0
 39 47  1  0  0  0  0
 47 48  2  0  0  0  0
 48 49  1  0  0  0  0
 49 50  2  0  0  0  0
 50 51  1  0  0  0  0
 50 52  1  0  0  0  0
 52 53  2  0  0  0  0
 38 54  1  0  0  0  0
 54 55  1  0  0  0  0
 37 56  1  0  0  0  0
 56 57  2  0  0  0  0
 57 58  1  0  0  0  0
 58 59  2  0  0  0  0
 59 60  1  0  0  0  0
 60 61  2  0  0  0  0
 61 62  1  0  0  0  0
 62 63  1  0  0  0  0
 63 64  1  0  0  0  0
 62 65  2  0  0  0  0
 57 66  1  0  0  0  0
 66 67  1  0  0  0  0
 67 68  1  0  0  0  0
 68 69  1  0  0  0  0
 69 70  1  0  0  0  0
 70 71  1  0  0  0  0
 71 72  2  0  0  0  0
 72 73  1  0  0  0  0
 73 74  1  0  0  0  0
 71 75  1  0  0  0  0
 75 76  1  0  0  0  0
 76 77  1  0  0  0  0
 77 78  1  0  0  0  0
 78 79  1  0  0  0  0
 79 80  1  0  0  0  0
 80 81  2  0  0  0  0
 81 82  1  0  0  0  0
 82 83  2  0  0  0  0
 83 84  1  0  0  0  0
 84 85  1  0  0  0  0
 85 86  1  0  0  0  0
 84 87  2  0  0  0  0
 79 88  2  0  0  0  0
 88 89  1  0  0  0  0
 89 90  1  0  0  0  0
 90 91  1  0  0  0  0
 91 92  1  0  0  0  0
 92 93  1  0  0  0  0
 93 94  1  0  0  0  0
 94 95  1  0  0  0  0
 95 96  1  0  0  0  0
 96 97  1  0  0  0  0
 97 98  1  0  0  0  0
 95 99  1  0  0  0  0
 99100  1  0  0  0  0
 92101  1  0  0  0  0
101102  1  0  0  0  0
 88103  1  0  0  0  0
103104  2  0  0  0  0
104105  1  0  0  0  0
105106  2  0  0  0  0
106107  1  0  0  0  0
107108  1  0  0  0  0
106109  1  0  0  0  0
109110  1  0  0  0  0
110111  2  0  0  0  0
111112  1  0  0  0  0
112113  2  0  0  0  0
113114  1  0  0  0  0
114115  1  0  0  0  0
115116  1  0  0  0  0
116117  1  0  0  0  0
115118  2  0  0  0  0
111119  1  0  0  0  0
119120  2  0  0  0  0
120121  1  0  0  0  0
121122  2  0  0  0  0
121123  1  0  0  0  0
123124  2  0  0  0  0
124125  1  0  0  0  0
125126  2  0  0  0  0
126127  1  0  0  0  0
126128  1  0  0  0  0
128129  2  0  0  0  0
129130  1  0  0  0  0
130131  2  0  0  0  0
131132  1  0  0  0  0
132133  3  0  0  0  0
131134  1  0  0  0  0
134135  3  0  0  0  0
 12  2  1  0  0  0  0
 55 18  1  0  0  0  0
 98 56  1  0  0  0  0
113103  1  0  0  0  0
130120  1  0  0  0  0
 11  5  1  0  0  0  0
 27 21  1  0  0  0  0
 34 28  1  0  0  0  0
 54 35  2  0  0  0  0
 65 58  1  0  0  0  0
 97 66  2  0  0  0  0
110104  1  0  0  0  0
118112  1  0  0  0  0
129123  1  0  0  0  0
 46 40  1  0  0  0  0
 53 47  1  0  0  0  0
 96 68  2  0  0  0  0
 94 69  2  0  0  0  0
 74 70  2  0  0  0  0
 93 75  2  0  0  0  0
 91 76  2  0  0  0  0
 90 78  2  0  0  0  0
 87 80  1  0  0  0  0
  1136  1  0  0  0  0
  6137  1  0  0  0  0
  7138  1  0  0  0  0
 10139  1  0  0  0  0
 22140  1  0  0  0  0
 23141  1  0  0  0  0
 25142  1  0  0  0  0
 25143  1  0  0  0  0
 25144  1  0  0  0  0
 26145  1  0  0  0  0
 27146  1  0  0  0  0
 29147  1  0  0  0  0
 30148  1  0  0  0  0
 32149  1  0  0  0  0
 32150  1  0  0  0  0
 32151  1  0  0  0  0
 33152  1  0  0  0  0
 34153  1  0  0  0  0
 41154  1  0  0  0  0
 42155  1  0  0  0  0
 44156  1  0  0  0  0
 44157  1  0  0  0  0
 44158  1  0  0  0  0
 45159  1  0  0  0  0
 46160  1  0  0  0  0
 48161  1  0  0  0  0
 49162  1  0  0  0  0
 51163  1  0  0  0  0
 51164  1  0  0  0  0
 51165  1  0  0  0  0
 52166  1  0  0  0  0
 53167  1  0  0  0  0
 59168  1  0  0  0  0
 60169  1  0  0  0  0
 61170  1  0  0  0  0
 63171  1  0  0  0  0
 63172  1  0  0  0  0
 64173  1  0  0  0  0
 64174  1  0  0  0  0
 64175  1  0  0  0  0
 65176  1  0  0  0  0
 81177  1  0  0  0  0
 82178  1  0  0  0  0
 83179  1  0  0  0  0
 85180  1  0  0  0  0
 85181  1  0  0  0  0
 86182  1  0  0  0  0
 86183  1  0  0  0  0
 86184  1  0  0  0  0
 87185  1  0  0  0  0
 99186  1  0  0  0  0
 99187  1  0  0  0  0
100188  1  0  0  0  0
100189  1  0  0  0  0
100190  1  0  0  0  0
101191  1  0  0  0  0
101192  1  0  0  0  0
102193  1  0  0  0  0
102194  1  0  0  0  0
102195  1  0  0  0  0
107196  1  0  0  0  0
107197  1  0  0  0  0
108198  1  0  0  0  0
108199  1  0  0  0  0
108200  1  0  0  0  0
116201  1  0  0  0  0
116202  1  0  0  0  0
117203  1  0  0  0  0
117204  1  0  0  0  0
117205  1  0  0  0  0
119206  1  0  0  0  0
124207  1  0  0  0  0
125208  1  0  0  0  0
128209  1  0  0  0  0
M  END
