227

C          4.51730       -1.99140       -3.91220
C          4.25920       -0.72990       -4.40980
C          3.07650        0.08420       -4.12620
O          2.18610       -0.13970       -3.32280
C          3.14880        1.24020       -5.03840
C          2.26230        2.28960       -5.18130
C          2.56390        3.28530       -6.09860
C          3.73070        3.20390       -6.84710
Cl         4.09030        4.45420       -7.97940
C          4.62540        2.14450       -6.71970
C          4.32420        1.15190       -5.80430
C          5.04060       -0.06880       -5.42440
C          6.24220       -0.47770       -5.95180
C          6.99120       -1.59000       -5.52280
N          7.68420       -2.45660       -5.21980
C          6.91140        0.18170       -7.00170
N          7.50020        0.65310       -7.86810
C          3.84900       -2.72450       -2.93810
C          4.16100       -4.07300       -2.61030
N          4.97430       -4.90350       -3.32450
C          5.55250       -6.00860       -2.66170
C          5.42980       -7.28840       -3.18960
C          5.96620       -8.36710       -2.51370
C          6.63550       -8.19770       -1.30830
C          7.21050       -9.36480       -0.56660
C          6.77340       -6.90950       -0.80190
C          6.24220       -5.82350       -1.46650
C          5.14130       -4.81800       -4.72150
C          6.38830       -5.08590       -5.27830
C          6.56700       -4.99740       -6.64440
C          5.51980       -4.63600       -7.48370
C          5.74530       -4.49130       -8.95660
C          4.27170       -4.39830       -6.91890
C          4.07400       -4.49720       -5.55620
C          3.49050       -4.46770       -1.43970
S          3.36230       -5.95790       -0.55300
C          2.20500       -5.22690        0.53810
C          1.90420       -3.91460        0.19600
N          0.92400       -3.12710        0.79960
C          1.21330       -1.76980        1.00420
C          2.50370       -1.39170        1.37000
C          2.81670       -0.05920        1.54620
C          1.85720        0.93280        1.38550
C          2.20940        2.37770        1.55910
C          0.56950        0.54740        1.03610
C          0.24800       -0.78050        0.83660
C         -0.38090       -3.62230        0.91680
C         -1.22550       -3.17070        1.93020
C         -2.52190       -3.63880        2.02340
C         -3.01330       -4.57530        1.12320
C         -4.42000       -5.08140        1.19260
C         -2.15730       -5.04120        0.13260
C         -0.86220       -4.57900        0.02490
C          2.65700       -3.48750       -0.91700
S          2.62510       -2.04500       -1.85770
C          1.55410       -5.92880        1.60340
C          0.81140       -7.09130        1.55330
C          0.86920       -8.04430        0.43690
C         -0.26720       -8.22490       -0.34480
C         -0.24700       -9.07910       -1.42980
C          0.91590       -9.76270       -1.74190
C          2.03840       -9.60690       -0.95020
C          2.03670       -8.75720        0.14850
C          3.23860       -8.72080        1.05000
C          3.10240       -9.78930        2.13690
C         -0.09650       -7.15750        2.63300
S         -1.56770       -8.08130        2.88230
C         -2.07480       -6.92510        4.08100
C         -3.28100       -6.41690        4.60310
C         -4.62750       -6.72620        4.28840
C         -5.59830       -5.65600        4.28910
N         -6.76680       -6.03860        3.80790
S         -6.67710       -7.60690        3.40560
N         -5.12600       -7.85160        3.81070
C         -5.20040       -4.37010        4.72430
C         -5.66380       -3.06270        4.44830
S         -6.69480       -2.28750        3.28200
C         -5.80500       -0.79340        3.50830
C         -5.70770        0.41130        2.77460
C         -6.45670        0.79400        1.56650
C         -6.33980        0.09170        0.36310
C         -5.43760       -1.10110        0.20800
C         -3.96030       -0.70890        0.19260
C         -7.05250        0.55430       -0.73620
C         -7.85730        1.67630       -0.66150
C         -7.95910        2.37120        0.53070
C         -7.25590        1.93090        1.63510
C         -4.77030        1.25090        3.32220
S         -3.97410        0.57850        4.73440
C         -4.89000       -0.87220        4.55750
C         -4.78060       -2.17390        5.06260
N         -3.79460       -2.86330        5.73090
C         -3.97510       -4.20680        5.41800
C         -2.96200       -5.17950        5.22570
N         -1.60400       -4.96920        5.12650
C         -1.08370       -5.98390        4.37620
C          0.02990       -6.10490        3.53680
S          1.30610       -5.03200        3.09480
C         -0.78970       -3.84790        5.51900
C         -0.09040       -4.10380        6.85320
C         -3.24580       -2.33780        6.96500
C         -4.35370       -2.05220        7.97830
C         -4.27790        2.51310        2.81730
C         -4.43600        3.73970        3.37060
C         -3.72590        4.77120        2.70150
C         -3.67320        6.13850        3.03440
C         -4.34630        6.69910        4.18790
C         -4.92140        7.93790        4.28440
C         -5.42110        8.24120        5.57280
O         -6.03800        9.37260        5.97120
C         -6.11770       10.43990        5.03760
C         -6.74670       11.62610        5.74830
C         -5.20680        7.21060        6.45590
Cl        -5.66430        7.18480        8.10120
S         -4.41170        5.86620        5.71620
C         -2.89770        6.94400        2.20230
C         -2.13460        6.43460        1.11860
C         -2.14810        5.05210        0.82100
C         -1.26420        4.49820       -0.18370
C         -1.52390        3.55460       -1.14070
C         -0.40820        3.26270       -1.96350
O         -0.35880        2.48870       -3.07090
C         -1.30720        1.44360       -3.21890
C         -1.07260        0.31630       -2.22500
C          0.71120        3.95610       -1.56410
S          0.39860        5.01650       -0.24320
Cl         2.26250        3.85930       -2.27580
C         -2.99560        4.26830        1.59540
S         -3.22740        2.55210        1.41170
C         -1.43830        7.44730        0.42960
C         -1.60150        8.69900        0.96780
S         -2.67090        8.65590        2.36990
C         -1.11300        9.97290        0.60090
C         -0.24980       10.36800       -0.38140
C          0.52470        9.53490       -1.33610
O          0.43080        8.34740       -1.56300
C          1.46620       10.45970       -1.99410
C          2.44980       10.16760       -2.92080
C          3.23110       11.20320       -3.40580
C          3.01490       12.50160       -2.95520
Cl         4.00100       13.77510       -3.56360
C          2.02570       12.80850       -2.02590
C          1.24300       11.77170       -1.54520
C          0.13630       11.75720       -0.59030
C         -0.45510       12.87190       -0.05920
C         -0.03470       14.19380       -0.32610
N          0.25070       15.29270       -0.49310
C         -1.58390       12.89740        0.78950
N         -2.50500       13.02550        1.46370
H          5.36590       -2.50240       -4.34770
H          1.36500        2.33070       -4.58350
H          1.90100        4.12550       -6.23270
H          5.51700        2.12020       -7.32400
H          4.90250       -7.43230       -4.12100
H          5.85380       -9.35850       -2.92790
H          6.89990       -9.34560        0.47690
H          8.29930       -9.32480       -0.58820
H          6.89340      -10.30500       -1.01050
H          7.30460       -6.75760        0.12630
H          6.35600       -4.82640       -1.06720
H          7.21510       -5.34420       -4.63540
H          7.54250       -5.19110       -7.06350
H          4.80230       -4.41490       -9.49200
H          6.30490       -5.33980       -9.34540
H          6.32760       -3.59130       -9.15580
H          3.43820       -4.13730       -7.55510
H          3.09710       -4.31460       -5.13300
H          3.25980       -2.14980        1.51550
H          3.82520        0.21540        1.82060
H          2.59710        2.77960        0.62270
H          2.97770        2.50250        2.31890
H          1.33560        2.96160        1.83960
H         -0.19480        1.30240        0.91020
H         -0.75290       -1.05310        0.53950
H         -0.86130       -2.43940        2.63650
H         -3.16500       -3.26250        2.80600
H         -4.88120       -5.06620        0.20640
H         -5.02260       -4.48060        1.86800
H         -4.42830       -6.11320        1.54510
H         -2.52340       -5.76340       -0.58320
H         -0.22560       -4.94460       -0.76760
H         -1.16430       -7.68020       -0.09340
H         -1.13440       -9.20870       -2.03130
H          0.94410      -10.42500       -2.59460
H          2.94040      -10.15440       -1.18380
H          3.34190       -7.74480        1.52450
H          4.13850       -8.90600        0.46090
H          2.21610       -9.60250        2.73980
H          3.00890      -10.77640        1.69000
H          3.97300       -9.78240        2.78880
H         -5.67750       -1.60410       -0.73070
H         -5.60670       -1.81360        1.01440
H         -3.34430       -1.58890        0.02010
H         -3.66500       -0.26570        1.14030
H         -3.76870        0.01490       -0.59580
H         -6.97030        0.02130       -1.67300
H         -8.40100        2.00960       -1.53300
H         -8.58080        3.25110        0.60090
H         -7.32830        2.46400        2.57240
H         -0.02940       -3.70970        4.74530
H         -1.39760       -2.94660        5.54680
H         -0.80670       -4.33530        7.63890
H          0.58940       -4.94690        6.75820
H          0.48150       -3.22800        7.14590
H         -2.56070       -3.07120        7.38680
H         -2.70560       -1.41060        6.74480
H         -5.03380       -1.29380        7.59840
H         -3.91750       -1.69360        8.90660
H         -4.92130       -2.95730        8.18400
H         -5.05390        3.90390        4.23360
H         -5.02370        8.59880        3.44450
H         -6.73400       10.13800        4.17990
H         -5.11290       10.69690        4.67750
H         -6.13580       11.91590        6.59870
H         -7.73750       11.36200        6.10780
H         -6.82520       12.46450        5.06270
H         -2.49850        3.12230       -1.27730
H         -2.32760        1.83980       -3.14010
H         -1.14920        1.08770       -4.24010
H         -1.73040       -0.51820       -2.45090
H         -1.26760        0.65740       -1.21190
H         -0.03900       -0.01590       -2.29020
H         -0.84720        7.27970       -0.45040
H         -1.48990       10.76030        1.24340
H          2.59710        9.15080       -3.25000
H          4.00810       11.01400       -4.12930
H          1.89530       13.82760       -1.70210
