205

C          0.68570        2.45960       10.32330
C          0.29950        3.62370       10.95710
C         -0.92860        4.37840       10.70630
O         -1.77290        4.17890        9.84940
C         -0.96840        5.43970       11.73270
C         -1.92100        6.41780       11.93700
C         -1.73730        7.31550       12.97790
C         -0.61150        7.21280       13.78470
Cl        -0.39960        8.33660       15.07480
C          0.35730        6.23250       13.58800
C          0.17110        5.33830       12.54870
C          0.99340        4.22480       12.06730
C          2.21620        3.86650       12.58380
C          3.07640        2.88780       12.05150
N          3.85560        2.13350       11.66790
C          2.80180        4.46130       13.71880
N          3.33020        4.88460       14.64690
C          0.13290        1.79900        9.23280
C          0.65480        0.57870        8.72160
N          1.58390       -0.20800        9.34360
C          1.62650       -0.36780       10.74200
C          0.45300       -0.38610       11.49180
C          0.51250       -0.52790       12.86350
C          1.72990       -0.67420       13.51860
C          1.80010       -0.80170       15.00880
C          2.89220       -0.68980       12.75640
C          2.85030       -0.53470       11.38530
C          2.45340       -0.98380        8.55140
C          2.69310       -2.31860        8.86010
C          3.54670       -3.06610        8.07340
C          4.17570       -2.50940        6.96630
C          5.07700       -3.33000        6.09680
C          3.93490       -1.17230        6.67090
C          3.08860       -0.41230        7.45210
C          0.07330        0.27120        7.48090
S          0.29230       -1.00600        6.32600
C         -0.97810       -0.32840        5.32250
C         -1.49740        0.85430        5.83190
N         -2.41850        1.66620        5.19330
C         -2.38740        1.82930        3.80310
C         -1.18040        1.83480        3.10760
C         -1.16950        1.91970        1.72920
C         -2.34970        2.00930        1.00210
C         -2.34340        2.03400       -0.49620
C         -3.54650        2.06270        1.70640
C         -3.57000        1.98340        3.08330
C         -3.37120        2.35010        5.96630
C         -3.74710        3.64940        5.63820
C         -4.68440        4.31370        6.40290
C         -5.26250        3.71280        7.51410
C         -6.25300        4.45090        8.36100
C         -4.87660        2.41870        7.83760
C         -3.94620        1.74040        7.07720
C         -0.90500        1.17300        7.07740
S         -1.16290        2.44250        8.21710
C         -1.35580       -0.93290        4.08000
C         -2.64470       -1.12780        3.62520
C         -3.81140       -1.10100        4.50540
C         -3.71520       -1.60740        5.80030
C         -4.81300       -1.58070        6.63850
C         -6.00670       -1.03090        6.20680
C         -6.12650       -0.53600        4.91420
C         -7.40610        0.10980        4.46730
C         -7.48200        1.54820        4.98510
C         -5.03220       -0.59910        4.06600
C         -2.65580       -1.41660        2.24340
S         -3.94290       -1.62520        1.08400
C         -2.76090       -1.80240       -0.16750
C         -2.70180       -1.91180       -1.56780
C         -3.71240       -1.83270       -2.55020
C         -3.33070       -1.75190       -3.93250
N         -4.37170       -1.60240       -4.73670
S         -5.71640       -1.57250       -3.83480
N         -5.02250       -1.74370       -2.38150
C         -1.96780       -1.88700       -4.27240
C         -1.31910       -1.94570       -5.51760
S         -1.70570       -1.78990       -7.19540
C         -0.03790       -2.12680       -7.58650
C          0.67010       -2.14480       -8.81250
C          0.05820       -1.80370      -10.09760
C          0.73310       -1.01130      -11.02460
C          0.12000       -0.67710      -12.21640
C         -1.16430       -1.11450      -12.49290
C         -1.85350       -1.89980      -11.57820
C         -3.26810       -2.33290      -11.83370
C         -4.24350       -1.39580      -11.11850
C         -1.23180       -2.23870      -10.38600
C          2.00160       -2.42260       -8.61500
S          2.40100       -2.63150       -6.91990
C          0.75570       -2.35390       -6.46360
C          0.02240       -2.24050       -5.27180
N          0.23820       -2.34210       -3.91940
C         -0.96960       -2.09710       -3.28420
C         -1.32460       -1.96980       -1.91630
N         -0.57170       -1.86130       -0.75680
C         -1.44520       -1.73900        0.29280
C         -1.38570       -1.50090        1.67300
S         -0.14460       -1.22480        2.84170
C          0.78940       -1.39600       -0.60590
C          0.95790        0.00430       -1.18970
C          1.37590       -3.08680       -3.42340
C          2.67110       -2.27860       -3.43620
C          3.08710       -2.48470       -9.58310
C          4.21060       -1.69730       -9.34570
C          5.25610       -1.59120      -10.24530
C          6.47360       -0.81130       -9.84290
C          7.19850       -1.50810       -8.68930
C          5.16360       -2.31430      -11.44400
C          4.10170       -3.21290      -11.61380
C          3.05610       -3.31130      -10.71970
C          1.97880       -4.33540      -10.93600
C          2.08900       -5.46730       -9.91270
C          6.10340       -2.19840      -12.53390
C          6.53170       -1.03350      -13.08230
C          5.91470        0.29760      -12.81990
O          5.07390        0.58290      -11.99740
C          6.48940        1.19810      -13.83910
C          6.21790        2.53610      -14.05770
C          6.87900        3.18840      -15.08510
C          7.78770        2.49210      -15.87570
Cl         8.59130        3.31900      -17.15490
C          8.06920        1.14560      -15.66820
C          7.41260        0.49740      -14.63480
C          7.49400       -0.88220      -14.16150
C          8.37750       -1.83020      -14.59880
C          8.49700       -3.12860      -14.05690
N          8.66460       -4.19170      -13.65790
C          9.31580       -1.62460      -15.63320
N         10.09490       -1.52120      -16.46930
H          1.56540        1.97820       10.73060
H         -2.78460        6.47610       11.29290
H         -2.45920        8.09400       13.16720
H          1.21610        6.19060       14.23720
H         -0.50140       -0.28040       10.99710
H         -0.40550       -0.53200       13.43340
H          2.25820        0.08930       15.43810
H          0.80880       -0.92040       15.43880
H          2.41150       -1.65660       15.29210
H          3.84760       -0.80500       13.24520
H          3.76240       -0.52690       10.81010
H          2.20450       -2.76460        9.71370
H          3.72180       -4.10290        8.32100
H          5.92840       -2.74290        5.75930
H          5.43980       -4.20600        6.62830
H          4.53270       -3.66820        5.21450
H          4.42250       -0.71880        5.82050
H          2.92080        0.63000        7.22300
H         -0.24880        1.77070        3.65100
H         -0.21860        1.91970        1.21480
H         -3.21270        2.56490       -0.87670
H         -1.44470        2.51500       -0.87760
H         -2.37990        1.01590       -0.88850
H         -4.47710        2.15430        1.16520
H         -4.50700        2.02500        3.61590
H         -3.29680        4.13580        4.78530
H         -4.96340        5.32320        6.13680
H         -5.73950        4.91800        9.20180
H         -7.00370        3.77310        8.76200
H         -6.74980        5.23170        7.79000
H         -5.31270        1.93140        8.69760
H         -3.66790        0.72970        7.33350
H         -2.78540       -2.03950        6.13990
H         -4.73510       -1.98630        7.63710
H         -6.85630       -0.99490        6.87310
H         -7.46100        0.11150        3.37730
H         -8.25910       -0.45350        4.85210
H         -8.41640        2.01360        4.68030
H         -6.65740        2.14120        4.59550
H         -7.41940        1.56720        6.07070
H         -5.12200       -0.23940        3.05240
H          1.72580       -0.64830      -10.80640
H          0.64660       -0.06220      -12.93130
H         -1.63740       -0.84140      -13.42530
H         -3.47340       -2.32200      -12.90580
H         -3.41570       -3.35090      -11.46680
H         -4.12040       -0.37690      -11.47890
H         -4.05890       -1.40380      -10.04670
H         -5.27020       -1.70630      -11.29770
H         -1.75430       -2.86370       -9.67640
H          1.49420       -2.09100       -1.05860
H          0.99310       -1.37220        0.46750
H          0.28420        0.69420       -0.68890
H          0.72460        0.01120       -2.25220
H          1.97900        0.34850       -1.04640
H          1.50930       -3.96080       -4.07260
H          1.13750       -3.45720       -2.42540
H          2.93790       -2.01880       -4.45660
H          2.57860       -1.36030       -2.86570
H          3.47520       -2.87670       -3.01570
H          4.24660       -1.11610       -8.43480
H          7.16540       -0.71030      -10.67820
H          6.16900        0.19110       -9.53510
H          6.54580       -1.61930       -7.82730
H          8.06990       -0.92980       -8.39140
H          7.52980       -2.49750       -8.99750
H          4.08300       -3.81860      -12.50940
H          2.07790       -4.75040      -11.94050
H          0.99310       -3.87560      -10.86240
H          3.06560       -5.94240       -9.97540
H          1.32480       -6.21770      -10.09990
H          1.95690       -5.08720       -8.90270
H          6.40780       -3.13230      -12.99170
H          5.50600        3.05180      -13.43210
H          6.69590        4.23300      -15.28090
H          8.77570        0.64070      -16.30610
