243

C        -11.13960       -0.46250       -6.28630
C        -10.76350       -1.11130       -7.44530
C         -9.49600       -1.80400       -7.67940
O         -8.51740       -1.85260       -6.95330
C         -9.63830       -2.47850       -8.98540
C         -8.72840       -3.26690       -9.66100
C         -9.09330       -3.79720      -10.88920
C        -10.35280       -3.52680      -11.40860
Cl       -10.79000       -4.19490      -12.93660
C        -11.27810       -2.73080      -10.73890
C        -10.91130       -2.20400       -9.51320
C        -11.62480       -1.32770       -8.58010
C        -12.87680       -0.80100       -8.79310
C        -13.69440       -1.12320       -9.89420
N        -14.42370       -1.35800      -10.75010
C        -13.51600        0.15060       -7.97600
N        -14.09160        0.95670       -7.39130
C        -10.41460       -0.17590       -5.13560
C        -10.97790        0.46580       -3.99950
N        -12.30600        0.71890       -3.79650
C        -13.32690       -0.15430       -4.21550
C        -14.55250        0.36170       -4.62830
C        -15.55750       -0.49220       -5.03690
C        -15.36840       -1.86890       -5.05550
C        -16.45270       -2.77660       -5.54740
C        -14.14740       -2.37410       -4.62250
C        -13.13840       -1.53420       -4.19660
C        -12.65720        1.83710       -3.01190
C        -12.05780        3.06940       -3.25340
C        -12.37310        4.15930       -2.46570
C        -13.29320        4.05140       -1.43150
C        -13.62230        5.22190       -0.55800
C        -13.90350        2.82000       -1.21350
C        -13.59390        1.72200       -1.98930
C         -9.97490        0.82020       -3.08220
S         -9.98020        1.63220       -1.55140
C         -8.23960        1.44040       -1.42790
C         -7.68830        0.80040       -2.53050
N         -6.34020        0.58730       -2.75910
C         -5.35960        1.48270       -2.31710
C         -4.13560        1.00150       -1.85220
C         -3.20970        1.86680       -1.30670
C         -3.46770        3.22930       -1.20660
C         -2.47640        4.15650       -0.57210
C         -4.66280        3.70890       -1.72710
C         -5.59550        2.85550       -2.28340
C         -5.96760       -0.54710       -3.50450
C         -5.01160       -0.44730       -4.50910
C         -4.69440       -1.55330       -5.27270
C         -5.31860       -2.77530       -5.05990
C         -5.02140       -3.96240       -5.92240
C         -6.25190       -2.87210       -4.03490
C         -6.57280       -1.77690       -3.25970
C         -8.69460        0.43540       -3.46040
S         -8.67130       -0.41280       -4.96400
C         -7.52630        1.98780       -0.31340
C         -7.54810        3.28130        0.15450
C         -8.48320        4.35550       -0.29720
C         -9.70040        4.44750        0.62380
C         -6.50970        3.50020        1.07950
S         -5.89050        4.95340        1.82730
C         -4.53600        4.05060        2.41910
C         -3.31960        4.26520        3.09360
C         -2.76430        5.39810        3.72770
C         -1.47790        5.28440        4.36260
N         -1.10510        6.40990        4.95070
S         -2.26510        7.51740        4.72690
N         -3.28900        6.60550        3.86490
C         -0.74600        4.08440        4.22110
C          0.59470        3.76380        4.50180
S          2.00180        4.50050        5.18730
C          2.95630        3.13340        4.66410
C          4.34180        2.82750        4.70360
O          5.29400        3.47270        5.43430
C          5.90430        4.65840        4.94040
C          4.97120        5.85480        4.82670
C          4.61420        1.64320        4.05610
S          3.16310        0.82320        3.51760
C          2.19480        2.15340        4.03080
C          0.84140        2.50780        3.94500
N         -0.29970        2.02010        3.36390
C         -1.29210        2.96800        3.53260
C         -2.63910        3.01820        3.09750
N         -3.45030        2.06120        2.51380
C         -4.58640        2.69620        2.08480
C         -5.71780        2.38020        1.32540
S         -6.30420        0.99760        0.47880
C         -3.46800        0.63790        2.76920
C         -4.60790        0.25570        3.71290
C         -0.22640        0.92160        2.42630
C         -0.07580       -0.42930        3.12430
C          5.89910        1.08790        3.71220
C          6.78560        1.59690        2.77940
N          6.59680        2.75100        2.03450
C          7.70640        3.55090        1.72330
C          8.74760        3.70290        2.63740
C          9.84480        4.47630        2.31700
C          9.93270        5.12670        1.09200
C         11.13990        5.94470        0.75000
C          8.88370        4.98100        0.19280
C          7.78490        4.20180        0.49530
C          5.31880        3.08580        1.55900
C          4.47220        2.10360        1.05560
C          3.18660        2.42510        0.66240
C          2.70720        3.72290        0.76370
C          1.28910        4.06150        0.41800
C          3.57970        4.71010        1.21050
C          4.87010        4.40560        1.59080
C          7.92020        0.75590        2.65660
S          9.35240        0.78250        1.69370
C          9.84490       -0.78460        2.32250
C          8.93500       -1.28540        3.25380
N          9.12860       -2.39460        4.07040
C          9.17120       -2.16850        5.45110
C          9.73080       -0.98830        5.94170
C          9.77680       -0.75240        7.29950
C          9.28220       -1.68120        8.20900
C          9.33750       -1.40400        9.68000
C          8.73450       -2.85670        7.71290
C          8.67030       -3.10160        6.35510
C          8.95020       -3.69560        3.56870
C          9.83510       -4.71000        3.91950
C          9.65030       -5.98660        3.42860
C          8.58550       -6.28260        2.58250
C          8.39340       -7.67310        2.05630
C          7.71620       -5.25990        2.23070
C          7.89080       -3.97640        2.71380
C          7.86310       -0.38330        3.44170
S          6.41820       -0.44690        4.38580
C         11.15940       -1.23880        2.05000
C         11.51100       -2.52940        1.77900
C         10.60540       -3.49250        1.11490
O          9.45450       -3.30030        0.78140
C         11.44310       -4.66010        0.78150
C         11.03410       -5.82920        0.14630
C         12.04000       -6.74660       -0.04240
C         13.36790       -6.50150        0.33240
C         13.78830       -5.34790        0.94910
C         12.77240       -4.41640        1.18120
C         12.83450       -3.10500        1.81850
C         13.92250       -2.55530        2.44820
C         15.19860       -3.14910        2.50480
N         16.26180       -3.57690        2.58010
C         13.88850       -1.33390        3.15220
N         13.92130       -0.36170        3.76290
C         13.84800       -7.83010       -0.19800
C         14.16310       -8.94870        0.82360
C         13.32120       -8.66000        2.04120
C         12.05620       -8.89720        1.72200
C         12.01880       -9.35000        0.28360
C         13.35730      -10.10200        0.20430
C         12.36320       -8.11540       -0.58800
H        -12.16520       -0.11760       -6.25770
H         -7.75490       -3.45700       -9.23610
H         -8.40880       -4.41680      -11.44660
H        -12.24330       -2.54510      -11.18000
H        -14.70600        1.42910       -4.64050
H        -16.49860       -0.07950       -5.36710
H        -16.24520       -3.81160       -5.28760
H        -16.53330       -2.70440       -6.63240
H        -17.41420       -2.49180       -5.12480
H        -13.98500       -3.44230       -4.61040
H        -12.19810       -1.94240       -3.85580
H        -11.34760        3.16580       -4.06170
H        -11.89770        5.10920       -2.66230
H        -13.18130        6.13590       -0.94710
H        -14.70020        5.35560       -0.48670
H        -13.24110        5.05540        0.44940
H        -14.62530        2.71980       -0.41600
H        -14.06560        0.76850       -1.80380
H         -3.93570       -0.05910       -1.89330
H         -2.27550        1.47370       -0.92980
H         -1.93260        3.65670        0.22710
H         -1.75050        4.49740       -1.31120
H         -2.97380        5.03100       -0.15960
H         -4.87360        4.76770       -1.68690
H         -6.51820        3.24870       -2.68340
H         -4.53340        0.50330       -4.69560
H         -3.96150       -1.45770       -6.06090
H         -4.81500       -4.84170       -5.31420
H         -4.16860       -3.77340       -6.56920
H         -5.88710       -4.18330       -6.54620
H         -6.73800       -3.81820       -3.84620
H         -7.29860       -1.86340       -2.46370
H         -8.81800        4.15690       -1.31680
H         -7.94670        5.30680       -0.28190
H        -10.35060        5.25620        0.30120
H         -9.38560        4.63900        1.64690
H        -10.26550        3.51830        0.59750
H          6.38190        4.45450        3.97580
H          6.68520        4.86040        5.67830
H          4.23330        5.70040        4.04380
H          5.55570        6.73930        4.58620
H          4.45340        6.01960        5.76810
H         -2.53030        0.35590        3.23650
H         -3.58390        0.10910        1.81690
H         -4.53020        0.81580        4.64250
H         -5.57450        0.45980        3.26160
H         -4.55110       -0.80580        3.93820
H         -1.10570        0.94710        1.78200
H          0.65780        1.08430        1.79950
H         -0.12130       -1.22780        2.38920
H         -0.85500       -0.59140        3.86560
H          0.88390       -0.48200        3.63060
H          8.68990        3.21940        3.60200
H         10.64580        4.58090        3.03410
H         11.46300        6.53320        1.60630
H         10.93460        6.61420       -0.08150
H         11.96430        5.29020        0.46560
H          8.93000        5.47660       -0.76620
H          6.98370        4.08820       -0.22000
H          4.82310        1.08470        0.98120
H          2.54700        1.64380        0.27590
H          0.81860        3.25300       -0.13660
H          0.71390        4.23750        1.32870
H          1.24330        4.96970       -0.17960
H          3.23650        5.73290        1.27060
H          5.53610        5.18850        1.92110
H         10.14160       -0.26320        5.25450
H         10.21410        0.16630        7.66240
H          9.03920       -2.27830       10.25280
H          8.66940       -0.58100        9.93340
H         10.34500       -1.11710        9.97710
H          8.34000       -3.59290        8.39860
H          8.22420       -4.01460        5.99000
H         10.66370       -4.48700        4.57650
H         10.34900       -6.76450        3.70250
H          8.50830       -8.40540        2.85400
H          9.13550       -7.89260        1.28840
H          7.40490       -7.78760        1.61800
H          6.88860       -5.46530        1.56770
H          7.20710       -3.19000        2.43400
H         11.92590       -0.47220        2.06710
H         10.00610       -5.96030       -0.15290
H         14.81450       -5.16700        1.22360
H         14.58080       -7.78030       -1.00090
H         15.22220       -9.11540        1.00030
H         13.71370       -8.27160        2.96270
H         11.18170       -8.75180        2.32740
H         11.12560       -9.88640       -0.02770
H         13.37150      -11.00250        0.81670
H         13.65940      -10.34480       -0.81360
H         12.13270       -8.27880       -1.63940
