198

C         10.38380       -3.52120       -1.44670
C         11.34350       -4.22410       -0.74720
C         11.40460       -4.40190        0.70430
O         10.57600       -4.07920        1.53850
C         12.70640       -5.04350        0.97880
C         13.25590       -5.41450        2.18980
C         14.51030       -6.00530        2.19620
C         15.18080       -6.21000        0.99710
Cl        16.74020       -6.94460        1.02390
C         14.63650       -5.84400       -0.23080
C         13.38490       -5.25390       -0.23370
C         12.53770       -4.78070       -1.33160
C         12.84400       -4.88700       -2.66740
C         11.97800       -4.57680       -3.73300
N         11.32610       -4.38890       -4.66180
C         14.07500       -5.36050       -3.16260
N         15.06110       -5.71080       -3.63640
C          9.21090       -2.91280       -1.01430
C          8.37150       -2.14400       -1.86530
N          8.66000       -1.75800       -3.14500
C          9.95650       -1.42010       -3.57580
C         10.84830       -0.77400       -2.72290
C         12.12080       -0.46620       -3.16010
C         12.52940       -0.76930       -4.45430
C         13.91980       -0.46750       -4.92010
C         11.61810       -1.37810       -5.30880
C         10.34780       -1.70830       -4.88070
C          7.58670       -1.55960       -4.03940
C          7.51500       -0.41030       -4.81850
C          6.44230       -0.21840       -5.66750
C          5.42240       -1.15710       -5.76010
C          4.23690       -0.93220       -6.64630
C          5.51560       -2.31350       -4.99300
C          6.58380       -2.52010       -4.14470
C          7.17180       -1.81450       -1.21240
S          5.75430       -0.93340       -1.68290
C          5.07140       -1.16200       -0.08370
C          5.87810       -1.93090        0.74650
N          5.51260       -2.39100        1.99730
C          4.17340       -2.71430        2.26320
C          3.38540       -3.33270        1.29560
C          2.03650       -3.52700        1.51620
C          1.43850       -3.12630        2.70400
C         -0.03890       -3.25950        2.91190
C          2.24490       -2.57250        3.69220
C          3.59340       -2.36750        3.48140
C          6.50200       -2.58540        2.97390
C          6.44910       -3.68700        3.82160
C          7.45010       -3.89320        4.75000
C          8.52460       -3.01930        4.85420
C          9.64110       -3.27310        5.81910
C          8.55630       -1.90870        4.02000
C          7.55750       -1.68480        3.09490
C          7.09230       -2.27010        0.09860
S          8.51580       -3.10830        0.60020
C          3.76790       -0.65810        0.20790
C          3.31260       -0.12420        1.38840
C          1.93320        0.10100        1.35790
S          0.79750        0.72670        2.51220
C         -0.47280        0.51870        1.34830
C         -1.86430        0.84860        1.29210
C         -2.70840        1.44110        2.22750
C         -4.00140        1.69620        1.83490
C         -5.11480        2.34030        2.64340
C         -5.51620        1.44060        3.80200
C         -5.64200        0.07450        3.56580
C         -6.03570       -0.78680        4.57010
C         -6.32540       -0.31150        5.84300
C         -6.71160       -1.25280        6.94710
C         -5.46630       -1.76280        7.67530
C         -6.20430        1.05030        6.07500
C         -5.80870        1.91760        5.07100
C         -4.75020        3.77260        3.06680
C         -4.28850        4.62810        1.89210
C         -6.22830        2.34540        1.63120
C         -5.81240        1.77560        0.44150
C         -4.44560        1.36250        0.53410
C         -3.60900        0.74800       -0.39310
C         -2.31720        0.49320        0.00040
C         -1.21250       -0.19000       -0.79350
C         -1.57880       -1.68920       -0.90400
C         -0.53330       -2.51990       -1.63380
C         -0.99090        0.48370       -2.13040
C         -0.08140        1.53010       -2.23460
C          0.14440        2.15820       -3.44390
C         -0.53980        1.77090       -4.58800
C         -0.23810        2.40570       -5.91440
C          0.94620        1.70160       -6.58060
C         -1.47180        0.74900       -4.47730
C         -1.69890        0.11730       -3.26810
C         -0.05220       -0.02460        0.14910
C          1.32430       -0.25890        0.14940
S          2.48890       -0.84010       -0.98310
S         -7.02760        1.75270       -0.79180
C         -8.12890        2.53410        0.30370
C         -9.44350        2.98190        0.19200
C         -9.89010        3.56530        1.35840
S         -8.66420        3.55600        2.62080
C         -7.55030        2.77520        1.56100
C        -11.15800        4.14980        1.59630
C        -11.61610        4.72240        2.76330
C        -12.92310        5.21010        2.66370
S        -13.83330        6.00800        3.91240
C        -12.72290        5.87350        5.36650
C        -13.42760        6.45700        6.57610
C        -13.47850        5.04850        1.38950
S        -12.34920        4.22540        0.33610
C        -14.78580        5.38540        1.00990
C        -15.31090        5.49630       -0.24840
C        -16.77000        5.34700       -0.46630
O        -17.63910        5.33790        0.37670
C        -16.92100        5.15400       -1.92600
C        -18.05630        4.86050       -2.65660
C        -17.93990        4.69700       -4.02850
C        -16.69810        4.82700       -4.63880
Cl       -16.57410        4.60360       -6.34320
C        -15.54730        5.13250       -3.91850
C        -15.66880        5.29810       -2.55080
C        -14.68000        5.66000       -1.53410
C        -13.49670        6.31080       -1.77910
C        -12.95810        6.51170       -3.06420
N        -12.46270        6.68150       -4.08620
C        -12.74250        6.94200       -0.76880
N        -12.13450        7.51340        0.02020
H         10.57300       -3.40700       -2.50630
H         12.71180       -5.24650        3.10620
H         14.97110       -6.30880        3.12280
H         15.19080       -6.02310       -1.13720
H         10.54340       -0.52530       -1.71680
H         12.80600        0.02560       -2.48470
H         14.43470        0.18570       -4.22010
H         13.90290        0.00700       -5.89930
H         14.48980       -1.39260       -5.01020
H         11.91380       -1.61870       -6.31860
H          9.65960       -2.20280       -5.54790
H          8.29580        0.33230       -4.74640
H          6.39330        0.68330       -6.26040
H          4.41130       -0.10750       -7.33230
H          4.01100       -1.82780       -7.22160
H          3.36160       -0.69590       -6.04090
H          4.73970       -3.06160       -5.06270
H          6.65080       -3.42510       -3.55850
H          3.83130       -3.64240        0.36160
H          1.43740       -3.99410        0.74750
H         -0.48180       -3.90400        2.15650
H         -0.51360       -2.27910        2.84820
H         -0.25640       -3.66850        3.89660
H          1.80310       -2.27240        4.63120
H          4.20330       -1.91380        4.24910
H          5.62800       -4.38380        3.73790
H          7.40190       -4.75970        5.39370
H          9.36030       -4.02180        6.55560
H          9.92440       -2.35760        6.33530
H         10.51450       -3.63470        5.27650
H          9.37690       -1.21030        4.09490
H          7.58900       -0.81150        2.45930
H          3.94990        0.10430        2.22170
H         -2.35120        1.69220        3.21470
H         -5.42790       -0.31810        2.58200
H         -6.12460       -1.84360        4.36170
H         -7.25950       -2.10230        6.53410
H         -7.36100       -0.74110        7.66020
H         -5.74540       -2.44670        8.47340
H         -4.91370       -0.93130        8.10700
H         -4.81070       -2.28550        6.98240
H         -6.42690        1.44500        7.05630
H         -5.73440        2.96930        5.29670
H         -3.95810        3.72600        3.81620
H         -5.63020        4.23820        3.51520
H         -5.06710        4.69880        1.13580
H         -4.05570        5.63300        2.23600
H         -3.39880        4.20740        1.42930
H         -3.96580        0.50270       -1.38160
H         -2.54280       -1.77850       -1.40660
H         -1.70760       -2.07400        0.11120
H          0.39490       -2.55270       -1.07100
H         -0.32240       -2.10290       -2.61540
H         -0.89410       -3.53870       -1.75950
H          0.46040        1.86070       -1.36080
H          0.86430        2.96240       -3.49890
H         -1.11110        2.33970       -6.56650
H          0.00460        3.46100       -5.77330
H          1.17390        2.16240       -7.53890
H          1.82760        1.76370       -5.94590
H          0.71630        0.65120       -6.74640
H         -2.02950        0.43930       -5.35000
H         -2.43300       -0.67270       -3.22800
H        -10.05130        2.89890       -0.69070
H        -11.00250        4.77260        3.64380
H        -12.49560        4.81810        5.51530
H        -11.81320        6.42830        5.13830
H        -14.34770        5.91490        6.78050
H        -12.78010        6.38800        7.44740
H        -13.67390        7.50230        6.40610
H        -15.49410        5.49470        1.82710
H        -19.00990        4.76360       -2.16140
H        -18.80580        4.46740       -4.62920
H        -14.59980        5.22340       -4.42440
