245

C          5.77530        2.51920        4.24290
C          7.14370        2.58890        4.30640
C          7.80660        3.86120        4.66550
O          7.29820        4.96020        4.72790
C          9.20720        3.49260        4.97330
C         10.23230        4.27680        5.46440
C         11.46310        3.68600        5.70870
C         11.64130        2.33090        5.45990
Cl        13.17400        1.61320        5.78780
C         10.62230        1.53000        4.95290
C          9.39830        2.12440        4.70750
C          8.15910        1.58090        4.14810
C          8.07890        0.45620        3.36100
C          9.13540       -0.45240        3.17230
N          9.96470       -1.22560        2.98750
C          6.96090        0.16970        2.55520
N          6.09400       -0.04090        1.83030
C          4.96530        1.38530        4.36930
C          3.59600        1.28880        4.06140
N          2.84770        2.24130        3.43920
C          3.37170        3.17410        2.51670
C          2.88560        4.47560        2.53190
C          3.33250        5.39030        1.59660
C          4.26550        5.02980        0.63390
C          4.75400        6.01940       -0.37890
C          4.74630        3.72350        0.63310
C          4.30570        2.79680        1.55580
C          1.43920        2.15540        3.52710
C          0.82010        2.11600        4.77260
C         -0.55250        1.99430        4.85540
C         -1.33270        1.90200        3.70890
C         -2.81490        1.70960        3.81120
C         -0.70630        1.96440        2.47050
C          0.66440        2.09940        2.37430
C          3.09580        0.01600        4.41460
S          1.56800       -0.76430        4.22860
C          2.23400       -2.28170        4.81550
C          3.56350       -2.17050        5.17250
N          4.34470       -3.18930        5.74170
C          5.56140       -3.51650        5.13530
C          6.44450       -4.40220        5.74880
C          7.63820       -4.73850        5.14110
C          7.99330       -4.21800        3.90480
C          9.30340       -4.54050        3.25650
C          7.08390       -3.38050        3.27210
C          5.88360       -3.04520        3.86260
C          4.17870       -3.31090        7.14740
C          2.98340       -3.78690        7.66960
C          2.80640       -3.87470        9.03840
C          3.80880       -3.48970        9.91770
C          3.63010       -3.60970       11.40030
C          4.99500       -2.99460        9.38690
C          5.17880       -2.89490        8.02270
C          4.03540       -0.85470        4.94460
S          5.58130       -0.10490        5.10290
C          1.33300       -3.38830        4.74230
C          1.53160       -4.71070        4.40370
C          2.83470       -5.36810        4.20680
C          3.31330       -6.27040        5.14750
C          4.50760       -6.92690        4.91780
C          5.20780       -6.71180        3.74500
C          4.73300       -5.82410        2.78920
C          5.44900       -5.65490        1.48170
C          4.96220       -6.69940        0.47500
C          3.54790       -5.14750        3.03680
C          0.30750       -5.35680        4.12470
S         -0.06970       -6.88440        3.34940
C         -1.70570       -6.34170        3.10770
C         -2.81670       -6.62300        2.28860
C         -3.00520       -7.58440        1.26800
C         -3.97640       -7.32370        0.23630
N         -3.95430       -8.24020       -0.71710
S         -2.82900       -9.34450       -0.34780
N         -2.31080       -8.68560        1.03740
C         -4.78560       -6.16800        0.32510
C         -5.58730       -5.48820       -0.61630
S         -5.87460       -5.45520       -2.33280
C         -6.51000       -3.82530       -2.18250
C         -6.67820       -2.78000       -3.10910
C         -6.54640       -2.91270       -4.57070
C         -7.67760       -3.03210       -5.36920
C         -7.54180       -3.10020       -6.74410
C         -6.28800       -3.04160       -7.32560
C         -5.14890       -2.92530       -6.53950
C         -3.78550       -2.90260       -7.16610
C         -3.22780       -4.32260       -7.27980
C         -5.28950       -2.87140       -5.16000
C         -6.85220       -1.56300       -2.47000
S         -6.96050       -1.72630       -0.72330
C         -6.60180       -3.40820       -0.85210
C         -6.08250       -4.35510        0.03150
N         -5.66470       -4.31420        1.33550
C         -4.78040       -5.37160        1.50480
C         -3.72060       -5.53200        2.43090
N         -3.19510       -4.64600        3.35200
C         -1.95640       -5.10120        3.70000
C         -0.81090       -4.53600        4.26750
S         -0.37490       -2.96040        4.81780
C         -3.58270       -3.30080        3.69940
C         -3.30740       -2.31750        2.56310
C         -6.48500       -3.62290        2.31230
C         -6.96070       -4.56400        3.41380
C         -6.59590       -0.26730       -3.00520
C         -6.47810        0.11990       -4.30980
C         -5.83760        1.37150       -4.47360
C         -5.39800        1.93670       -5.68400
C         -5.70770        1.26110       -6.95100
C         -7.04570        0.93030       -7.25890
C         -7.34840        0.22090       -8.38300
C         -6.33070       -0.20720       -9.26250
C         -6.60660       -0.96640      -10.41240
C         -5.59420       -1.37770      -11.24570
S         -6.03640       -2.38870      -12.62980
C         -4.77910       -1.97580      -13.89100
C         -4.81830       -0.51080      -14.27830
C         -4.26010       -1.04010      -10.95190
C         -3.97000       -0.29020       -9.84860
C         -4.98660        0.14560       -8.97240
C         -4.70430        0.88470       -7.81020
C         -4.60670        3.06880       -5.58830
C         -4.24260        3.65360       -4.34370
C         -4.67720        3.08160       -3.12790
C         -4.17400        3.55950       -1.83660
C         -2.82840        3.80970       -1.67260
C         -2.31200        4.22660       -0.43620
C         -0.93770        4.50770       -0.26280
C         -0.45520        4.89800        0.94830
C         -1.32050        5.02050        2.05920
S         -0.52410        5.48050        3.56420
C         -1.85680        5.60940        4.80250
C         -2.63540        6.90640        4.68490
C         -2.66070        4.77080        1.91880
C         -3.18480        4.37260        0.67240
C         -4.55820        4.10680        0.48380
C         -5.03920        3.71290       -0.73230
C         -5.48510        1.96370       -3.23320
S         -6.01960        0.97390       -1.90020
C         -3.41000        4.77520       -4.50710
C         -3.08900        5.04560       -5.81600
S         -3.90370        3.94070       -6.92230
C         -2.25840        6.05580       -6.34610
C         -1.21880        6.68830       -5.71640
C         -0.51350        6.21740       -4.49970
O         -0.80360        5.30000       -3.75980
C          0.70770        7.04090       -4.40730
C          1.72290        6.97300       -3.47130
C          2.79150        7.84660       -3.58940
C          2.82500        8.76020       -4.63730
Cl         4.16820        9.82980       -4.77250
C          1.80840        8.83960       -5.58470
C          0.73910        7.96880       -5.46160
C         -0.46900        7.79990       -6.26800
C         -0.85550        8.61140       -7.30170
C         -2.07650        8.50710       -8.00220
N         -3.05490        8.50720       -8.60330
C         -0.09340        9.69630       -7.78380
N          0.48190       10.58490       -8.22770
H          5.26610        3.47560        4.18150
H         10.06990        5.32680        5.65250
H         12.28480        4.26870        6.09390
H         10.79540        0.48110        4.77490
H          2.15580        4.76510        3.27320
H          2.94890        6.40010        1.62190
H          5.77300        6.32430       -0.14060
H          4.12520        6.90670       -0.38630
H          4.76300        5.57800       -1.37430
H          5.46760        3.42230       -0.11250
H          4.67880        1.78380        1.53010
H          1.42030        2.18050        5.66850
H         -1.02500        1.96500        5.82660
H         -3.23080        2.29470        4.62960
H         -3.03230        0.66080        4.01580
H         -3.30870        1.98860        2.88330
H         -1.29730        1.90230        1.56850
H          1.14250        2.14470        1.40750
H          6.19150       -4.83670        6.70400
H          8.30760       -5.42080        5.64600
H          9.87620       -5.24110        3.85890
H          9.88490       -3.62790        3.12880
H          9.14800       -4.97250        2.26840
H          7.31840       -2.98060        2.29600
H          5.19460       -2.41820        3.31760
H          2.19170       -4.08700        7.00240
H          1.87140       -4.25250        9.42720
H          2.57780       -3.69360       11.66050
H          4.14360       -4.49870       11.76770
H          4.05280       -2.74660       11.91060
H          5.78180       -2.67080       10.05310
H          6.09810       -2.48920        7.62590
H          2.75550       -6.45130        6.05450
H          4.88770       -7.61930        5.65440
H          6.13520       -7.23650        3.56800
H          6.52280       -5.77150        1.63470
H          5.26690       -4.65510        1.08480
H          3.89230       -6.59510        0.30810
H          5.47610       -6.58030       -0.47610
H          5.15180       -7.70270        0.84970
H          3.16340       -4.45030        2.30530
H         -8.65520       -3.06370       -4.91100
H         -8.41970       -3.19260       -7.36590
H         -6.19070       -3.08230       -8.40070
H         -3.11070       -2.29580       -6.55880
H         -3.84700       -2.45630       -8.16050
H         -3.15610       -4.78190       -6.29650
H         -2.23800       -4.30720       -7.73020
H         -3.88110       -4.93530       -7.89650
H         -4.41450       -2.77600       -4.53260
H         -2.98400       -3.01840        4.56970
H         -4.62690       -3.28480        4.00720
H         -3.67800       -1.33000        2.82390
H         -2.23700       -2.24650        2.38660
H         -3.78660       -2.63840        1.64180
H         -5.96620       -2.75440        2.72310
H         -7.35190       -3.24010        1.76660
H         -6.12250       -4.99710        3.95480
H         -7.58860       -4.02180        4.11580
H         -7.54150       -5.37750        2.98490
H         -6.78040       -0.49340       -5.13680
H         -7.82910        1.26040       -6.59220
H         -8.37340       -0.02970       -8.61400
H         -7.62750       -1.23530      -10.63970
H         -3.79880       -2.27900      -13.52450
H         -5.04550       -2.61220      -14.73470
H         -5.80850       -0.24320      -14.63990
H         -4.58060        0.12300      -13.42580
H         -4.09430       -0.31730      -15.06750
H         -3.46090       -1.38330      -11.59050
H         -2.94500       -0.02990       -9.62550
H         -3.67540        1.12360       -7.58240
H         -2.13980        3.67090       -2.49150
H         -0.28460        4.41550       -1.11750
H          0.59340        5.11110        1.08980
H         -1.33380        5.55650        5.75750
H         -2.48960        4.72890        4.70290
H         -1.96960        7.75550        4.82000
H         -3.40930        6.94590        5.44940
H         -3.10490        6.99450        3.70760
H         -3.34820        4.86300        2.74520
H         -5.23230        4.22550        1.32070
H         -6.09630        3.53510       -0.86450
H         -3.09060        5.39480       -3.69140
H         -2.44820        6.30680       -7.38300
H          1.67460        6.25420       -2.66780
H          3.60190        7.82470       -2.87820
H          1.87560        9.55890       -6.38400
