
  xtb     02062203573D
 energy: -369.973148437489 gnorm: 0.000386342959 xtb: 6.4.1 (unknown)
216238  0     0  0            999 V2000
   10.4699    4.5238    3.4911 C   0  0  0  0  0  0  0  0  0  0  0  0
   11.8103    4.5280    3.1459 C   0  0  0  0  0  0  0  0  0  0  0  0
   12.3192    4.0343    1.8595 C   0  0  0  0  0  0  0  0  0  0  0  0
   11.6821    3.5331    0.9509 O   0  0  0  0  0  0  0  0  0  0  0  0
   13.7554    4.3924    1.8406 C   0  0  0  0  0  0  0  0  0  0  0  0
   14.6962    4.1658    0.8578 C   0  0  0  0  0  0  0  0  0  0  0  0
   16.0016    4.5810    1.0796 C   0  0  0  0  0  0  0  0  0  0  0  0
   16.3288    5.2190    2.2678 C   0  0  0  0  0  0  0  0  0  0  0  0
   17.9565    5.7298    2.5256 Cl  0  0  0  0  0  0  0  0  0  0  0  0
   15.3866    5.4638    3.2632 C   0  0  0  0  0  0  0  0  0  0  0  0
   14.0896    5.0407    3.0409 C   0  0  0  0  0  0  0  0  0  0  0  0
   12.8899    5.1187    3.8767 C   0  0  0  0  0  0  0  0  0  0  0  0
   12.8487    5.5286    5.1885 C   0  0  0  0  0  0  0  0  0  0  0  0
   13.9657    5.9903    5.9067 C   0  0  0  0  0  0  0  0  0  0  0  0
   14.8462    6.3576    6.5476 N   0  0  0  0  0  0  0  0  0  0  0  0
   11.6986    5.4555    5.9977 C   0  0  0  0  0  0  0  0  0  0  0  0
   10.8092    5.3953    6.7228 N   0  0  0  0  0  0  0  0  0  0  0  0
    9.5097    3.6340    3.0192 C   0  0  0  0  0  0  0  0  0  0  0  0
    9.6240    2.3285    2.4845 C   0  0  0  0  0  0  0  0  0  0  0  0
   10.7394    1.5447    2.4593 N   0  0  0  0  0  0  0  0  0  0  0  0
   11.8063    1.7025    3.3539 C   0  0  0  0  0  0  0  0  0  0  0  0
   13.1158    1.5373    2.9071 C   0  0  0  0  0  0  0  0  0  0  0  0
   14.1766    1.7333    3.7715 C   0  0  0  0  0  0  0  0  0  0  0  0
   13.9666    2.0905    5.0965 C   0  0  0  0  0  0  0  0  0  0  0  0
   15.1108    2.3586    6.0220 C   0  0  0  0  0  0  0  0  0  0  0  0
   12.6530    2.2061    5.5468 C   0  0  0  0  0  0  0  0  0  0  0  0
   11.5860    2.0158    4.6949 C   0  0  0  0  0  0  0  0  0  0  0  0
   10.8261    0.5080    1.5036 C   0  0  0  0  0  0  0  0  0  0  0  0
   10.5324    0.7599    0.1668 C   0  0  0  0  0  0  0  0  0  0  0  0
   10.6426   -0.2540   -0.7619 C   0  0  0  0  0  0  0  0  0  0  0  0
   11.0492   -1.5304   -0.3880 C   0  0  0  0  0  0  0  0  0  0  0  0
   11.2102   -2.5998   -1.4226 C   0  0  0  0  0  0  0  0  0  0  0  0
   11.3348   -1.7699    0.9496 C   0  0  0  0  0  0  0  0  0  0  0  0
   11.2258   -0.7652    1.8919 C   0  0  0  0  0  0  0  0  0  0  0  0
    8.3589    1.8537    2.0772 C   0  0  0  0  0  0  0  0  0  0  0  0
    7.8025    0.3734    1.3679 S   0  0  0  0  0  0  0  0  0  0  0  0
    6.1313    0.9105    1.4745 C   0  0  0  0  0  0  0  0  0  0  0  0
    6.0339    2.2082    1.9750 C   0  0  0  0  0  0  0  0  0  0  0  0
    4.8639    2.9562    2.1334 N   0  0  0  0  0  0  0  0  0  0  0  0
    4.1238    3.3632    1.0207 C   0  0  0  0  0  0  0  0  0  0  0  0
    2.7932    3.7542    1.1725 C   0  0  0  0  0  0  0  0  0  0  0  0
    2.0405    4.1089    0.0719 C   0  0  0  0  0  0  0  0  0  0  0  0
    2.5771    4.0758   -1.2091 C   0  0  0  0  0  0  0  0  0  0  0  0
    1.7612    4.4505   -2.4091 C   0  0  0  0  0  0  0  0  0  0  0  0
    3.9023    3.6823   -1.3539 C   0  0  0  0  0  0  0  0  0  0  0  0
    4.6705    3.3351   -0.2613 C   0  0  0  0  0  0  0  0  0  0  0  0
    4.7283    3.6024    3.3766 C   0  0  0  0  0  0  0  0  0  0  0  0
    4.9814    2.8802    4.5405 C   0  0  0  0  0  0  0  0  0  0  0  0
    4.8999    3.4950    5.7729 C   0  0  0  0  0  0  0  0  0  0  0  0
    4.5580    4.8379    5.8822 C   0  0  0  0  0  0  0  0  0  0  0  0
    4.5030    5.5034    7.2225 C   0  0  0  0  0  0  0  0  0  0  0  0
    4.3006    5.5486    4.7166 C   0  0  0  0  0  0  0  0  0  0  0  0
    4.3889    4.9478    3.4762 C   0  0  0  0  0  0  0  0  0  0  0  0
    7.2996    2.7092    2.3447 C   0  0  0  0  0  0  0  0  0  0  0  0
    7.8182    4.1596    3.1168 S   0  0  0  0  0  0  0  0  0  0  0  0
    5.0844    0.0417    1.0707 C   0  0  0  0  0  0  0  0  0  0  0  0
    5.1627   -1.2534    0.5754 C   0  0  0  0  0  0  0  0  0  0  0  0
    6.3433   -2.1199    0.4728 C   0  0  0  0  0  0  0  0  0  0  0  0
    7.0742   -2.4713    1.6044 C   0  0  0  0  0  0  0  0  0  0  0  0
    8.1105   -3.3782    1.4985 C   0  0  0  0  0  0  0  0  0  0  0  0
    8.4029   -3.9660    0.2805 C   0  0  0  0  0  0  0  0  0  0  0  0
    7.6694   -3.6443   -0.8532 C   0  0  0  0  0  0  0  0  0  0  0  0
    7.9018   -4.3505   -2.1578 C   0  0  0  0  0  0  0  0  0  0  0  0
    6.8973   -5.4942   -2.3170 C   0  0  0  0  0  0  0  0  0  0  0  0
    6.6486   -2.7118   -0.7461 C   0  0  0  0  0  0  0  0  0  0  0  0
    3.8977   -1.7348    0.1961 C   0  0  0  0  0  0  0  0  0  0  0  0
    3.3796   -3.2401   -0.5286 S   0  0  0  0  0  0  0  0  0  0  0  0
    1.7517   -2.6466   -0.5290 C   0  0  0  0  0  0  0  0  0  0  0  0
    0.4769   -3.0342   -0.9675 C   0  0  0  0  0  0  0  0  0  0  0  0
    0.0629   -4.1895   -1.6635 C   0  0  0  0  0  0  0  0  0  0  0  0
   -1.3036   -4.2898   -2.0830 C   0  0  0  0  0  0  0  0  0  0  0  0
   -1.5463   -5.4020   -2.7591 N   0  0  0  0  0  0  0  0  0  0  0  0
   -0.1709   -6.2518   -2.8551 S   0  0  0  0  0  0  0  0  0  0  0  0
    0.7878   -5.2317   -2.0394 N   0  0  0  0  0  0  0  0  0  0  0  0
   -2.2032   -3.2670   -1.7162 C   0  0  0  0  0  0  0  0  0  0  0  0
   -3.5880   -3.1584   -1.9158 C   0  0  0  0  0  0  0  0  0  0  0  0
   -4.8793   -4.0352   -2.6655 S   0  0  0  0  0  0  0  0  0  0  0  0
   -6.0013   -2.8305   -2.0816 C   0  0  0  0  0  0  0  0  0  0  0  0
   -7.3970   -2.6798   -2.2043 C   0  0  0  0  0  0  0  0  0  0  0  0
   -8.2950   -3.6218   -2.8750 C   0  0  0  0  0  0  0  0  0  0  0  0
   -8.1441   -4.9898   -2.6682 C   0  0  0  0  0  0  0  0  0  0  0  0
   -9.0386   -5.8765   -3.2375 C   0  0  0  0  0  0  0  0  0  0  0  0
  -10.0801   -5.4143   -4.0224 C   0  0  0  0  0  0  0  0  0  0  0  0
  -10.2260   -4.0546   -4.2697 C   0  0  0  0  0  0  0  0  0  0  0  0
  -11.3588   -3.5456   -5.1157 C   0  0  0  0  0  0  0  0  0  0  0  0
  -12.6032   -3.2992   -4.2616 C   0  0  0  0  0  0  0  0  0  0  0  0
   -9.3302   -3.1706   -3.6895 C   0  0  0  0  0  0  0  0  0  0  0  0
   -7.8289   -1.5365   -1.5652 C   0  0  0  0  0  0  0  0  0  0  0  0
   -6.5402   -0.6374   -0.8204 S   0  0  0  0  0  0  0  0  0  0  0  0
   -5.3891   -1.8059   -1.3586 C   0  0  0  0  0  0  0  0  0  0  0  0
   -4.0019   -1.9970   -1.2650 C   0  0  0  0  0  0  0  0  0  0  0  0
   -2.9276   -1.3675   -0.6983 N   0  0  0  0  0  0  0  0  0  0  0  0
   -1.7985   -2.1294   -0.9591 C   0  0  0  0  0  0  0  0  0  0  0  0
   -0.4191   -1.9719   -0.6491 C   0  0  0  0  0  0  0  0  0  0  0  0
    0.3143   -0.9611   -0.0447 N   0  0  0  0  0  0  0  0  0  0  0  0
    1.6195   -1.3686    0.0151 C   0  0  0  0  0  0  0  0  0  0  0  0
    2.8487   -0.8453    0.4321 C   0  0  0  0  0  0  0  0  0  0  0  0
    3.4216    0.6180    1.1389 S   0  0  0  0  0  0  0  0  0  0  0  0
    0.0156    0.4384    0.1605 C   0  0  0  0  0  0  0  0  0  0  0  0
   -0.2372    1.1569   -1.1626 C   0  0  0  0  0  0  0  0  0  0  0  0
   -3.1601   -0.3223    0.2717 C   0  0  0  0  0  0  0  0  0  0  0  0
   -2.9299   -0.8219    1.6962 C   0  0  0  0  0  0  0  0  0  0  0  0
   -9.2186   -1.1278   -1.4420 C   0  0  0  0  0  0  0  0  0  0  0  0
   -9.6619    0.1163   -1.9009 C   0  0  0  0  0  0  0  0  0  0  0  0
   -8.4724    1.2909   -2.5100 S   0  0  0  0  0  0  0  0  0  0  0  0
   -8.8583    1.2159   -4.3121 C   0  0  0  0  0  0  0  0  0  0  0  0
   -8.8500    2.6039   -4.9175 C   0  0  0  0  0  0  0  0  0  0  0  0
  -11.0186    0.4580   -1.9019 C   0  0  0  0  0  0  0  0  0  0  0  0
  -11.4214    2.0952   -2.4261 S   0  0  0  0  0  0  0  0  0  0  0  0
  -12.9500    1.9460   -3.4239 C   0  0  0  0  0  0  0  0  0  0  0  0
  -12.8270    0.9572   -4.5652 C   0  0  0  0  0  0  0  0  0  0  0  0
  -11.9603   -0.4800   -1.4668 C   0  0  0  0  0  0  0  0  0  0  0  0
  -11.5220   -1.7480   -1.0617 C   0  0  0  0  0  0  0  0  0  0  0  0
  -10.1618   -2.0641   -0.9872 C   0  0  0  0  0  0  0  0  0  0  0  0
   -9.7308   -3.3338   -0.3513 C   0  0  0  0  0  0  0  0  0  0  0  0
   -8.6631   -3.4836    0.2038 O   0  0  0  0  0  0  0  0  0  0  0  0
  -10.7595   -4.3824   -0.3917 C   0  0  0  0  0  0  0  0  0  0  0  0
  -12.1402   -4.0798   -0.5803 C   0  0  0  0  0  0  0  0  0  0  0  0
  -12.5921   -2.7085   -0.7576 C   0  0  0  0  0  0  0  0  0  0  0  0
  -13.7650   -2.3611   -0.7422 O   0  0  0  0  0  0  0  0  0  0  0  0
  -12.9243   -5.2009   -0.5597 C   0  0  0  0  0  0  0  0  0  0  0  0
  -11.9991   -6.6219   -0.3397 S   0  0  0  0  0  0  0  0  0  0  0  0
  -10.5444   -5.7181   -0.2303 C   0  0  0  0  0  0  0  0  0  0  0  0
  -13.3963   -0.1976   -1.3820 C   0  0  0  0  0  0  0  0  0  0  0  0
  -13.9039    0.5487   -0.3710 C   0  0  0  0  0  0  0  0  0  0  0  0
  -13.1000    0.9292    0.8170 C   0  0  0  0  0  0  0  0  0  0  0  0
  -11.9218    0.7149    0.9996 O   0  0  0  0  0  0  0  0  0  0  0  0
  -14.0519    1.5854    1.7332 C   0  0  0  0  0  0  0  0  0  0  0  0
  -13.8204    2.1197    2.9869 C   0  0  0  0  0  0  0  0  0  0  0  0
  -14.8828    2.6807    3.6763 C   0  0  0  0  0  0  0  0  0  0  0  0
  -16.1507    2.6943    3.1036 C   0  0  0  0  0  0  0  0  0  0  0  0
  -17.4586    3.3925    3.9794 Cl  0  0  0  0  0  0  0  0  0  0  0  0
  -16.3985    2.1610    1.8429 C   0  0  0  0  0  0  0  0  0  0  0  0
  -15.3343    1.6027    1.1537 C   0  0  0  0  0  0  0  0  0  0  0  0
  -15.2721    0.9871   -0.1702 C   0  0  0  0  0  0  0  0  0  0  0  0
  -16.2982    0.8949   -1.0696 C   0  0  0  0  0  0  0  0  0  0  0  0
  -16.1630    0.3844   -2.3782 C   0  0  0  0  0  0  0  0  0  0  0  0
  -16.0983    0.0229   -3.4664 N   0  0  0  0  0  0  0  0  0  0  0  0
  -17.6168    1.3351   -0.8247 C   0  0  0  0  0  0  0  0  0  0  0  0
  -18.7050    1.6726   -0.6894 N   0  0  0  0  0  0  0  0  0  0  0  0
   10.1065    5.3005    4.1535 H   0  0  0  0  0  0  0  0  0  0  0  0
   14.4167    3.6689   -0.0584 H   0  0  0  0  0  0  0  0  0  0  0  0
   16.7654    4.4128    0.3368 H   0  0  0  0  0  0  0  0  0  0  0  0
   15.6793    5.9721    4.1672 H   0  0  0  0  0  0  0  0  0  0  0  0
   13.2944    1.2699    1.8765 H   0  0  0  0  0  0  0  0  0  0  0  0
   15.1854    1.6219    3.4016 H   0  0  0  0  0  0  0  0  0  0  0  0
   16.0523    2.0447    5.5792 H   0  0  0  0  0  0  0  0  0  0  0  0
   14.9716    1.8369    6.9670 H   0  0  0  0  0  0  0  0  0  0  0  0
   15.1751    3.4248    6.2420 H   0  0  0  0  0  0  0  0  0  0  0  0
   12.4654    2.4578    6.5804 H   0  0  0  0  0  0  0  0  0  0  0  0
   10.5770    2.1147    5.0662 H   0  0  0  0  0  0  0  0  0  0  0  0
   10.2581    1.7598   -0.1305 H   0  0  0  0  0  0  0  0  0  0  0  0
   10.4238   -0.0502   -1.7998 H   0  0  0  0  0  0  0  0  0  0  0  0
   11.3460   -3.5734   -0.9599 H   0  0  0  0  0  0  0  0  0  0  0  0
   12.0827   -2.3904   -2.0421 H   0  0  0  0  0  0  0  0  0  0  0  0
   10.3390   -2.6337   -2.0727 H   0  0  0  0  0  0  0  0  0  0  0  0
   11.6492   -2.7552    1.2610 H   0  0  0  0  0  0  0  0  0  0  0  0
   11.4528   -0.9600    2.9300 H   0  0  0  0  0  0  0  0  0  0  0  0
    2.3525    3.7616    2.1579 H   0  0  0  0  0  0  0  0  0  0  0  0
    1.0120    4.4101    0.2130 H   0  0  0  0  0  0  0  0  0  0  0  0
    0.7591    4.7565   -2.1196 H   0  0  0  0  0  0  0  0  0  0  0  0
    1.6824    3.6086   -3.0964 H   0  0  0  0  0  0  0  0  0  0  0  0
    2.2322    5.2725   -2.9467 H   0  0  0  0  0  0  0  0  0  0  0  0
    4.3427    3.6535   -2.3403 H   0  0  0  0  0  0  0  0  0  0  0  0
    5.7004    3.0395   -0.3986 H   0  0  0  0  0  0  0  0  0  0  0  0
    5.2450    1.8345    4.4682 H   0  0  0  0  0  0  0  0  0  0  0  0
    5.1042    2.9234    6.6667 H   0  0  0  0  0  0  0  0  0  0  0  0
    4.0897    4.8319    7.9722 H   0  0  0  0  0  0  0  0  0  0  0  0
    3.8994    6.4068    7.1852 H   0  0  0  0  0  0  0  0  0  0  0  0
    5.5091    5.7797    7.5394 H   0  0  0  0  0  0  0  0  0  0  0  0
    4.0416    6.5958    4.7775 H   0  0  0  0  0  0  0  0  0  0  0  0
    4.2099    5.5231    2.5802 H   0  0  0  0  0  0  0  0  0  0  0  0
    6.8141   -2.0493    2.5639 H   0  0  0  0  0  0  0  0  0  0  0  0
    8.6794   -3.6449    2.3768 H   0  0  0  0  0  0  0  0  0  0  0  0
    9.1967   -4.6956    0.2132 H   0  0  0  0  0  0  0  0  0  0  0  0
    8.9151   -4.7551   -2.1921 H   0  0  0  0  0  0  0  0  0  0  0  0
    7.7807   -3.6502   -2.9873 H   0  0  0  0  0  0  0  0  0  0  0  0
    7.0470   -6.0032   -3.2663 H   0  0  0  0  0  0  0  0  0  0  0  0
    5.8792   -5.1137   -2.2810 H   0  0  0  0  0  0  0  0  0  0  0  0
    7.0186   -6.2160   -1.5125 H   0  0  0  0  0  0  0  0  0  0  0  0
    6.0728   -2.4474   -1.6215 H   0  0  0  0  0  0  0  0  0  0  0  0
   -7.3397   -5.3476   -2.0448 H   0  0  0  0  0  0  0  0  0  0  0  0
   -8.9232   -6.9372   -3.0686 H   0  0  0  0  0  0  0  0  0  0  0  0
  -10.7778   -6.1134   -4.4606 H   0  0  0  0  0  0  0  0  0  0  0  0
  -11.5967   -4.2746   -5.8923 H   0  0  0  0  0  0  0  0  0  0  0  0
  -11.0657   -2.6128   -5.6026 H   0  0  0  0  0  0  0  0  0  0  0  0
  -12.3864   -2.5728   -3.4806 H   0  0  0  0  0  0  0  0  0  0  0  0
  -12.9264   -4.2211   -3.7829 H   0  0  0  0  0  0  0  0  0  0  0  0
  -13.4200   -2.9210   -4.8716 H   0  0  0  0  0  0  0  0  0  0  0  0
   -9.4269   -2.1116   -3.8865 H   0  0  0  0  0  0  0  0  0  0  0  0
    0.8948    0.8781    0.6386 H   0  0  0  0  0  0  0  0  0  0  0  0
   -0.8172    0.5577    0.8521 H   0  0  0  0  0  0  0  0  0  0  0  0
    0.6582    1.1179   -1.7783 H   0  0  0  0  0  0  0  0  0  0  0  0
   -1.0522    0.6930   -1.7138 H   0  0  0  0  0  0  0  0  0  0  0  0
   -0.4803    2.1993   -0.9773 H   0  0  0  0  0  0  0  0  0  0  0  0
   -2.5530    0.5537    0.0452 H   0  0  0  0  0  0  0  0  0  0  0  0
   -4.2057   -0.0245    0.1614 H   0  0  0  0  0  0  0  0  0  0  0  0
   -3.6312   -1.6212    1.9236 H   0  0  0  0  0  0  0  0  0  0  0  0
   -3.0867   -0.0128    2.4045 H   0  0  0  0  0  0  0  0  0  0  0  0
   -1.9213   -1.2105    1.8191 H   0  0  0  0  0  0  0  0  0  0  0  0
   -9.8324    0.7426   -4.4129 H   0  0  0  0  0  0  0  0  0  0  0  0
   -8.0962    0.5800   -4.7635 H   0  0  0  0  0  0  0  0  0  0  0  0
   -9.6039    3.2261   -4.4420 H   0  0  0  0  0  0  0  0  0  0  0  0
   -9.0588    2.5439   -5.9841 H   0  0  0  0  0  0  0  0  0  0  0  0
   -7.8786    3.0711   -4.7782 H   0  0  0  0  0  0  0  0  0  0  0  0
  -13.0850    2.9596   -3.8025 H   0  0  0  0  0  0  0  0  0  0  0  0
  -13.7851    1.7062   -2.7706 H   0  0  0  0  0  0  0  0  0  0  0  0
  -13.7904    0.8643   -5.0620 H   0  0  0  0  0  0  0  0  0  0  0  0
  -12.5367   -0.0283   -4.2051 H   0  0  0  0  0  0  0  0  0  0  0  0
  -12.0897    1.2959   -5.2897 H   0  0  0  0  0  0  0  0  0  0  0  0
  -13.9893   -5.2505   -0.6747 H   0  0  0  0  0  0  0  0  0  0  0  0
   -9.6062   -6.2108   -0.0723 H   0  0  0  0  0  0  0  0  0  0  0  0
  -14.0189   -0.5363   -2.2004 H   0  0  0  0  0  0  0  0  0  0  0  0
  -12.8278    2.0955    3.4093 H   0  0  0  0  0  0  0  0  0  0  0  0
  -14.7380    3.1075    4.6561 H   0  0  0  0  0  0  0  0  0  0  0  0
  -17.3955    2.1887    1.4348 H   0  0  0  0  0  0  0  0  0  0  0  0
  1  2  2  0  0  0  0
  2  3  1  0  0  0  0
  3  4  2  0  0  0  0
  3  5  1  0  0  0  0
  5  6  2  0  0  0  0
  6  7  1  0  0  0  0
  7  8  2  0  0  0  0
  8  9  1  0  0  0  0
  8 10  1  0  0  0  0
 10 11  2  0  0  0  0
 11 12  1  0  0  0  0
 12 13  2  0  0  0  0
 13 14  1  0  0  0  0
 14 15  3  0  0  0  0
 13 16  1  0  0  0  0
 16 17  3  0  0  0  0
  1 18  1  0  0  0  0
 18 19  2  0  0  0  0
 19 20  1  0  0  0  0
 20 21  1  0  0  0  0
 21 22  2  0  0  0  0
 22 23  1  0  0  0  0
 23 24  2  0  0  0  0
 24 25  1  0  0  0  0
 24 26  1  0  0  0  0
 26 27  2  0  0  0  0
 20 28  1  0  0  0  0
 28 29  2  0  0  0  0
 29 30  1  0  0  0  0
 30 31  2  0  0  0  0
 31 32  1  0  0  0  0
 31 33  1  0  0  0  0
 33 34  2  0  0  0  0
 19 35  1  0  0  0  0
 35 36  1  0  0  0  0
 36 37  1  0  0  0  0
 37 38  2  0  0  0  0
 38 39  1  0  0  0  0
 39 40  1  0  0  0  0
 40 41  2  0  0  0  0
 41 42  1  0  0  0  0
 42 43  2  0  0  0  0
 43 44  1  0  0  0  0
 43 45  1  0  0  0  0
 45 46  2  0  0  0  0
 39 47  1  0  0  0  0
 47 48  2  0  0  0  0
 48 49  1  0  0  0  0
 49 50  2  0  0  0  0
 50 51  1  0  0  0  0
 50 52  1  0  0  0  0
 52 53  2  0  0  0  0
 38 54  1  0  0  0  0
 54 55  1  0  0  0  0
 37 56  1  0  0  0  0
 56 57  2  0  0  0  0
 57 58  1  0  0  0  0
 58 59  2  0  0  0  0
 59 60  1  0  0  0  0
 60 61  2  0  0  0  0
 61 62  1  0  0  0  0
 62 63  1  0  0  0  0
 63 64  1  0  0  0  0
 62 65  2  0  0  0  0
 57 66  1  0  0  0  0
 66 67  1  0  0  0  0
 67 68  1  0  0  0  0
 68 69  1  0  0  0  0
 69 70  1  0  0  0  0
 70 71  1  0  0  0  0
 71 72  2  0  0  0  0
 72 73  1  0  0  0  0
 73 74  1  0  0  0  0
 71 75  1  0  0  0  0
 75 76  1  0  0  0  0
 76 77  1  0  0  0  0
 77 78  1  0  0  0  0
 78 79  1  0  0  0  0
 79 80  1  0  0  0  0
 80 81  2  0  0  0  0
 81 82  1  0  0  0  0
 82 83  2  0  0  0  0
 83 84  1  0  0  0  0
 84 85  1  0  0  0  0
 85 86  1  0  0  0  0
 84 87  2  0  0  0  0
 79 88  2  0  0  0  0
 88 89  1  0  0  0  0
 89 90  1  0  0  0  0
 90 91  1  0  0  0  0
 91 92  1  0  0  0  0
 92 93  1  0  0  0  0
 93 94  1  0  0  0  0
 94 95  1  0  0  0  0
 95 96  1  0  0  0  0
 96 97  1  0  0  0  0
 97 98  1  0  0  0  0
 95 99  1  0  0  0  0
 99100  1  0  0  0  0
 92101  1  0  0  0  0
101102  1  0  0  0  0
 88103  1  0  0  0  0
103104  2  0  0  0  0
104105  1  0  0  0  0
105106  1  0  0  0  0
106107  1  0  0  0  0
104108  1  0  0  0  0
108109  1  0  0  0  0
109110  1  0  0  0  0
110111  1  0  0  0  0
108112  2  0  0  0  0
112113  1  0  0  0  0
113114  2  0  0  0  0
114115  1  0  0  0  0
115116  2  0  0  0  0
115117  1  0  0  0  0
117118  1  0  0  0  0
118119  1  0  0  0  0
119120  2  0  0  0  0
118121  2  0  0  0  0
121122  1  0  0  0  0
122123  1  0  0  0  0
112124  1  0  0  0  0
124125  2  0  0  0  0
125126  1  0  0  0  0
126127  2  0  0  0  0
126128  1  0  0  0  0
128129  2  0  0  0  0
129130  1  0  0  0  0
130131  2  0  0  0  0
131132  1  0  0  0  0
131133  1  0  0  0  0
133134  2  0  0  0  0
134135  1  0  0  0  0
135136  2  0  0  0  0
136137  1  0  0  0  0
137138  3  0  0  0  0
136139  1  0  0  0  0
139140  3  0  0  0  0
 12  2  1  0  0  0  0
 55 18  1  0  0  0  0
 98 56  1  0  0  0  0
114103  1  0  0  0  0
123117  2  0  0  0  0
135125  1  0  0  0  0
 11  5  1  0  0  0  0
 27 21  1  0  0  0  0
 34 28  1  0  0  0  0
 54 35  2  0  0  0  0
 65 58  1  0  0  0  0
 97 66  2  0  0  0  0
119113  1  0  0  0  0
134128  1  0  0  0  0
 46 40  1  0  0  0  0
 53 47  1  0  0  0  0
 96 68  2  0  0  0  0
 94 69  2  0  0  0  0
 74 70  2  0  0  0  0
 93 75  2  0  0  0  0
 91 76  2  0  0  0  0
 90 78  2  0  0  0  0
 87 80  1  0  0  0  0
  1141  1  0  0  0  0
  6142  1  0  0  0  0
  7143  1  0  0  0  0
 10144  1  0  0  0  0
 22145  1  0  0  0  0
 23146  1  0  0  0  0
 25147  1  0  0  0  0
 25148  1  0  0  0  0
 25149  1  0  0  0  0
 26150  1  0  0  0  0
 27151  1  0  0  0  0
 29152  1  0  0  0  0
 30153  1  0  0  0  0
 32154  1  0  0  0  0
 32155  1  0  0  0  0
 32156  1  0  0  0  0
 33157  1  0  0  0  0
 34158  1  0  0  0  0
 41159  1  0  0  0  0
 42160  1  0  0  0  0
 44161  1  0  0  0  0
 44162  1  0  0  0  0
 44163  1  0  0  0  0
 45164  1  0  0  0  0
 46165  1  0  0  0  0
 48166  1  0  0  0  0
 49167  1  0  0  0  0
 51168  1  0  0  0  0
 51169  1  0  0  0  0
 51170  1  0  0  0  0
 52171  1  0  0  0  0
 53172  1  0  0  0  0
 59173  1  0  0  0  0
 60174  1  0  0  0  0
 61175  1  0  0  0  0
 63176  1  0  0  0  0
 63177  1  0  0  0  0
 64178  1  0  0  0  0
 64179  1  0  0  0  0
 64180  1  0  0  0  0
 65181  1  0  0  0  0
 81182  1  0  0  0  0
 82183  1  0  0  0  0
 83184  1  0  0  0  0
 85185  1  0  0  0  0
 85186  1  0  0  0  0
 86187  1  0  0  0  0
 86188  1  0  0  0  0
 86189  1  0  0  0  0
 87190  1  0  0  0  0
 99191  1  0  0  0  0
 99192  1  0  0  0  0
100193  1  0  0  0  0
100194  1  0  0  0  0
100195  1  0  0  0  0
101196  1  0  0  0  0
101197  1  0  0  0  0
102198  1  0  0  0  0
102199  1  0  0  0  0
102200  1  0  0  0  0
106201  1  0  0  0  0
106202  1  0  0  0  0
107203  1  0  0  0  0
107204  1  0  0  0  0
107205  1  0  0  0  0
110206  1  0  0  0  0
110207  1  0  0  0  0
111208  1  0  0  0  0
111209  1  0  0  0  0
111210  1  0  0  0  0
121211  1  0  0  0  0
123212  1  0  0  0  0
124213  1  0  0  0  0
129214  1  0  0  0  0
130215  1  0  0  0  0
133216  1  0  0  0  0
M  END
