209

C         -5.19360       -3.12230       -8.88580
C         -6.41560       -3.22370       -9.52670
C         -7.38370       -2.12260       -9.61700
O         -7.28970       -1.00890       -9.13390
C         -8.44480       -2.60580      -10.52980
C         -9.58370       -1.95880      -10.96210
C        -10.44730       -2.63210      -11.81450
C        -10.14680       -3.92490      -12.21960
Cl       -11.23080       -4.74540      -13.28190
C         -8.99630       -4.58630      -11.79830
C         -8.14350       -3.91410      -10.94320
C         -6.88920       -4.32450      -10.30960
C         -6.35770       -5.59240      -10.32430
C         -6.92740       -6.68010      -11.00940
N         -7.35470       -7.60990      -11.53280
C         -5.22420       -5.97700       -9.58250
N         -4.32600       -6.36680       -8.98090
C         -4.89260       -2.27520       -7.82330
C         -5.71670       -1.65570       -6.85450
N         -7.04010       -1.89820       -6.63680
C         -7.81700       -0.92380       -5.97290
C         -7.76940        0.40730       -6.37260
C         -8.53120        1.35040       -5.71110
C         -9.34960        0.99260       -4.64730
C        -10.15240        2.01880       -3.91110
C         -9.39930       -0.34420       -4.26730
C         -8.64470       -1.29810       -4.91950
C         -7.66400       -3.10270       -6.99040
C         -7.01530       -4.32750       -6.83600
C         -7.63620       -5.49460       -7.22630
C         -8.91530       -5.48240       -7.77940
C         -9.54950       -6.75470       -8.24500
C         -9.57190       -4.26410       -7.88680
C         -8.96200       -3.08650       -7.49600
C         -4.94340       -0.82910       -6.00780
S         -5.31930        0.20080       -4.66530
C         -3.61190        0.55000       -4.42620
C         -2.80250       -0.08000       -5.36490
N         -1.42570        0.03910       -5.46500
C         -0.69740       -1.10240       -5.84500
C          0.33490       -1.01590       -6.77310
C          1.01920       -2.15370       -7.15380
C          0.69140       -3.39880       -6.63220
C          1.40680       -4.63940       -7.06930
C         -0.33690       -3.47410       -5.69960
C         -1.02170       -2.34400       -5.30320
C         -0.78140        1.26210       -5.26020
C          0.50590        1.29860       -4.72760
C          1.11870        2.50940       -4.47030
C          0.47100        3.71180       -4.72100
C          1.11350        5.02590       -4.39790
C         -0.80450        3.66800       -5.27380
C         -1.42080        2.46580       -5.55070
C         -3.57660       -0.86540       -6.24990
S         -3.17790       -1.91560       -7.55670
C         -3.20950        1.31680       -3.29470
C         -3.90750        2.31260       -2.63500
C         -5.12340        2.97230       -3.11120
C         -5.26730        3.34550       -4.44540
C         -6.38610        4.04540       -4.85000
C         -7.36280        4.39550       -3.93320
C         -7.23640        4.03430       -2.59900
C         -8.24160        4.47250       -1.57280
C         -7.71940        5.69600       -0.81620
C         -6.11850        3.31600       -2.20310
C         -3.24240        2.70580       -1.45510
S         -3.61580        3.88860       -0.22310
C         -2.14850        3.47150        0.59510
C         -1.48050        3.75900        1.79710
C         -1.87430        4.49740        2.93490
C         -1.08530        4.40290        4.13350
N         -1.62090        5.06950        5.14370
S         -2.99150        5.76430        4.63260
N         -2.95970        5.23610        3.10140
C          0.13570        3.69490        4.09560
C          1.14520        3.50280        5.05820
S          1.45840        3.84030        6.72850
C          3.02560        3.08510        6.56610
C          4.09680        2.88580        7.47290
C          4.01530        3.23980        8.89310
C          5.03290        3.94000        9.53090
C          4.91210        4.26070       10.87020
C          3.78250        3.89220       11.57950
C          2.75070        3.20400       10.95380
C          1.53540        2.77210       11.72310
C          1.73840        1.37010       12.30100
C          2.87910        2.88180        9.61160
C          5.14770        2.25920        6.85640
S          4.84220        1.89260        5.16870
C          3.27620        2.61190        5.28200
C          2.19350        2.84010        4.42100
N          1.87230        2.58560        3.11190
C          0.59540        3.08150        2.89940
C         -0.28790        2.98460        1.79460
N         -0.26810        2.21160        0.65010
C         -1.39720        2.49880       -0.06880
C         -2.03540        2.04420       -1.23010
S         -1.72900        0.86770       -2.45400
C          0.53440        1.05880        0.31320
C          1.42340        1.31910       -0.90380
C          2.95020        2.44270        2.15710
C          3.75520        3.73720        2.03940
C          6.40320        1.75650        7.40260
C          7.50560        2.56940        7.67480
N          7.53290        3.92340        7.52260
C          8.65920        4.43690        7.82170
C          8.98970        5.88030        7.75390
C          7.74660        6.74010        7.55770
S          9.89280        3.27070        8.34740
C          8.72370        2.01120        8.13200
C          8.93190        0.64000        8.28430
C          7.81540       -0.17530        8.02200
C          6.59310        0.39480        7.59730
S          5.41300       -0.86010        7.37810
C          6.63380       -2.02750        7.88970
C          6.27340       -3.46290        7.99470
C          7.49440       -4.37480        7.99770
N          7.77740       -1.52740        8.17070
C         10.19730        0.13360        8.72770
C         10.78860       -1.05020        8.44250
C         11.91370       -1.53440        9.29410
O         12.53530       -0.89270       10.10760
C         12.05850       -2.96460        8.95820
C         12.87930       -3.91560        9.53570
C         12.83020       -5.21470        9.05690
C         11.96640       -5.53640        8.01520
Cl        11.91230       -7.15900        7.44080
C         11.14190       -4.58830        7.41820
C         11.19060       -3.29100        7.89910
C         10.48850       -2.08190        7.47130
C          9.86330       -1.90980        6.26760
C          9.43340       -0.66330        5.76690
N          9.10560        0.32220        5.27840
C          9.62530       -2.94720        5.34310
N          9.37360       -3.75480        4.56690
H         -4.36920       -3.72030       -9.25560
H         -9.79520       -0.95260      -10.63460
H        -11.35110       -2.15980      -12.16610
H         -8.79400       -5.58690      -12.14340
H         -7.15860        0.67910       -7.21900
H         -8.49290        2.38100       -6.02950
H        -11.12660        1.62310       -3.63210
H        -10.29150        2.91060       -4.51640
H         -9.62960        2.30530       -2.99890
H        -10.03530       -0.64100       -3.44590
H         -8.68750       -2.33410       -4.61600
H         -6.02220       -4.36160       -6.41360
H         -7.11730       -6.43460       -7.10810
H         -8.99010       -7.17240       -9.08220
H        -10.57340       -6.58460       -8.56700
H         -9.54890       -7.49630       -7.44770
H        -10.57040       -4.22940       -8.29760
H         -9.48100       -2.14480       -7.59300
H          0.59050       -0.05640       -7.19810
H          1.81470       -2.07230       -7.88040
H          2.29970       -4.39600       -7.63930
H          0.75220       -5.24390       -7.69700
H          1.69140       -5.24310       -6.20920
H         -0.60270       -4.43240       -5.27780
H         -1.81250       -2.41360       -4.57000
H          1.01370        0.37260       -4.50280
H          2.11540        2.51630       -4.05240
H          1.03940        5.70820       -5.24290
H          2.16260        4.89490       -4.14470
H          0.60990        5.49190       -3.55040
H         -1.32050        4.59140       -5.49420
H         -2.40300        2.45120       -5.99900
H         -4.48930        3.10880       -5.15500
H         -6.48770        4.33810       -5.88510
H         -8.22510        4.96240       -4.25420
H         -8.42200        3.66390       -0.86050
H         -9.18780        4.72410       -2.05640
H         -7.54390        6.51860       -1.50590
H         -8.44050        6.01720       -0.06840
H         -6.78130        5.46210       -0.31830
H         -6.01980        3.01860       -1.16950
H          5.89570        4.25270        8.96540
H          5.70240        4.80830       11.36380
H          3.69510        4.14940       12.62550
H          0.66500        2.76800       11.06420
H          1.34480        3.47330       12.53790
H          2.59760        1.35620       12.96810
H          0.85940        1.05740       12.86000
H          1.91500        0.65360       11.50160
H          2.08660        2.33870        9.11690
H         -0.14960        0.23700        0.07160
H          1.11320        0.76010        1.18810
H          2.10100        0.48260       -1.05080
H          2.00670        2.23000       -0.78640
H          0.81340        1.42930       -1.79650
H          3.60020        1.63270        2.50230
H          2.55050        2.19130        1.18230
H          3.10850        4.55480        1.72680
H          4.54430        3.61130        1.30330
H          4.20970        3.99820        2.99120
H          9.68590        6.03300        6.92270
H          9.51640        6.16540        8.66870
H          7.06900        6.62650        8.39960
H          8.02690        7.78650        7.47210
H          7.22090        6.43790        6.65680
H          5.60390       -3.72140        7.17090
H          5.70900       -3.59720        8.92410
H          8.18990       -4.07170        8.77560
H          7.18950       -5.40250        8.17550
H          8.00130       -4.32550        7.03820
H         10.73910        0.77050        9.42200
H         13.54210       -3.64130       10.34150
H         13.45660       -5.98170        9.48410
H         10.48810       -4.87800        6.61250
