199

C         -2.94610       -4.50880       -8.51290
C         -4.08110       -3.88390       -8.96260
C         -4.72540       -4.33570      -10.21520
O         -4.47860       -5.34440      -10.84140
C         -5.70170       -3.27560      -10.55350
C         -6.49280       -3.13590      -11.67670
C         -7.30780       -2.01850      -11.78110
C         -7.31030       -1.06760      -10.76850
Cl        -8.31330        0.32530      -10.92860
C         -6.52820       -1.20040       -9.62490
C         -5.72430       -2.32040       -9.52150
C         -4.82800       -2.76590       -8.45190
C         -4.92950       -2.37160       -7.13890
C         -5.80140       -1.36470       -6.68970
N         -6.49810       -0.55760       -6.26090
C         -4.28510       -3.02340       -6.07060
N         -3.84120       -3.56430       -5.15860
C         -1.96960       -4.00740       -7.64520
C         -0.96400       -4.74480       -6.99250
N         -0.88380       -6.10750       -6.97720
C         -2.04070       -6.91620       -7.05620
C         -2.04280       -8.04480       -7.86860
C         -3.17360       -8.83320       -7.94920
C         -4.31980       -8.51820       -7.22860
C         -5.55410       -9.35560       -7.35630
C         -4.29690       -7.39820       -6.40550
C         -3.17100       -6.60530       -6.30740
C          0.35830       -6.74070       -6.79890
C          1.49460       -6.26540       -7.45080
C          2.69830       -6.92490       -7.31250
C          2.80270       -8.07460       -6.53710
C          4.10380       -8.81000       -6.44860
C          1.66790       -8.53230       -5.87950
C          0.45850       -7.87740       -6.00260
C         -0.09470       -3.88980       -6.28270
S          1.25780       -4.15390       -5.23290
C          1.33940       -2.43400       -4.88480
C          0.41250       -1.69400       -5.61190
N          0.33700       -0.31400       -5.61080
C          1.51080        0.45190       -5.59830
C          1.55780        1.66420       -4.91480
C          2.73210        2.39000       -4.86870
C          3.88690        1.93210       -5.48950
C          5.17220        2.69730       -5.40930
C          3.82690        0.72980       -6.18580
C          2.65720        0.00170       -6.24900
C         -0.92000        0.30550       -5.71470
C         -1.08600        1.43430       -6.51110
C         -2.32200        2.04290       -6.59940
C         -3.42090        1.54530       -5.90900
C         -4.75150        2.22610       -5.98060
C         -3.24710        0.40930       -5.12600
C         -2.01550       -0.20630       -5.02380
C         -0.41050       -2.54140       -6.38480
S         -1.79270       -2.26850       -7.37830
C          2.16390       -1.96710       -3.82180
C          3.34000       -2.51240       -3.34260
C          4.11430       -3.54680       -4.02810
C          4.37390       -3.45560       -5.39350
C          5.13600       -4.42390       -6.01480
C          5.63530       -5.49190       -5.28850
C          5.38010       -5.60390       -3.92880
C          5.87390       -6.77780       -3.13310
C          4.71470       -7.70250       -2.75700
C          4.62630       -4.61880       -3.30800
C          3.71610       -1.92440       -2.11840
S          5.05950       -2.19430       -1.03320
C          4.40610       -1.00140        0.03970
C          4.63160       -0.49060        1.32950
C          5.53640       -0.86640        2.34850
C          5.34130       -0.35930        3.68130
N          6.20200       -0.87140        4.54620
S          7.17980       -1.89260        3.75680
N          6.53850       -1.72790        2.27930
C          4.33650        0.60760        3.90600
C          3.90830        1.29670        5.05510
S          4.18770        1.29660        6.76370
C          2.96480        2.53210        6.94270
C          2.38930        3.14610        8.07080
C          2.70200        2.75780        9.44470
C          4.02210        2.59630        9.85260
C          4.29870        2.18920       11.14430
C          3.26920        1.93010       12.03180
C          1.94360        2.07350       11.63670
C          0.82200        1.74070       12.57980
C          0.47010        0.25510       12.48310
C          1.67260        2.48260       10.34040
C          1.39790        4.04060        7.70240
S          1.14430        4.09150        5.96520
C          2.39680        2.92570        5.72780
C          2.93680        2.21750        4.64830
N          2.74150        2.12460        3.29270
C          3.55300        1.10440        2.83110
C          3.59540        0.44890        1.57840
N          2.74470        0.48420        0.48450
C          3.23340       -0.40750       -0.43470
C          2.83970       -0.93580       -1.67040
S          1.52800       -0.70710       -2.76810
C          1.34530        0.86070        0.43650
C          0.53300        0.16480        1.52420
C          2.27180        3.25560        2.52180
C          3.04470        4.52900        2.86220
C          0.58690        4.88000        8.51600
S         -1.02650        5.25440        8.01780
C         -1.27340        6.21580        9.44620
C         -0.09430        6.27930       10.22820
C          0.96170        5.52510        9.69960
O          2.27170        5.46720       10.07540
C          2.62210        5.56160       11.43800
C          2.18250        6.85800       12.11260
C          0.68980        6.84500       12.42510
O         -0.13360        7.09510       11.30670
C         -2.44400        6.85130        9.85620
C         -3.66710        6.93710        9.23100
C         -3.96970        6.42700        7.89430
O         -3.23360        5.79620        7.15310
C         -5.35690        6.83780        7.60620
C         -6.11200        6.62180        6.47020
C         -7.40750        7.11380        6.43170
C         -7.91470        7.80650        7.52420
Cl        -9.52640        8.41300        7.45780
C         -7.16460        8.02910        8.67580
C         -5.87180        7.53710        8.71210
C         -4.84280        7.59210        9.75480
C         -5.00950        8.13830       11.00250
C         -4.05200        8.13270       12.03820
N         -3.34590        8.15870       12.94450
C         -6.19250        8.76950       11.43910
N         -7.11990        9.30090       11.85910
H         -2.74520       -5.47310       -8.96790
H         -6.47080       -3.88490      -12.45290
H         -7.93800       -1.87760      -12.64490
H         -6.55210       -0.43930       -8.86220
H         -1.16000       -8.29250       -8.43990
H         -3.16930       -9.70240       -8.59020
H         -6.11430       -9.05230       -8.24130
H         -5.30030      -10.40770       -7.46570
H         -6.19880       -9.23400       -6.48940
H         -5.17050       -7.14380       -5.82330
H         -3.16900       -5.74150       -5.65970
H          1.42240       -5.39250       -8.08300
H          3.57010       -6.55240       -7.82910
H          4.04900       -9.61820       -5.72350
H          4.35830       -9.23670       -7.41890
H          4.90480       -8.13150       -6.16340
H          1.72780       -9.41680       -5.26190
H         -0.41600       -8.24450       -5.48670
H          0.67180        2.02450       -4.41370
H          2.75220        3.32580       -4.32870
H          5.64630        2.75660       -6.38730
H          5.00330        3.70540       -5.03920
H          5.86550        2.19530       -4.73380
H          4.70920        0.36340       -6.69100
H          2.61920       -0.91920       -6.81320
H         -0.24260        1.82870       -7.05910
H         -2.43570        2.91880       -7.22200
H         -4.89940        2.84800       -5.09710
H         -5.55540        1.49330       -6.00930
H         -4.81630        2.86320       -6.85950
H         -4.08840        0.00510       -4.58230
H         -1.89640       -1.08180       -4.40190
H          3.99920       -2.61100       -5.95130
H          5.35140       -4.34220       -7.07030
H          6.24550       -6.23550       -5.78200
H          6.35940       -6.42270       -2.22110
H          6.61090       -7.33560       -3.71430
H          5.08470       -8.57880       -2.22990
H          4.18360       -8.02670       -3.64850
H          4.00770       -7.18470       -2.11360
H          4.42710       -4.68870       -2.24880
H          4.82480        2.80530        9.16240
H          5.32430        2.07050       11.46120
H          3.49250        1.61120       13.03990
H          1.11710        1.97380       13.60550
H         -0.06120        2.33480       12.33320
H          1.33380       -0.35510       12.73720
H          0.16160        0.00570       11.47040
H         -0.34150        0.01120       13.16450
H          0.64630        2.58030       10.01410
H          1.21840        1.94190        0.50480
H          0.97910        0.55280       -0.54590
H         -0.51770        0.41620        1.41090
H          0.64380       -0.91400        1.44200
H          0.86060        0.47210        2.51370
H          2.43710        3.03420        1.46930
H          1.20370        3.40650        2.71020
H          2.85730        4.84220        3.88460
H          2.73200        5.32850        2.19610
H          4.11270        4.36520        2.73490
H          3.71170        5.48370       11.42850
H          2.21650        4.70120       11.99040
H          2.73470        6.96990       13.04560
H          2.41360        7.70720       11.46640
H          0.41540        5.88160       12.88030
H          0.43080        7.64800       13.11870
H         -2.33870        7.34340       10.81540
H         -5.69340        6.08040        5.63610
H         -8.02680        6.96480        5.56140
H         -7.59770        8.57200        9.49940
