
  xtb     02072210083D
 energy: -431.554525353297 gnorm: 0.000433158734 xtb: 6.4.1 (unknown)
264290  0     0  0            999 V2000
   -0.2809   -4.2276    5.6913 C   0  0  0  0  0  0  0  0  0  0  0  0
    1.0277   -4.3025    6.1031 C   0  0  0  0  0  0  0  0  0  0  0  0
    2.1982   -3.9941    5.2573 C   0  0  0  0  0  0  0  0  0  0  0  0
    2.2431   -3.8757    4.0473 O   0  0  0  0  0  0  0  0  0  0  0  0
    3.3115   -3.7704    6.2033 C   0  0  0  0  0  0  0  0  0  0  0  0
    4.5979   -3.3360    5.9470 C   0  0  0  0  0  0  0  0  0  0  0  0
    5.4883   -3.2314    7.0040 C   0  0  0  0  0  0  0  0  0  0  0  0
    5.0745   -3.5515    8.2906 C   0  0  0  0  0  0  0  0  0  0  0  0
    6.1951   -3.4210    9.5850 Cl  0  0  0  0  0  0  0  0  0  0  0  0
    3.7708   -3.9527    8.5705 C   0  0  0  0  0  0  0  0  0  0  0  0
    2.8848   -4.0515    7.5133 C   0  0  0  0  0  0  0  0  0  0  0  0
    1.4653   -4.3962    7.4747 C   0  0  0  0  0  0  0  0  0  0  0  0
    0.7072   -4.8075    8.5412 C   0  0  0  0  0  0  0  0  0  0  0  0
   -0.6273   -5.2508    8.4565 C   0  0  0  0  0  0  0  0  0  0  0  0
   -1.6977   -5.6688    8.4771 N   0  0  0  0  0  0  0  0  0  0  0  0
    1.1829   -4.9039    9.8649 C   0  0  0  0  0  0  0  0  0  0  0  0
    1.4952   -5.0062   10.9651 N   0  0  0  0  0  0  0  0  0  0  0  0
   -0.7650   -4.2789    4.3726 C   0  0  0  0  0  0  0  0  0  0  0  0
   -1.8698   -3.5674    3.8712 C   0  0  0  0  0  0  0  0  0  0  0  0
   -2.6347   -2.6774    4.5959 N   0  0  0  0  0  0  0  0  0  0  0  0
   -3.1718   -3.0923    5.8251 C   0  0  0  0  0  0  0  0  0  0  0  0
   -3.2435   -2.2252    6.9098 C   0  0  0  0  0  0  0  0  0  0  0  0
   -3.7656   -2.6665    8.1109 C   0  0  0  0  0  0  0  0  0  0  0  0
   -4.2185   -3.9702    8.2644 C   0  0  0  0  0  0  0  0  0  0  0  0
   -4.7409   -4.4627    9.5753 C   0  0  0  0  0  0  0  0  0  0  0  0
   -4.1488   -4.8278    7.1706 C   0  0  0  0  0  0  0  0  0  0  0  0
   -3.6363   -4.4002    5.9653 C   0  0  0  0  0  0  0  0  0  0  0  0
   -2.9052   -1.4153    4.0531 C   0  0  0  0  0  0  0  0  0  0  0  0
   -1.9637   -0.7976    3.2303 C   0  0  0  0  0  0  0  0  0  0  0  0
   -2.2240    0.4379    2.6738 C   0  0  0  0  0  0  0  0  0  0  0  0
   -3.4151    1.1031    2.9419 C   0  0  0  0  0  0  0  0  0  0  0  0
   -3.6857    2.4508    2.3461 C   0  0  0  0  0  0  0  0  0  0  0  0
   -4.3436    0.4872    3.7732 C   0  0  0  0  0  0  0  0  0  0  0  0
   -4.1032   -0.7580    4.3192 C   0  0  0  0  0  0  0  0  0  0  0  0
   -2.0410   -3.8058    2.4977 C   0  0  0  0  0  0  0  0  0  0  0  0
   -3.1577   -3.2051    1.3194 S   0  0  0  0  0  0  0  0  0  0  0  0
   -2.4333   -4.2352    0.0895 C   0  0  0  0  0  0  0  0  0  0  0  0
   -1.4425   -5.0634    0.6111 C   0  0  0  0  0  0  0  0  0  0  0  0
   -0.8431   -6.0769   -0.1118 N   0  0  0  0  0  0  0  0  0  0  0  0
   -1.5916   -6.8273   -1.0324 C   0  0  0  0  0  0  0  0  0  0  0  0
   -0.9788   -7.3304   -2.1778 C   0  0  0  0  0  0  0  0  0  0  0  0
   -1.7126   -8.0423   -3.1060 C   0  0  0  0  0  0  0  0  0  0  0  0
   -3.0709   -8.2694   -2.9274 C   0  0  0  0  0  0  0  0  0  0  0  0
   -3.8775   -9.0153   -3.9458 C   0  0  0  0  0  0  0  0  0  0  0  0
   -3.6734   -7.7719   -1.7772 C   0  0  0  0  0  0  0  0  0  0  0  0
   -2.9505   -7.0645   -0.8389 C   0  0  0  0  0  0  0  0  0  0  0  0
    0.4754   -6.4544    0.1904 C   0  0  0  0  0  0  0  0  0  0  0  0
    0.8206   -7.7992    0.2815 C   0  0  0  0  0  0  0  0  0  0  0  0
    2.1193   -8.1622    0.5774 C   0  0  0  0  0  0  0  0  0  0  0  0
    3.1006   -7.2030    0.7918 C   0  0  0  0  0  0  0  0  0  0  0  0
    4.5071   -7.5959    1.1269 C   0  0  0  0  0  0  0  0  0  0  0  0
    2.7460   -5.8624    0.6976 C   0  0  0  0  0  0  0  0  0  0  0  0
    1.4520   -5.4852    0.4021 C   0  0  0  0  0  0  0  0  0  0  0  0
   -1.1863   -4.7683    1.9707 C   0  0  0  0  0  0  0  0  0  0  0  0
   -0.0328   -5.2991    3.1395 S   0  0  0  0  0  0  0  0  0  0  0  0
   -2.6666   -3.9792   -1.2925 C   0  0  0  0  0  0  0  0  0  0  0  0
   -3.7236   -3.3466   -1.9142 C   0  0  0  0  0  0  0  0  0  0  0  0
   -5.0970   -3.1719   -1.3549 C   0  0  0  0  0  0  0  0  0  0  0  0
   -6.0795   -4.0823   -2.0938 C   0  0  0  0  0  0  0  0  0  0  0  0
   -3.3663   -2.8893   -3.1977 C   0  0  0  0  0  0  0  0  0  0  0  0
   -4.1140   -1.7362   -4.2887 S   0  0  0  0  0  0  0  0  0  0  0  0
   -2.6040   -1.5716   -5.1293 C   0  0  0  0  0  0  0  0  0  0  0  0
   -1.9498   -0.6380   -5.9638 C   0  0  0  0  0  0  0  0  0  0  0  0
   -2.4086    0.5537   -6.5794 C   0  0  0  0  0  0  0  0  0  0  0  0
   -3.7062    0.8397   -6.6431 N   0  0  0  0  0  0  0  0  0  0  0  0
   -4.0900    1.9632   -7.2275 C   0  0  0  0  0  0  0  0  0  0  0  0
   -5.4970    2.2624   -7.1270 C   0  0  0  0  0  0  0  0  0  0  0  0
   -6.1469    3.4641   -7.0447 C   0  0  0  0  0  0  0  0  0  0  0  0
   -7.5342    3.3232   -6.8631 C   0  0  0  0  0  0  0  0  0  0  0  0
   -7.9438    2.0236   -6.8052 C   0  0  0  0  0  0  0  0  0  0  0  0
   -9.3248    1.5000   -6.6068 C   0  0  0  0  0  0  0  0  0  0  0  0
   -9.4816    0.8551   -5.2284 C   0  0  0  0  0  0  0  0  0  0  0  0
   -6.6040    0.9372   -6.9483 S   0  0  0  0  0  0  0  0  0  0  0  0
   -3.1330    2.7988   -7.8758 C   0  0  0  0  0  0  0  0  0  0  0  0
   -3.4572    3.8782   -8.7819 C   0  0  0  0  0  0  0  0  0  0  0  0
   -2.6834    4.9793   -9.0279 C   0  0  0  0  0  0  0  0  0  0  0  0
   -3.2099    5.8119  -10.0327 C   0  0  0  0  0  0  0  0  0  0  0  0
   -4.3682    5.3409  -10.5734 C   0  0  0  0  0  0  0  0  0  0  0  0
   -5.1775    5.9207  -11.6818 C   0  0  0  0  0  0  0  0  0  0  0  0
   -4.9622    5.1489  -12.9856 C   0  0  0  0  0  0  0  0  0  0  0  0
   -4.8423    3.8468   -9.8320 S   0  0  0  0  0  0  0  0  0  0  0  0
   -1.8381    2.5803   -7.7068 N   0  0  0  0  0  0  0  0  0  0  0  0
   -1.4478    1.5004   -7.0359 C   0  0  0  0  0  0  0  0  0  0  0  0
   -0.0839    1.2783   -6.7026 C   0  0  0  0  0  0  0  0  0  0  0  0
    0.9674    2.1923   -6.4949 C   0  0  0  0  0  0  0  0  0  0  0  0
    1.1712    3.9164   -6.3746 S   0  0  0  0  0  0  0  0  0  0  0  0
    2.5473    3.6689   -5.3135 C   0  0  0  0  0  0  0  0  0  0  0  0
    3.1010    4.4864   -4.3004 C   0  0  0  0  0  0  0  0  0  0  0  0
    2.9160    5.9652   -4.2549 C   0  0  0  0  0  0  0  0  0  0  0  0
    3.6995    6.6219   -5.3935 C   0  0  0  0  0  0  0  0  0  0  0  0
    3.8626    3.7479   -3.4243 C   0  0  0  0  0  0  0  0  0  0  0  0
    4.0925    2.0743   -3.9904 S   0  0  0  0  0  0  0  0  0  0  0  0
    2.9036    2.3261   -5.2174 C   0  0  0  0  0  0  0  0  0  0  0  0
    2.0045    1.4837   -5.8801 C   0  0  0  0  0  0  0  0  0  0  0  0
    1.6646    0.1656   -5.7520 N   0  0  0  0  0  0  0  0  0  0  0  0
    2.4942   -0.7370   -4.9944 C   0  0  0  0  0  0  0  0  0  0  0  0
    3.5977   -1.3445   -5.8583 C   0  0  0  0  0  0  0  0  0  0  0  0
    0.3697    0.0273   -6.2018 C   0  0  0  0  0  0  0  0  0  0  0  0
   -0.5749   -0.9855   -5.9365 C   0  0  0  0  0  0  0  0  0  0  0  0
   -0.4067   -2.1665   -5.2238 N   0  0  0  0  0  0  0  0  0  0  0  0
   -1.6307   -2.4597   -4.6691 C   0  0  0  0  0  0  0  0  0  0  0  0
   -2.0584   -3.2011   -3.5662 C   0  0  0  0  0  0  0  0  0  0  0  0
   -1.2539   -4.1241   -2.3539 S   0  0  0  0  0  0  0  0  0  0  0  0
    0.5301   -3.2365   -5.5041 C   0  0  0  0  0  0  0  0  0  0  0  0
   -0.1492   -4.3875   -6.2458 C   0  0  0  0  0  0  0  0  0  0  0  0
    3.9847    3.8247   -1.9932 C   0  0  0  0  0  0  0  0  0  0  0  0
    2.8769    3.8966   -1.1605 C   0  0  0  0  0  0  0  0  0  0  0  0
    1.5748    4.2202   -1.5747 N   0  0  0  0  0  0  0  0  0  0  0  0
    1.1810    5.5514   -1.6812 C   0  0  0  0  0  0  0  0  0  0  0  0
    1.9029    6.5589   -1.0445 C   0  0  0  0  0  0  0  0  0  0  0  0
    1.5364    7.8824   -1.1932 C   0  0  0  0  0  0  0  0  0  0  0  0
    0.4428    8.2425   -1.9690 C   0  0  0  0  0  0  0  0  0  0  0  0
    0.0313    9.6767   -2.1078 C   0  0  0  0  0  0  0  0  0  0  0  0
   -0.2738    7.2324   -2.6015 C   0  0  0  0  0  0  0  0  0  0  0  0
    0.0877    5.9072   -2.4715 C   0  0  0  0  0  0  0  0  0  0  0  0
    0.6465    3.1657   -1.5095 C   0  0  0  0  0  0  0  0  0  0  0  0
   -0.6370    3.3421   -0.9967 C   0  0  0  0  0  0  0  0  0  0  0  0
   -1.5116    2.2772   -0.9315 C   0  0  0  0  0  0  0  0  0  0  0  0
   -1.1420    1.0058   -1.3579 C   0  0  0  0  0  0  0  0  0  0  0  0
   -2.1048   -0.1385   -1.2729 C   0  0  0  0  0  0  0  0  0  0  0  0
    0.1396    0.8351   -1.8614 C   0  0  0  0  0  0  0  0  0  0  0  0
    1.0235    1.8944   -1.9359 C   0  0  0  0  0  0  0  0  0  0  0  0
    3.1426    3.3435    0.1105 C   0  0  0  0  0  0  0  0  0  0  0  0
    2.0952    2.9104    1.4101 S   0  0  0  0  0  0  0  0  0  0  0  0
    3.4035    1.9869    2.1620 C   0  0  0  0  0  0  0  0  0  0  0  0
    4.5895    2.0183    1.3749 C   0  0  0  0  0  0  0  0  0  0  0  0
    5.7263    1.2909    1.6204 N   0  0  0  0  0  0  0  0  0  0  0  0
    6.9531    1.8580    1.2266 C   0  0  0  0  0  0  0  0  0  0  0  0
    7.9045    1.1200    0.5289 C   0  0  0  0  0  0  0  0  0  0  0  0
    9.0953    1.7087    0.1542 C   0  0  0  0  0  0  0  0  0  0  0  0
    9.3679    3.0382    0.4548 C   0  0  0  0  0  0  0  0  0  0  0  0
   10.6504    3.6770    0.0209 C   0  0  0  0  0  0  0  0  0  0  0  0
    8.4100    3.7678    1.1493 C   0  0  0  0  0  0  0  0  0  0  0  0
    7.2180    3.1900    1.5355 C   0  0  0  0  0  0  0  0  0  0  0  0
    5.6741   -0.0746    1.9617 C   0  0  0  0  0  0  0  0  0  0  0  0
    6.7048   -0.6500    2.6981 C   0  0  0  0  0  0  0  0  0  0  0  0
    6.6946   -2.0077    2.9575 C   0  0  0  0  0  0  0  0  0  0  0  0
    5.6558   -2.8167    2.5156 C   0  0  0  0  0  0  0  0  0  0  0  0
    5.6580   -4.2966    2.7524 C   0  0  0  0  0  0  0  0  0  0  0  0
    4.6101   -2.2240    1.8136 C   0  0  0  0  0  0  0  0  0  0  0  0
    4.6200   -0.8759    1.5253 C   0  0  0  0  0  0  0  0  0  0  0  0
    4.4282    2.8343    0.2467 C   0  0  0  0  0  0  0  0  0  0  0  0
    5.3845    3.1469   -1.1758 S   0  0  0  0  0  0  0  0  0  0  0  0
    3.3260    1.3442    3.3925 C   0  0  0  0  0  0  0  0  0  0  0  0
    2.2661    1.2250    4.2738 C   0  0  0  0  0  0  0  0  0  0  0  0
    0.9082    1.7184    4.0552 C   0  0  0  0  0  0  0  0  0  0  0  0
    0.4663    2.3041    3.0789 O   0  0  0  0  0  0  0  0  0  0  0  0
    0.1379    1.3654    5.2588 C   0  0  0  0  0  0  0  0  0  0  0  0
   -1.1595    1.6602    5.5560 C   0  0  0  0  0  0  0  0  0  0  0  0
   -1.6876    1.2497    6.7996 C   0  0  0  0  0  0  0  0  0  0  0  0
   -3.0140    1.5486    7.1707 C   0  0  0  0  0  0  0  0  0  0  0  0
   -3.5047    1.1735    8.3908 C   0  0  0  0  0  0  0  0  0  0  0  0
   -2.6666    0.4763    9.2708 C   0  0  0  0  0  0  0  0  0  0  0  0
   -3.1663    0.1213   10.4709 F   0  0  0  0  0  0  0  0  0  0  0  0
   -1.3791    0.1430    8.9526 C   0  0  0  0  0  0  0  0  0  0  0  0
   -0.8551    0.5283    7.7032 C   0  0  0  0  0  0  0  0  0  0  0  0
    0.4846    0.2280    7.3573 C   0  0  0  0  0  0  0  0  0  0  0  0
    0.9827    0.6559    6.1562 C   0  0  0  0  0  0  0  0  0  0  0  0
    2.3171    0.5722    5.5586 C   0  0  0  0  0  0  0  0  0  0  0  0
    3.4095    0.0041    6.1739 C   0  0  0  0  0  0  0  0  0  0  0  0
    4.7231   -0.0331    5.6733 C   0  0  0  0  0  0  0  0  0  0  0  0
    5.8292   -0.0883    5.3619 N   0  0  0  0  0  0  0  0  0  0  0  0
    3.3605   -0.5834    7.4515 C   0  0  0  0  0  0  0  0  0  0  0  0
    3.3828   -1.0640    8.4953 N   0  0  0  0  0  0  0  0  0  0  0  0
   -1.0295   -4.0409    6.4551 H   0  0  0  0  0  0  0  0  0  0  0  0
    4.8963   -3.0684    4.9467 H   0  0  0  0  0  0  0  0  0  0  0  0
    6.4964   -2.8879    6.8344 H   0  0  0  0  0  0  0  0  0  0  0  0
    3.4775   -4.1547    9.5872 H   0  0  0  0  0  0  0  0  0  0  0  0
   -2.8800   -1.2144    6.8042 H   0  0  0  0  0  0  0  0  0  0  0  0
   -3.8105   -1.9895    8.9503 H   0  0  0  0  0  0  0  0  0  0  0  0
   -5.6844   -4.9889    9.4423 H   0  0  0  0  0  0  0  0  0  0  0  0
   -4.8858   -3.6426   10.2737 H   0  0  0  0  0  0  0  0  0  0  0  0
   -4.0251   -5.1631   10.0043 H   0  0  0  0  0  0  0  0  0  0  0  0
   -4.4962   -5.8443    7.2716 H   0  0  0  0  0  0  0  0  0  0  0  0
   -3.5866   -5.0735    5.1217 H   0  0  0  0  0  0  0  0  0  0  0  0
   -1.0191   -1.2860    3.0374 H   0  0  0  0  0  0  0  0  0  0  0  0
   -1.4800    0.9076    2.0470 H   0  0  0  0  0  0  0  0  0  0  0  0
   -4.2567    2.3444    1.4227 H   0  0  0  0  0  0  0  0  0  0  0  0
   -2.7521    2.9583    2.1136 H   0  0  0  0  0  0  0  0  0  0  0  0
   -4.2699    3.0683    3.0258 H   0  0  0  0  0  0  0  0  0  0  0  0
   -5.2775    0.9863    3.9909 H   0  0  0  0  0  0  0  0  0  0  0  0
   -4.8424   -1.2285    4.9501 H   0  0  0  0  0  0  0  0  0  0  0  0
    0.0740   -7.1506   -2.3366 H   0  0  0  0  0  0  0  0  0  0  0  0
   -1.2199   -8.4200   -3.9906 H   0  0  0  0  0  0  0  0  0  0  0  0
   -4.5459   -9.7251   -3.4623 H   0  0  0  0  0  0  0  0  0  0  0  0
   -4.4899   -8.3209   -4.5220 H   0  0  0  0  0  0  0  0  0  0  0  0
   -3.2321   -9.5538   -4.6353 H   0  0  0  0  0  0  0  0  0  0  0  0
   -4.7264   -7.9493   -1.6103 H   0  0  0  0  0  0  0  0  0  0  0  0
   -3.4389   -6.6976    0.0518 H   0  0  0  0  0  0  0  0  0  0  0  0
    0.0657   -8.5552    0.1231 H   0  0  0  0  0  0  0  0  0  0  0  0
    2.3710   -9.2105    0.6497 H   0  0  0  0  0  0  0  0  0  0  0  0
    5.2158   -7.0693    0.4895 H   0  0  0  0  0  0  0  0  0  0  0  0
    4.6527   -8.6657    1.0008 H   0  0  0  0  0  0  0  0  0  0  0  0
    4.7316   -7.3379    2.1616 H   0  0  0  0  0  0  0  0  0  0  0  0
    3.4972   -5.1035    0.8524 H   0  0  0  0  0  0  0  0  0  0  0  0
    1.1914   -4.4400    0.3221 H   0  0  0  0  0  0  0  0  0  0  0  0
   -5.1081   -3.4075   -0.2915 H   0  0  0  0  0  0  0  0  0  0  0  0
   -5.4016   -2.1306   -1.4830 H   0  0  0  0  0  0  0  0  0  0  0  0
   -5.7776   -5.1227   -1.9918 H   0  0  0  0  0  0  0  0  0  0  0  0
   -7.0793   -3.9662   -1.6838 H   0  0  0  0  0  0  0  0  0  0  0  0
   -6.1058   -3.8308   -3.1513 H   0  0  0  0  0  0  0  0  0  0  0  0
   -5.6447    4.4144   -7.0869 H   0  0  0  0  0  0  0  0  0  0  0  0
   -8.2079    4.1584   -6.7827 H   0  0  0  0  0  0  0  0  0  0  0  0
   -9.5475    0.7557   -7.3753 H   0  0  0  0  0  0  0  0  0  0  0  0
  -10.0337    2.3239   -6.7127 H   0  0  0  0  0  0  0  0  0  0  0  0
  -10.4924    0.4756   -5.1011 H   0  0  0  0  0  0  0  0  0  0  0  0
   -9.2814    1.5832   -4.4456 H   0  0  0  0  0  0  0  0  0  0  0  0
   -8.7811    0.0305   -5.1197 H   0  0  0  0  0  0  0  0  0  0  0  0
   -1.7758    5.1728   -8.4861 H   0  0  0  0  0  0  0  0  0  0  0  0
   -2.7459    6.7303  -10.3469 H   0  0  0  0  0  0  0  0  0  0  0  0
   -4.8880    6.9646  -11.8209 H   0  0  0  0  0  0  0  0  0  0  0  0
   -6.2375    5.8891  -11.4190 H   0  0  0  0  0  0  0  0  0  0  0  0
   -3.9135    5.1771  -13.2725 H   0  0  0  0  0  0  0  0  0  0  0  0
   -5.5549    5.5858  -13.7855 H   0  0  0  0  0  0  0  0  0  0  0  0
   -5.2580    4.1100  -12.8593 H   0  0  0  0  0  0  0  0  0  0  0  0
    1.8561    6.2013   -4.3679 H   0  0  0  0  0  0  0  0  0  0  0  0
    3.2597    6.3546   -3.2968 H   0  0  0  0  0  0  0  0  0  0  0  0
    3.5594    7.6992   -5.3646 H   0  0  0  0  0  0  0  0  0  0  0  0
    3.3518    6.2517   -6.3551 H   0  0  0  0  0  0  0  0  0  0  0  0
    4.7619    6.4064   -5.3007 H   0  0  0  0  0  0  0  0  0  0  0  0
    1.8715   -1.5008   -4.5354 H   0  0  0  0  0  0  0  0  0  0  0  0
    2.9596   -0.1628   -4.1875 H   0  0  0  0  0  0  0  0  0  0  0  0
    4.2595   -0.5600   -6.2168 H   0  0  0  0  0  0  0  0  0  0  0  0
    3.1853   -1.8604   -6.7230 H   0  0  0  0  0  0  0  0  0  0  0  0
    4.1813   -2.0497   -5.2733 H   0  0  0  0  0  0  0  0  0  0  0  0
    0.9403   -3.6110   -4.5591 H   0  0  0  0  0  0  0  0  0  0  0  0
    1.3331   -2.8448   -6.1260 H   0  0  0  0  0  0  0  0  0  0  0  0
    0.5895   -5.1429   -6.5002 H   0  0  0  0  0  0  0  0  0  0  0  0
   -0.9144   -4.8470   -5.6252 H   0  0  0  0  0  0  0  0  0  0  0  0
   -0.6119   -4.0267   -7.1621 H   0  0  0  0  0  0  0  0  0  0  0  0
    2.7532    6.2990   -0.4302 H   0  0  0  0  0  0  0  0  0  0  0  0
    2.1095    8.6487   -0.6906 H   0  0  0  0  0  0  0  0  0  0  0  0
    0.8759   10.3411   -1.9408 H   0  0  0  0  0  0  0  0  0  0  0  0
   -0.3780    9.8674   -3.0976 H   0  0  0  0  0  0  0  0  0  0  0  0
   -0.7389    9.9188   -1.3744 H   0  0  0  0  0  0  0  0  0  0  0  0
   -1.1228    7.4897   -3.2188 H   0  0  0  0  0  0  0  0  0  0  0  0
   -0.4654    5.1387   -2.9910 H   0  0  0  0  0  0  0  0  0  0  0  0
   -0.9373    4.3130   -0.6324 H   0  0  0  0  0  0  0  0  0  0  0  0
   -2.5012    2.4299   -0.5270 H   0  0  0  0  0  0  0  0  0  0  0  0
   -1.5935   -1.0861   -1.4246 H   0  0  0  0  0  0  0  0  0  0  0  0
   -2.5982   -0.1608   -0.3022 H   0  0  0  0  0  0  0  0  0  0  0  0
   -2.8754   -0.0407   -2.0382 H   0  0  0  0  0  0  0  0  0  0  0  0
    0.4554   -0.1427   -2.1991 H   0  0  0  0  0  0  0  0  0  0  0  0
    2.0200    1.7319   -2.3179 H   0  0  0  0  0  0  0  0  0  0  0  0
    7.7024    0.0899    0.2763 H   0  0  0  0  0  0  0  0  0  0  0  0
    9.8245    1.1259   -0.3895 H   0  0  0  0  0  0  0  0  0  0  0  0
   10.9589    4.4458    0.7255 H   0  0  0  0  0  0  0  0  0  0  0  0
   10.5187    4.1479   -0.9540 H   0  0  0  0  0  0  0  0  0  0  0  0
   11.4431    2.9380   -0.0667 H   0  0  0  0  0  0  0  0  0  0  0  0
    8.6038    4.8009    1.3983 H   0  0  0  0  0  0  0  0  0  0  0  0
    6.4869    3.7631    2.0872 H   0  0  0  0  0  0  0  0  0  0  0  0
    7.5121   -0.0338    3.0608 H   0  0  0  0  0  0  0  0  0  0  0  0
    7.5072   -2.4400    3.5224 H   0  0  0  0  0  0  0  0  0  0  0  0
    6.3701   -4.5719    3.5270 H   0  0  0  0  0  0  0  0  0  0  0  0
    4.6647   -4.6368    3.0405 H   0  0  0  0  0  0  0  0  0  0  0  0
    5.9402   -4.8151    1.8352 H   0  0  0  0  0  0  0  0  0  0  0  0
    3.7786   -2.8294    1.4859 H   0  0  0  0  0  0  0  0  0  0  0  0
    3.8143   -0.4401    0.9524 H   0  0  0  0  0  0  0  0  0  0  0  0
    4.2527    0.8771    3.7031 H   0  0  0  0  0  0  0  0  0  0  0  0
   -1.7721    2.2112    4.8600 H   0  0  0  0  0  0  0  0  0  0  0  0
   -3.6376    2.0825    6.4699 H   0  0  0  0  0  0  0  0  0  0  0  0
   -4.5151    1.3980    8.6937 H   0  0  0  0  0  0  0  0  0  0  0  0
   -0.7667   -0.4016    9.6542 H   0  0  0  0  0  0  0  0  0  0  0  0
    1.0838   -0.3171    8.0682 H   0  0  0  0  0  0  0  0  0  0  0  0
  1  2  2  0  0  0  0
  2  3  1  0  0  0  0
  3  4  2  0  0  0  0
  3  5  1  0  0  0  0
  5  6  2  0  0  0  0
  6  7  1  0  0  0  0
  7  8  2  0  0  0  0
  8  9  1  0  0  0  0
  8 10  1  0  0  0  0
 10 11  2  0  0  0  0
 11 12  1  0  0  0  0
 12 13  2  0  0  0  0
 13 14  1  0  0  0  0
 14 15  3  0  0  0  0
 13 16  1  0  0  0  0
 16 17  3  0  0  0  0
  1 18  1  0  0  0  0
 18 19  2  0  0  0  0
 19 20  1  0  0  0  0
 20 21  1  0  0  0  0
 21 22  2  0  0  0  0
 22 23  1  0  0  0  0
 23 24  2  0  0  0  0
 24 25  1  0  0  0  0
 24 26  1  0  0  0  0
 26 27  2  0  0  0  0
 20 28  1  0  0  0  0
 28 29  2  0  0  0  0
 29 30  1  0  0  0  0
 30 31  2  0  0  0  0
 31 32  1  0  0  0  0
 31 33  1  0  0  0  0
 33 34  2  0  0  0  0
 19 35  1  0  0  0  0
 35 36  1  0  0  0  0
 36 37  1  0  0  0  0
 37 38  2  0  0  0  0
 38 39  1  0  0  0  0
 39 40  1  0  0  0  0
 40 41  2  0  0  0  0
 41 42  1  0  0  0  0
 42 43  2  0  0  0  0
 43 44  1  0  0  0  0
 43 45  1  0  0  0  0
 45 46  2  0  0  0  0
 39 47  1  0  0  0  0
 47 48  2  0  0  0  0
 48 49  1  0  0  0  0
 49 50  2  0  0  0  0
 50 51  1  0  0  0  0
 50 52  1  0  0  0  0
 52 53  2  0  0  0  0
 38 54  1  0  0  0  0
 54 55  1  0  0  0  0
 37 56  1  0  0  0  0
 56 57  2  0  0  0  0
 57 58  1  0  0  0  0
 58 59  1  0  0  0  0
 57 60  1  0  0  0  0
 60 61  1  0  0  0  0
 61 62  1  0  0  0  0
 62 63  1  0  0  0  0
 63 64  2  0  0  0  0
 64 65  1  0  0  0  0
 65 66  2  0  0  0  0
 66 67  1  0  0  0  0
 67 68  2  0  0  0  0
 68 69  1  0  0  0  0
 69 70  2  0  0  0  0
 70 71  1  0  0  0  0
 71 72  1  0  0  0  0
 70 73  1  0  0  0  0
 66 74  1  0  0  0  0
 74 75  1  0  0  0  0
 75 76  2  0  0  0  0
 76 77  1  0  0  0  0
 77 78  2  0  0  0  0
 78 79  1  0  0  0  0
 79 80  1  0  0  0  0
 78 81  1  0  0  0  0
 74 82  2  0  0  0  0
 82 83  1  0  0  0  0
 83 84  2  0  0  0  0
 84 85  1  0  0  0  0
 85 86  1  0  0  0  0
 86 87  1  0  0  0  0
 87 88  1  0  0  0  0
 88 89  1  0  0  0  0
 89 90  1  0  0  0  0
 88 91  2  0  0  0  0
 91 92  1  0  0  0  0
 92 93  1  0  0  0  0
 93 94  1  0  0  0  0
 94 95  1  0  0  0  0
 95 96  1  0  0  0  0
 96 97  1  0  0  0  0
 95 98  1  0  0  0  0
 98 99  2  0  0  0  0
 99100  1  0  0  0  0
100101  1  0  0  0  0
101102  1  0  0  0  0
102103  1  0  0  0  0
100104  1  0  0  0  0
104105  1  0  0  0  0
 91106  1  0  0  0  0
106107  2  0  0  0  0
107108  1  0  0  0  0
108109  1  0  0  0  0
109110  2  0  0  0  0
110111  1  0  0  0  0
111112  2  0  0  0  0
112113  1  0  0  0  0
112114  1  0  0  0  0
114115  2  0  0  0  0
108116  1  0  0  0  0
116117  2  0  0  0  0
117118  1  0  0  0  0
118119  2  0  0  0  0
119120  1  0  0  0  0
119121  1  0  0  0  0
121122  2  0  0  0  0
107123  1  0  0  0  0
123124  1  0  0  0  0
124125  1  0  0  0  0
125126  2  0  0  0  0
126127  1  0  0  0  0
127128  1  0  0  0  0
128129  2  0  0  0  0
129130  1  0  0  0  0
130131  2  0  0  0  0
131132  1  0  0  0  0
131133  1  0  0  0  0
133134  2  0  0  0  0
127135  1  0  0  0  0
135136  2  0  0  0  0
136137  1  0  0  0  0
137138  2  0  0  0  0
138139  1  0  0  0  0
138140  1  0  0  0  0
140141  2  0  0  0  0
126142  1  0  0  0  0
142143  1  0  0  0  0
125144  1  0  0  0  0
144145  2  0  0  0  0
145146  1  0  0  0  0
146147  2  0  0  0  0
146148  1  0  0  0  0
148149  2  0  0  0  0
149150  1  0  0  0  0
150151  2  0  0  0  0
151152  1  0  0  0  0
152153  2  0  0  0  0
153154  1  0  0  0  0
153155  1  0  0  0  0
155156  2  0  0  0  0
156157  1  0  0  0  0
157158  2  0  0  0  0
158159  1  0  0  0  0
159160  2  0  0  0  0
160161  1  0  0  0  0
161162  3  0  0  0  0
160163  1  0  0  0  0
163164  3  0  0  0  0
 12  2  1  0  0  0  0
 55 18  1  0  0  0  0
103 56  1  0  0  0  0
143106  1  0  0  0  0
159145  1  0  0  0  0
 11  5  1  0  0  0  0
 27 21  1  0  0  0  0
 34 28  1  0  0  0  0
 54 35  2  0  0  0  0
102 60  2  0  0  0  0
115109  1  0  0  0  0
122116  1  0  0  0  0
142123  2  0  0  0  0
158148  1  0  0  0  0
 46 40  1  0  0  0  0
 53 47  1  0  0  0  0
101 62  2  0  0  0  0
134128  1  0  0  0  0
141135  1  0  0  0  0
156150  1  0  0  0  0
 99 63  1  0  0  0  0
 83 64  1  0  0  0  0
 98 84  1  0  0  0  0
 73 67  1  0  0  0  0
 81 75  1  0  0  0  0
 94 85  2  0  0  0  0
 93 87  2  0  0  0  0
  1165  1  0  0  0  0
  6166  1  0  0  0  0
  7167  1  0  0  0  0
 10168  1  0  0  0  0
 22169  1  0  0  0  0
 23170  1  0  0  0  0
 25171  1  0  0  0  0
 25172  1  0  0  0  0
 25173  1  0  0  0  0
 26174  1  0  0  0  0
 27175  1  0  0  0  0
 29176  1  0  0  0  0
 30177  1  0  0  0  0
 32178  1  0  0  0  0
 32179  1  0  0  0  0
 32180  1  0  0  0  0
 33181  1  0  0  0  0
 34182  1  0  0  0  0
 41183  1  0  0  0  0
 42184  1  0  0  0  0
 44185  1  0  0  0  0
 44186  1  0  0  0  0
 44187  1  0  0  0  0
 45188  1  0  0  0  0
 46189  1  0  0  0  0
 48190  1  0  0  0  0
 49191  1  0  0  0  0
 51192  1  0  0  0  0
 51193  1  0  0  0  0
 51194  1  0  0  0  0
 52195  1  0  0  0  0
 53196  1  0  0  0  0
 58197  1  0  0  0  0
 58198  1  0  0  0  0
 59199  1  0  0  0  0
 59200  1  0  0  0  0
 59201  1  0  0  0  0
 68202  1  0  0  0  0
 69203  1  0  0  0  0
 71204  1  0  0  0  0
 71205  1  0  0  0  0
 72206  1  0  0  0  0
 72207  1  0  0  0  0
 72208  1  0  0  0  0
 76209  1  0  0  0  0
 77210  1  0  0  0  0
 79211  1  0  0  0  0
 79212  1  0  0  0  0
 80213  1  0  0  0  0
 80214  1  0  0  0  0
 80215  1  0  0  0  0
 89216  1  0  0  0  0
 89217  1  0  0  0  0
 90218  1  0  0  0  0
 90219  1  0  0  0  0
 90220  1  0  0  0  0
 96221  1  0  0  0  0
 96222  1  0  0  0  0
 97223  1  0  0  0  0
 97224  1  0  0  0  0
 97225  1  0  0  0  0
104226  1  0  0  0  0
104227  1  0  0  0  0
105228  1  0  0  0  0
105229  1  0  0  0  0
105230  1  0  0  0  0
110231  1  0  0  0  0
111232  1  0  0  0  0
113233  1  0  0  0  0
113234  1  0  0  0  0
113235  1  0  0  0  0
114236  1  0  0  0  0
115237  1  0  0  0  0
117238  1  0  0  0  0
118239  1  0  0  0  0
120240  1  0  0  0  0
120241  1  0  0  0  0
120242  1  0  0  0  0
121243  1  0  0  0  0
122244  1  0  0  0  0
129245  1  0  0  0  0
130246  1  0  0  0  0
132247  1  0  0  0  0
132248  1  0  0  0  0
132249  1  0  0  0  0
133250  1  0  0  0  0
134251  1  0  0  0  0
136252  1  0  0  0  0
137253  1  0  0  0  0
139254  1  0  0  0  0
139255  1  0  0  0  0
139256  1  0  0  0  0
140257  1  0  0  0  0
141258  1  0  0  0  0
144259  1  0  0  0  0
149260  1  0  0  0  0
151261  1  0  0  0  0
152262  1  0  0  0  0
155263  1  0  0  0  0
157264  1  0  0  0  0
M  END
