
  xtb     02062210583D
 energy: -297.718285254280 gnorm: 0.000429299546 xtb: 6.4.1 (unknown)
177195  0     0  0            999 V2000
    2.8187   -6.8731   -4.3295 C   0  0  0  0  0  0  0  0  0  0  0  0
    3.5719   -8.0096   -4.1056 C   0  0  0  0  0  0  0  0  0  0  0  0
    4.2744   -8.2885   -2.8452 C   0  0  0  0  0  0  0  0  0  0  0  0
    4.2710   -7.6188   -1.8285 O   0  0  0  0  0  0  0  0  0  0  0  0
    5.0972   -9.4899   -3.1106 C   0  0  0  0  0  0  0  0  0  0  0  0
    5.9552  -10.1619   -2.2646 C   0  0  0  0  0  0  0  0  0  0  0  0
    6.6139  -11.2858   -2.7423 C   0  0  0  0  0  0  0  0  0  0  0  0
    6.4078  -11.7018   -4.0504 C   0  0  0  0  0  0  0  0  0  0  0  0
    7.2391  -13.0985   -4.6281 Cl  0  0  0  0  0  0  0  0  0  0  0  0
    5.5510  -11.0282   -4.9169 C   0  0  0  0  0  0  0  0  0  0  0  0
    4.8909   -9.9138   -4.4338 C   0  0  0  0  0  0  0  0  0  0  0  0
    3.9235   -9.0146   -5.0648 C   0  0  0  0  0  0  0  0  0  0  0  0
    3.3357   -9.1991   -6.2927 C   0  0  0  0  0  0  0  0  0  0  0  0
    2.3022   -8.3868   -6.7991 C   0  0  0  0  0  0  0  0  0  0  0  0
    1.4382   -7.7861   -7.2601 N   0  0  0  0  0  0  0  0  0  0  0  0
    3.6330  -10.2663   -7.1594 C   0  0  0  0  0  0  0  0  0  0  0  0
    3.8224  -11.1217   -7.9029 N   0  0  0  0  0  0  0  0  0  0  0  0
    2.1779   -6.1079   -3.3567 C   0  0  0  0  0  0  0  0  0  0  0  0
    1.7220   -6.4323   -2.0582 C   0  0  0  0  0  0  0  0  0  0  0  0
    1.6251   -7.6840   -1.5277 N   0  0  0  0  0  0  0  0  0  0  0  0
    1.6014   -7.8576   -0.1281 C   0  0  0  0  0  0  0  0  0  0  0  0
    2.4995   -7.1744    0.6867 C   0  0  0  0  0  0  0  0  0  0  0  0
    2.4698   -7.3663    2.0530 C   0  0  0  0  0  0  0  0  0  0  0  0
    1.5618   -8.2436    2.6372 C   0  0  0  0  0  0  0  0  0  0  0  0
    1.5346   -8.4268    4.1232 C   0  0  0  0  0  0  0  0  0  0  0  0
    0.6832   -8.9337    1.8109 C   0  0  0  0  0  0  0  0  0  0  0  0
    0.6942   -8.7437    0.4422 C   0  0  0  0  0  0  0  0  0  0  0  0
    1.5353   -8.8345   -2.3280 C   0  0  0  0  0  0  0  0  0  0  0  0
    2.2324   -9.9858   -1.9696 C   0  0  0  0  0  0  0  0  0  0  0  0
    2.1861  -11.1076   -2.7772 C   0  0  0  0  0  0  0  0  0  0  0  0
    1.4452  -11.1168   -3.9507 C   0  0  0  0  0  0  0  0  0  0  0  0
    1.4287  -12.3094   -4.8536 C   0  0  0  0  0  0  0  0  0  0  0  0
    0.7119   -9.9768   -4.2757 C   0  0  0  0  0  0  0  0  0  0  0  0
    0.7515   -8.8513   -3.4810 C   0  0  0  0  0  0  0  0  0  0  0  0
    1.2385   -5.2736   -1.4060 C   0  0  0  0  0  0  0  0  0  0  0  0
    0.5382   -4.9705    0.1490 S   0  0  0  0  0  0  0  0  0  0  0  0
    0.3058   -3.2789   -0.2520 C   0  0  0  0  0  0  0  0  0  0  0  0
    0.6914   -2.9851   -1.5549 C   0  0  0  0  0  0  0  0  0  0  0  0
    0.5434   -1.7682   -2.2004 N   0  0  0  0  0  0  0  0  0  0  0  0
    1.5269   -1.3902   -3.1328 C   0  0  0  0  0  0  0  0  0  0  0  0
    2.8744   -1.6038   -2.8582 C   0  0  0  0  0  0  0  0  0  0  0  0
    3.8350   -1.2583   -3.7885 C   0  0  0  0  0  0  0  0  0  0  0  0
    3.4825   -0.6841   -5.0028 C   0  0  0  0  0  0  0  0  0  0  0  0
    4.5224   -0.3373   -6.0231 C   0  0  0  0  0  0  0  0  0  0  0  0
    2.1344   -0.4599   -5.2611 C   0  0  0  0  0  0  0  0  0  0  0  0
    1.1640   -0.8093   -4.3446 C   0  0  0  0  0  0  0  0  0  0  0  0
   -0.5489   -0.9256   -1.9604 C   0  0  0  0  0  0  0  0  0  0  0  0
   -1.8096   -1.4396   -1.6628 C   0  0  0  0  0  0  0  0  0  0  0  0
   -2.8456   -0.5882   -1.3340 C   0  0  0  0  0  0  0  0  0  0  0  0
   -2.6663    0.7892   -1.2902 C   0  0  0  0  0  0  0  0  0  0  0  0
   -3.7891    1.6917   -0.8799 C   0  0  0  0  0  0  0  0  0  0  0  0
   -1.4226    1.2966   -1.6443 C   0  0  0  0  0  0  0  0  0  0  0  0
   -0.3769    0.4586   -1.9767 C   0  0  0  0  0  0  0  0  0  0  0  0
    1.2343   -4.1277   -2.1889 C   0  0  0  0  0  0  0  0  0  0  0  0
    1.8331   -4.4225   -3.7773 S   0  0  0  0  0  0  0  0  0  0  0  0
   -0.2365   -2.3243    0.6706 C   0  0  0  0  0  0  0  0  0  0  0  0
   -1.4424   -2.3288    1.3401 C   0  0  0  0  0  0  0  0  0  0  0  0
   -2.3272   -3.4853    1.4948 C   0  0  0  0  0  0  0  0  0  0  0  0
   -3.6699   -3.3957    1.1395 C   0  0  0  0  0  0  0  0  0  0  0  0
   -4.5001   -4.4871    1.3054 C   0  0  0  0  0  0  0  0  0  0  0  0
   -4.0048   -5.6684    1.8308 C   0  0  0  0  0  0  0  0  0  0  0  0
   -2.6724   -5.7690    2.2078 C   0  0  0  0  0  0  0  0  0  0  0  0
   -2.1337   -7.0234    2.8309 C   0  0  0  0  0  0  0  0  0  0  0  0
   -2.1694   -6.9237    4.3568 C   0  0  0  0  0  0  0  0  0  0  0  0
   -1.8449   -4.6680    2.0424 C   0  0  0  0  0  0  0  0  0  0  0  0
   -1.7594   -1.0417    1.8248 C   0  0  0  0  0  0  0  0  0  0  0  0
   -3.2020   -0.3881    2.5605 S   0  0  0  0  0  0  0  0  0  0  0  0
   -2.4870    1.1879    2.5022 C   0  0  0  0  0  0  0  0  0  0  0  0
   -2.8387    2.5249    2.7386 C   0  0  0  0  0  0  0  0  0  0  0  0
   -4.0680    3.0852    3.1454 C   0  0  0  0  0  0  0  0  0  0  0  0
   -4.1933    4.5109    3.1973 C   0  0  0  0  0  0  0  0  0  0  0  0
   -5.4092    4.9021    3.5456 N   0  0  0  0  0  0  0  0  0  0  0  0
   -6.3187    3.5841    3.7900 S   0  0  0  0  0  0  0  0  0  0  0  0
   -5.1958    2.4658    3.4583 N   0  0  0  0  0  0  0  0  0  0  0  0
   -3.0576    5.3023    2.9229 C   0  0  0  0  0  0  0  0  0  0  0  0
   -2.8799    6.6902    3.0064 C   0  0  0  0  0  0  0  0  0  0  0  0
   -3.7978    8.1088    3.3773 S   0  0  0  0  0  0  0  0  0  0  0  0
   -2.3502    9.0668    3.1671 C   0  0  0  0  0  0  0  0  0  0  0  0
   -2.0998   10.4428    3.2994 C   0  0  0  0  0  0  0  0  0  0  0  0
   -3.1330   11.3893    3.7209 C   0  0  0  0  0  0  0  0  0  0  0  0
   -2.9184   12.2548    4.7891 C   0  0  0  0  0  0  0  0  0  0  0  0
   -3.9324   13.0952    5.2036 C   0  0  0  0  0  0  0  0  0  0  0  0
   -5.1618   13.0772    4.5662 C   0  0  0  0  0  0  0  0  0  0  0  0
   -5.3946   12.2129    3.5050 C   0  0  0  0  0  0  0  0  0  0  0  0
   -6.7430   12.1351    2.8494 C   0  0  0  0  0  0  0  0  0  0  0  0
   -7.5670   11.0065    3.4731 C   0  0  0  0  0  0  0  0  0  0  0  0
   -4.3731   11.3695    3.0940 C   0  0  0  0  0  0  0  0  0  0  0  0
   -0.7708   10.7388    3.0303 C   0  0  0  0  0  0  0  0  0  0  0  0
    0.1719    9.3009    2.6549 S   0  0  0  0  0  0  0  0  0  0  0  0
   -1.2262    8.3048    2.8280 C   0  0  0  0  0  0  0  0  0  0  0  0
   -1.5339    6.9438    2.7304 C   0  0  0  0  0  0  0  0  0  0  0  0
   -0.8814    5.7683    2.4728 N   0  0  0  0  0  0  0  0  0  0  0  0
   -1.7978    4.7359    2.5643 C   0  0  0  0  0  0  0  0  0  0  0  0
   -1.7125    3.3260    2.3852 C   0  0  0  0  0  0  0  0  0  0  0  0
   -0.7267    2.4790    1.9074 N   0  0  0  0  0  0  0  0  0  0  0  0
   -1.1931    1.1971    1.9810 C   0  0  0  0  0  0  0  0  0  0  0  0
   -0.7799   -0.0810    1.5831 C   0  0  0  0  0  0  0  0  0  0  0  0
    0.5842   -0.7692    0.7825 S   0  0  0  0  0  0  0  0  0  0  0  0
    0.5180    2.7190    1.2159 C   0  0  0  0  0  0  0  0  0  0  0  0
    1.7276    2.3887    2.0903 C   0  0  0  0  0  0  0  0  0  0  0  0
    0.5562    5.7866    2.3382 C   0  0  0  0  0  0  0  0  0  0  0  0
    0.9941    6.2591    0.9515 C   0  0  0  0  0  0  0  0  0  0  0  0
   -0.1387   12.0147    2.9306 C   0  0  0  0  0  0  0  0  0  0  0  0
    1.2542   12.1450    2.7240 C   0  0  0  0  0  0  0  0  0  0  0  0
    1.8397   13.3074    2.6456 N   0  0  0  0  0  0  0  0  0  0  0  0
    1.0807   14.4118    2.7441 C   0  0  0  0  0  0  0  0  0  0  0  0
   -0.3081   14.2846    2.9079 C   0  0  0  0  0  0  0  0  0  0  0  0
   -0.8997   13.1186    3.0047 N   0  0  0  0  0  0  0  0  0  0  0  0
    1.7339   15.6848    2.6639 C   0  0  0  0  0  0  0  0  0  0  0  0
    3.0686   15.8263    2.4599 C   0  0  0  0  0  0  0  0  0  0  0  0
    3.6570   17.1092    2.3858 C   0  0  0  0  0  0  0  0  0  0  0  0
    4.1232   18.1550    2.3270 N   0  0  0  0  0  0  0  0  0  0  0  0
    3.9782   14.7528    2.3018 C   0  0  0  0  0  0  0  0  0  0  0  0
    4.8072   13.9735    2.1569 N   0  0  0  0  0  0  0  0  0  0  0  0
    2.7472   -6.4959   -5.3427 H   0  0  0  0  0  0  0  0  0  0  0  0
    6.1007   -9.8182   -1.2521 H   0  0  0  0  0  0  0  0  0  0  0  0
    7.2861  -11.8402   -2.1065 H   0  0  0  0  0  0  0  0  0  0  0  0
    5.4249  -11.3779   -5.9284 H   0  0  0  0  0  0  0  0  0  0  0  0
    3.2345   -6.5285    0.2334 H   0  0  0  0  0  0  0  0  0  0  0  0
    3.1720   -6.8356    2.6791 H   0  0  0  0  0  0  0  0  0  0  0  0
    0.8916   -9.2575    4.4023 H   0  0  0  0  0  0  0  0  0  0  0  0
    2.5366   -8.6148    4.5047 H   0  0  0  0  0  0  0  0  0  0  0  0
    1.1600   -7.5239    4.6050 H   0  0  0  0  0  0  0  0  0  0  0  0
   -0.0229   -9.6285    2.2421 H   0  0  0  0  0  0  0  0  0  0  0  0
    0.0014   -9.2806   -0.1890 H   0  0  0  0  0  0  0  0  0  0  0  0
    2.8181   -9.9919   -1.0627 H   0  0  0  0  0  0  0  0  0  0  0  0
    2.7504  -11.9842   -2.4939 H   0  0  0  0  0  0  0  0  0  0  0  0
    0.4054  -12.6110   -5.0705 H   0  0  0  0  0  0  0  0  0  0  0  0
    1.9554  -13.1466   -4.4033 H   0  0  0  0  0  0  0  0  0  0  0  0
    1.9090  -12.0725   -5.8031 H   0  0  0  0  0  0  0  0  0  0  0  0
    0.1068   -9.9712   -5.1704 H   0  0  0  0  0  0  0  0  0  0  0  0
    0.1778   -7.9786   -3.7550 H   0  0  0  0  0  0  0  0  0  0  0  0
    3.1637   -2.0397   -1.9127 H   0  0  0  0  0  0  0  0  0  0  0  0
    4.8769   -1.4352   -3.5637 H   0  0  0  0  0  0  0  0  0  0  0  0
    4.6120   -1.1456   -6.7496 H   0  0  0  0  0  0  0  0  0  0  0  0
    4.2510    0.5675   -6.5624 H   0  0  0  0  0  0  0  0  0  0  0  0
    5.4940   -0.1938   -5.5565 H   0  0  0  0  0  0  0  0  0  0  0  0
    1.8400   -0.0154   -6.2007 H   0  0  0  0  0  0  0  0  0  0  0  0
    0.1196   -0.6411   -4.5619 H   0  0  0  0  0  0  0  0  0  0  0  0
   -1.9719   -2.5074   -1.6817 H   0  0  0  0  0  0  0  0  0  0  0  0
   -3.8163   -1.0010   -1.1021 H   0  0  0  0  0  0  0  0  0  0  0  0
   -4.2831    1.3090    0.0117 H   0  0  0  0  0  0  0  0  0  0  0  0
   -4.5346    1.7546   -1.6728 H   0  0  0  0  0  0  0  0  0  0  0  0
   -3.4261    2.6957   -0.6712 H   0  0  0  0  0  0  0  0  0  0  0  0
   -1.2651    2.3663   -1.6451 H   0  0  0  0  0  0  0  0  0  0  0  0
    0.5920    0.8675   -2.2242 H   0  0  0  0  0  0  0  0  0  0  0  0
   -4.0534   -2.4754    0.7280 H   0  0  0  0  0  0  0  0  0  0  0  0
   -5.5404   -4.4168    1.0238 H   0  0  0  0  0  0  0  0  0  0  0  0
   -4.6602   -6.5183    1.9554 H   0  0  0  0  0  0  0  0  0  0  0  0
   -1.1045   -7.1796    2.5018 H   0  0  0  0  0  0  0  0  0  0  0  0
   -2.7302   -7.8802    2.5119 H   0  0  0  0  0  0  0  0  0  0  0  0
   -1.5707   -6.0809    4.6947 H   0  0  0  0  0  0  0  0  0  0  0  0
   -3.1899   -6.7767    4.7036 H   0  0  0  0  0  0  0  0  0  0  0  0
   -1.7773   -7.8327    4.8068 H   0  0  0  0  0  0  0  0  0  0  0  0
   -0.8158   -4.7225    2.3679 H   0  0  0  0  0  0  0  0  0  0  0  0
   -1.9667   12.2534    5.2981 H   0  0  0  0  0  0  0  0  0  0  0  0
   -3.7670   13.7659    6.0341 H   0  0  0  0  0  0  0  0  0  0  0  0
   -5.9493   13.7383    4.8986 H   0  0  0  0  0  0  0  0  0  0  0  0
   -7.2728   13.0816    2.9727 H   0  0  0  0  0  0  0  0  0  0  0  0
   -6.6250   11.9453    1.7807 H   0  0  0  0  0  0  0  0  0  0  0  0
   -8.5426   10.9398    2.9974 H   0  0  0  0  0  0  0  0  0  0  0  0
   -7.7103   11.1870    4.5361 H   0  0  0  0  0  0  0  0  0  0  0  0
   -7.0551   10.0541    3.3550 H   0  0  0  0  0  0  0  0  0  0  0  0
   -4.5389   10.6983    2.2635 H   0  0  0  0  0  0  0  0  0  0  0  0
    0.5450    3.7435    0.8578 H   0  0  0  0  0  0  0  0  0  0  0  0
    0.5327    2.0595    0.3411 H   0  0  0  0  0  0  0  0  0  0  0  0
    2.6422    2.6660    1.5738 H   0  0  0  0  0  0  0  0  0  0  0  0
    1.7580    1.3216    2.2936 H   0  0  0  0  0  0  0  0  0  0  0  0
    1.6883    2.9108    3.0443 H   0  0  0  0  0  0  0  0  0  0  0  0
    0.9439    6.4918    3.0818 H   0  0  0  0  0  0  0  0  0  0  0  0
    0.9556    4.8052    2.5769 H   0  0  0  0  0  0  0  0  0  0  0  0
    2.0716    6.1636    0.8532 H   0  0  0  0  0  0  0  0  0  0  0  0
    0.5149    5.6836    0.1621 H   0  0  0  0  0  0  0  0  0  0  0  0
    0.7282    7.3032    0.8111 H   0  0  0  0  0  0  0  0  0  0  0  0
    1.8955   11.2781    2.6310 H   0  0  0  0  0  0  0  0  0  0  0  0
   -0.9560   15.1501    2.9590 H   0  0  0  0  0  0  0  0  0  0  0  0
    1.1189   16.5687    2.7673 H   0  0  0  0  0  0  0  0  0  0  0  0
  1  2  2  0  0  0  0
  2  3  1  0  0  0  0
  3  4  2  0  0  0  0
  3  5  1  0  0  0  0
  5  6  2  0  0  0  0
  6  7  1  0  0  0  0
  7  8  2  0  0  0  0
  8  9  1  0  0  0  0
  8 10  1  0  0  0  0
 10 11  2  0  0  0  0
 11 12  1  0  0  0  0
 12 13  2  0  0  0  0
 13 14  1  0  0  0  0
 14 15  3  0  0  0  0
 13 16  1  0  0  0  0
 16 17  3  0  0  0  0
  1 18  1  0  0  0  0
 18 19  2  0  0  0  0
 19 20  1  0  0  0  0
 20 21  1  0  0  0  0
 21 22  2  0  0  0  0
 22 23  1  0  0  0  0
 23 24  2  0  0  0  0
 24 25  1  0  0  0  0
 24 26  1  0  0  0  0
 26 27  2  0  0  0  0
 20 28  1  0  0  0  0
 28 29  2  0  0  0  0
 29 30  1  0  0  0  0
 30 31  2  0  0  0  0
 31 32  1  0  0  0  0
 31 33  1  0  0  0  0
 33 34  2  0  0  0  0
 19 35  1  0  0  0  0
 35 36  1  0  0  0  0
 36 37  1  0  0  0  0
 37 38  2  0  0  0  0
 38 39  1  0  0  0  0
 39 40  1  0  0  0  0
 40 41  2  0  0  0  0
 41 42  1  0  0  0  0
 42 43  2  0  0  0  0
 43 44  1  0  0  0  0
 43 45  1  0  0  0  0
 45 46  2  0  0  0  0
 39 47  1  0  0  0  0
 47 48  2  0  0  0  0
 48 49  1  0  0  0  0
 49 50  2  0  0  0  0
 50 51  1  0  0  0  0
 50 52  1  0  0  0  0
 52 53  2  0  0  0  0
 38 54  1  0  0  0  0
 54 55  1  0  0  0  0
 37 56  1  0  0  0  0
 56 57  2  0  0  0  0
 57 58  1  0  0  0  0
 58 59  2  0  0  0  0
 59 60  1  0  0  0  0
 60 61  2  0  0  0  0
 61 62  1  0  0  0  0
 62 63  1  0  0  0  0
 63 64  1  0  0  0  0
 62 65  2  0  0  0  0
 57 66  1  0  0  0  0
 66 67  1  0  0  0  0
 67 68  1  0  0  0  0
 68 69  1  0  0  0  0
 69 70  1  0  0  0  0
 70 71  1  0  0  0  0
 71 72  2  0  0  0  0
 72 73  1  0  0  0  0
 73 74  1  0  0  0  0
 71 75  1  0  0  0  0
 75 76  1  0  0  0  0
 76 77  1  0  0  0  0
 77 78  1  0  0  0  0
 78 79  1  0  0  0  0
 79 80  1  0  0  0  0
 80 81  2  0  0  0  0
 81 82  1  0  0  0  0
 82 83  2  0  0  0  0
 83 84  1  0  0  0  0
 84 85  1  0  0  0  0
 85 86  1  0  0  0  0
 84 87  2  0  0  0  0
 79 88  2  0  0  0  0
 88 89  1  0  0  0  0
 89 90  1  0  0  0  0
 90 91  1  0  0  0  0
 91 92  1  0  0  0  0
 92 93  1  0  0  0  0
 93 94  1  0  0  0  0
 94 95  1  0  0  0  0
 95 96  1  0  0  0  0
 96 97  1  0  0  0  0
 97 98  1  0  0  0  0
 95 99  1  0  0  0  0
 99100  1  0  0  0  0
 92101  1  0  0  0  0
101102  1  0  0  0  0
 88103  1  0  0  0  0
103104  2  0  0  0  0
104105  1  0  0  0  0
105106  2  0  0  0  0
106107  1  0  0  0  0
107108  2  0  0  0  0
106109  1  0  0  0  0
109110  2  0  0  0  0
110111  1  0  0  0  0
111112  3  0  0  0  0
110113  1  0  0  0  0
113114  3  0  0  0  0
 12  2  1  0  0  0  0
 55 18  1  0  0  0  0
 98 56  1  0  0  0  0
108103  1  0  0  0  0
 11  5  1  0  0  0  0
 27 21  1  0  0  0  0
 34 28  1  0  0  0  0
 54 35  2  0  0  0  0
 65 58  1  0  0  0  0
 97 66  2  0  0  0  0
 46 40  1  0  0  0  0
 53 47  1  0  0  0  0
 96 68  2  0  0  0  0
 94 69  2  0  0  0  0
 74 70  2  0  0  0  0
 93 75  2  0  0  0  0
 91 76  2  0  0  0  0
 90 78  2  0  0  0  0
 87 80  1  0  0  0  0
  1115  1  0  0  0  0
  6116  1  0  0  0  0
  7117  1  0  0  0  0
 10118  1  0  0  0  0
 22119  1  0  0  0  0
 23120  1  0  0  0  0
 25121  1  0  0  0  0
 25122  1  0  0  0  0
 25123  1  0  0  0  0
 26124  1  0  0  0  0
 27125  1  0  0  0  0
 29126  1  0  0  0  0
 30127  1  0  0  0  0
 32128  1  0  0  0  0
 32129  1  0  0  0  0
 32130  1  0  0  0  0
 33131  1  0  0  0  0
 34132  1  0  0  0  0
 41133  1  0  0  0  0
 42134  1  0  0  0  0
 44135  1  0  0  0  0
 44136  1  0  0  0  0
 44137  1  0  0  0  0
 45138  1  0  0  0  0
 46139  1  0  0  0  0
 48140  1  0  0  0  0
 49141  1  0  0  0  0
 51142  1  0  0  0  0
 51143  1  0  0  0  0
 51144  1  0  0  0  0
 52145  1  0  0  0  0
 53146  1  0  0  0  0
 59147  1  0  0  0  0
 60148  1  0  0  0  0
 61149  1  0  0  0  0
 63150  1  0  0  0  0
 63151  1  0  0  0  0
 64152  1  0  0  0  0
 64153  1  0  0  0  0
 64154  1  0  0  0  0
 65155  1  0  0  0  0
 81156  1  0  0  0  0
 82157  1  0  0  0  0
 83158  1  0  0  0  0
 85159  1  0  0  0  0
 85160  1  0  0  0  0
 86161  1  0  0  0  0
 86162  1  0  0  0  0
 86163  1  0  0  0  0
 87164  1  0  0  0  0
 99165  1  0  0  0  0
 99166  1  0  0  0  0
100167  1  0  0  0  0
100168  1  0  0  0  0
100169  1  0  0  0  0
101170  1  0  0  0  0
101171  1  0  0  0  0
102172  1  0  0  0  0
102173  1  0  0  0  0
102174  1  0  0  0  0
104175  1  0  0  0  0
107176  1  0  0  0  0
109177  1  0  0  0  0
M  END
