213

C         -4.21740       -6.94350       -8.43410
C         -3.53740       -6.55120       -9.57340
C         -2.12180       -6.15860       -9.58480
O         -1.36250       -6.08620       -8.63540
C         -1.77130       -5.98860      -11.01260
C         -0.56530       -5.62650      -11.57610
C         -0.48680       -5.50520      -12.95610
C         -1.60730       -5.75910      -13.73500
Cl        -1.49080       -5.60330      -15.44920
C         -2.82720       -6.13590      -13.17990
C         -2.90250       -6.24670      -11.80420
C         -4.02060       -6.58390      -10.92140
C         -5.33200       -6.73120      -11.30540
C         -5.78190       -6.64100      -12.63470
N         -6.20980       -6.55430      -13.69780
C         -6.39910       -6.90630      -10.40300
N         -7.31910       -7.01650       -9.72360
C         -3.92110       -6.54970       -7.13240
C         -3.22860       -5.42040       -6.63360
N         -2.85260       -4.31420       -7.33440
C         -1.84000       -3.48270       -6.80430
C         -2.05470       -2.11380       -6.69500
C         -1.07690       -1.30690       -6.14600
C          0.12650       -1.84100       -5.70220
C          1.16870       -0.97330       -5.06660
C          0.34020       -3.20780       -5.84560
C         -0.62790       -4.02670       -6.39100
C         -3.46030       -3.91790       -8.53410
C         -4.83660       -4.03470       -8.72580
C         -5.39940       -3.68140       -9.93350
C         -4.61700       -3.20300      -10.98300
C         -5.24100       -2.87610      -12.30260
C         -3.25570       -3.04070      -10.76550
C         -2.67880       -3.38780       -9.55800
C         -3.08310       -5.51910       -5.23280
S         -2.35200       -4.52920       -4.01710
C         -2.89990       -5.61200       -2.74300
C         -3.62700       -6.67680       -3.24580
N         -4.28260       -7.68180       -2.50700
C         -3.89040       -9.00670       -2.70760
C         -2.74300       -9.31870       -3.43670
C         -2.33270      -10.62900       -3.57730
C         -3.03720      -11.67390       -2.99500
C         -2.57250      -13.09070       -3.14940
C         -4.16190      -11.35680       -2.24570
C         -4.58210      -10.05130       -2.09680
C         -5.62690       -7.36320       -2.18490
C         -6.69120       -8.05550       -2.75770
C         -7.99080       -7.73470       -2.42330
C         -8.27090       -6.70610       -1.52980
C         -9.68700       -6.38860       -1.15850
C         -7.20640       -5.99160       -0.99910
C         -5.89960       -6.30860       -1.32270
C         -3.71380       -6.61210       -4.65480
S         -4.51080       -7.59230       -5.82520
C         -2.56860       -5.22190       -1.41200
C         -2.57820       -5.90810       -0.21300
C         -2.79710       -7.34040        0.02210
C         -1.92520       -8.28400       -0.50800
C         -2.05570       -9.61180       -0.14930
C         -3.06180      -10.00730        0.71400
C         -3.94720       -9.07730        1.24240
C         -5.06980       -9.48880        2.15080
C         -6.37500       -9.63610        1.36590
C         -3.79420       -7.74250        0.90090
C         -2.23600       -5.06260        0.86160
S         -2.07890       -5.36660        2.57410
C         -1.56580       -3.72700        2.78760
C         -1.19440       -2.85610        3.82480
C         -1.20710       -3.01850        5.22680
C         -0.88660       -1.89310        6.05780
N         -0.99840       -2.16850        7.34790
S         -1.46160       -3.71200        7.50390
N         -1.53890       -4.08910        5.93170
C         -0.44310       -0.69960        5.44810
C          0.09510        0.47400        6.00200
S          0.42850        1.15680        7.55740
C          1.18430        2.52030        6.76730
C          1.85910        3.65160        7.26960
C          2.07540        3.85090        8.70450
C          1.00880        3.74160        9.59100
C          1.22800        3.87230       10.94960
C          2.50490        4.09690       11.43220
C          3.58320        4.19190       10.56070
C          4.96530        4.47600       11.07240
C          5.20210        5.98640       11.11560
C          3.35630        4.07200        9.19890
C          2.33200        4.44860        6.24320
S          1.95930        3.78610        4.65610
C          1.16130        2.43410        5.37450
C          0.52970        1.26350        4.93620
N          0.24480        0.65060        3.74260
C         -0.35630       -0.56660        4.03460
C         -0.86270       -1.61160        3.21880
N         -1.09320       -1.71380        1.85840
C         -1.51090       -2.99300        1.59970
C         -1.91510       -3.75400        0.49630
S         -2.09440       -3.53360       -1.20710
C         -1.29720       -0.67910        0.87050
C         -0.22300       -0.69210       -0.21660
C          1.02020        1.02740        2.58070
C          2.28040        0.17230        2.46440
C          2.98810        5.71360        6.28720
C          3.09830        6.61640        7.30640
C          3.76680        7.81000        6.94530
C          3.97900        8.91350        7.80430
O          3.52310        8.72660        9.06870
C          3.70120        9.70520       10.07640
C          5.10750        9.71170       10.66510
C          4.58380       10.02560        7.23960
C          5.01690       10.02410        5.88210
C          4.83590        8.90440        5.03380
O          5.31550        9.06180        3.78520
C          5.21860        8.02720        2.82520
C          5.89330        8.53030        1.55910
C          4.18910        7.81490        5.59040
S          3.74010        6.30620        4.81980
C          5.62210       11.22690        5.48380
C          5.67210       12.18150        6.47050
S          4.93710       11.58140        7.95800
C          6.17920       13.49500        6.52650
C          6.77450       14.29090        5.58440
C          7.03640       13.99760        4.14930
O          6.81260       12.97730        3.52790
C          7.63500       15.22160        3.61170
C          7.75180       16.20080        4.64860
C          8.30440       17.36400        4.21200
S          8.68520       17.27150        2.52980
C          8.09280       15.63280        2.39880
C          8.12210       14.88570        1.12150
C          7.23560       15.64160        5.88070
C          7.22810       16.31590        7.07620
C          6.77260       15.84360        8.32170
N          6.42930       15.54220        9.37640
C          7.72130       17.63400        7.16710
N          8.11920       18.70640        7.26480
H         -5.02980       -7.65270       -8.53790
H          0.29230       -5.43510      -10.94980
H          0.43730       -5.21460      -13.43050
H         -3.67130       -6.33320      -13.82000
H         -2.99030       -1.69130       -7.03160
H         -1.25670       -0.24550       -6.05460
H          1.14020       -1.09550       -3.98340
H          2.16360       -1.25180       -5.40740
H          0.99740        0.07530       -5.29620
H          1.27960       -3.63510       -5.52690
H         -0.45480       -5.08270       -6.52720
H         -5.46260       -4.40870       -7.92950
H         -6.46560       -3.78790      -10.07090
H         -5.97830       -2.08230      -12.18840
H         -4.49000       -2.55480      -13.01930
H         -5.75610       -3.74700      -12.70680
H         -2.63010       -2.65460      -11.55710
H         -1.61650       -3.26810       -9.40620
H         -2.15560       -8.53500       -3.89130
H         -1.44350      -10.84240       -4.15360
H         -3.34440      -13.78880       -2.83490
H         -1.68450      -13.26650       -2.54100
H         -2.31170      -13.29960       -4.18550
H         -4.72170      -12.14620       -1.76400
H         -5.44530       -9.83410       -1.48880
H         -6.49350       -8.84110       -3.47190
H         -8.80500       -8.28460       -2.87280
H        -10.08800       -7.16810       -0.51030
H        -10.31450       -6.34020       -2.04650
H         -9.74900       -5.43980       -0.63150
H         -7.39790       -5.17430       -0.31810
H         -5.08810       -5.73550       -0.90500
H         -1.13800       -7.97010       -1.17730
H         -1.37140      -10.34380       -0.55070
H         -3.15760      -11.04900        0.98340
H         -4.82980      -10.43770        2.63390
H         -5.20370       -8.73370        2.92840
H         -6.60820       -8.71380        0.83680
H         -7.19790       -9.87010        2.03750
H         -6.28760      -10.43810        0.63650
H         -4.46250       -7.00510        1.32230
H          0.01310        3.56560        9.21290
H          0.39790        3.79320       11.63580
H          2.67010        4.19160       12.49580
H          5.70600        4.01260       10.41770
H          5.08590        4.06070       12.07470
H          4.48980        6.45570       11.79130
H          6.21040        6.20430       11.46160
H          5.06830        6.41590       10.12490
H          4.18630        4.13440        8.50940
H         -1.35870        0.28400        1.37890
H         -2.26880       -0.86150        0.39660
H         -0.30120       -1.60400       -0.80240
H          0.77570       -0.64620        0.20790
H         -0.36540        0.15450       -0.88300
H          0.42910        0.95710        1.67250
H          1.29840        2.07560        2.71680
H          2.86160        0.48070        1.59950
H          2.89510        0.28780        3.35400
H          2.02060       -0.87950        2.36220
H          2.69100        6.46170        8.28760
H          3.43200       10.69880        9.70450
H          2.97870        9.41930       10.84640
H          5.32880        8.75110       11.12100
H          5.17490       10.48910       11.42010
H          5.84980        9.91080        9.89700
H          4.16560        7.79050        2.62710
H          5.71970        7.12210        3.19080
H          5.84030        7.76960        0.78600
H          6.93440        8.76480        1.76250
H          5.39910        9.43280        1.21100
H          6.00760       11.38040        4.49290
H          6.06280       13.94240        7.50720
H          8.51710       18.26840        4.74540
H          7.52070       15.39170        0.36650
H          7.72470       13.88660        1.28620
H          9.14050       14.81140        0.74150
