
  xtb     02092207183D
 energy: -399.455675968866 gnorm: 0.000773366195 xtb: 6.4.1 (unknown)
243269  0     0  0            999 V2000
  -11.1396   -0.4625   -6.2863 C   0  0  0  0  0  0  0  0  0  0  0  0
  -10.7635   -1.1113   -7.4453 C   0  0  0  0  0  0  0  0  0  0  0  0
   -9.4960   -1.8040   -7.6794 C   0  0  0  0  0  0  0  0  0  0  0  0
   -8.5174   -1.8526   -6.9533 O   0  0  0  0  0  0  0  0  0  0  0  0
   -9.6383   -2.4785   -8.9854 C   0  0  0  0  0  0  0  0  0  0  0  0
   -8.7284   -3.2669   -9.6610 C   0  0  0  0  0  0  0  0  0  0  0  0
   -9.0933   -3.7972  -10.8892 C   0  0  0  0  0  0  0  0  0  0  0  0
  -10.3528   -3.5268  -11.4086 C   0  0  0  0  0  0  0  0  0  0  0  0
  -10.7900   -4.1949  -12.9366 Cl  0  0  0  0  0  0  0  0  0  0  0  0
  -11.2781   -2.7308  -10.7389 C   0  0  0  0  0  0  0  0  0  0  0  0
  -10.9113   -2.2040   -9.5132 C   0  0  0  0  0  0  0  0  0  0  0  0
  -11.6248   -1.3277   -8.5801 C   0  0  0  0  0  0  0  0  0  0  0  0
  -12.8768   -0.8010   -8.7931 C   0  0  0  0  0  0  0  0  0  0  0  0
  -13.6944   -1.1232   -9.8942 C   0  0  0  0  0  0  0  0  0  0  0  0
  -14.4237   -1.3580  -10.7501 N   0  0  0  0  0  0  0  0  0  0  0  0
  -13.5160    0.1506   -7.9760 C   0  0  0  0  0  0  0  0  0  0  0  0
  -14.0916    0.9567   -7.3913 N   0  0  0  0  0  0  0  0  0  0  0  0
  -10.4146   -0.1759   -5.1356 C   0  0  0  0  0  0  0  0  0  0  0  0
  -10.9779    0.4658   -3.9995 C   0  0  0  0  0  0  0  0  0  0  0  0
  -12.3060    0.7189   -3.7965 N   0  0  0  0  0  0  0  0  0  0  0  0
  -13.3269   -0.1543   -4.2155 C   0  0  0  0  0  0  0  0  0  0  0  0
  -14.5525    0.3617   -4.6283 C   0  0  0  0  0  0  0  0  0  0  0  0
  -15.5575   -0.4922   -5.0369 C   0  0  0  0  0  0  0  0  0  0  0  0
  -15.3684   -1.8689   -5.0555 C   0  0  0  0  0  0  0  0  0  0  0  0
  -16.4527   -2.7766   -5.5474 C   0  0  0  0  0  0  0  0  0  0  0  0
  -14.1474   -2.3741   -4.6225 C   0  0  0  0  0  0  0  0  0  0  0  0
  -13.1384   -1.5342   -4.1966 C   0  0  0  0  0  0  0  0  0  0  0  0
  -12.6572    1.8371   -3.0119 C   0  0  0  0  0  0  0  0  0  0  0  0
  -12.0578    3.0694   -3.2534 C   0  0  0  0  0  0  0  0  0  0  0  0
  -12.3731    4.1593   -2.4657 C   0  0  0  0  0  0  0  0  0  0  0  0
  -13.2932    4.0514   -1.4315 C   0  0  0  0  0  0  0  0  0  0  0  0
  -13.6223    5.2219   -0.5580 C   0  0  0  0  0  0  0  0  0  0  0  0
  -13.9035    2.8200   -1.2135 C   0  0  0  0  0  0  0  0  0  0  0  0
  -13.5939    1.7220   -1.9893 C   0  0  0  0  0  0  0  0  0  0  0  0
   -9.9749    0.8202   -3.0822 C   0  0  0  0  0  0  0  0  0  0  0  0
   -9.9802    1.6322   -1.5514 S   0  0  0  0  0  0  0  0  0  0  0  0
   -8.2396    1.4404   -1.4279 C   0  0  0  0  0  0  0  0  0  0  0  0
   -7.6883    0.8004   -2.5305 C   0  0  0  0  0  0  0  0  0  0  0  0
   -6.3402    0.5873   -2.7591 N   0  0  0  0  0  0  0  0  0  0  0  0
   -5.3596    1.4827   -2.3171 C   0  0  0  0  0  0  0  0  0  0  0  0
   -4.1356    1.0015   -1.8522 C   0  0  0  0  0  0  0  0  0  0  0  0
   -3.2097    1.8668   -1.3067 C   0  0  0  0  0  0  0  0  0  0  0  0
   -3.4677    3.2293   -1.2066 C   0  0  0  0  0  0  0  0  0  0  0  0
   -2.4764    4.1565   -0.5721 C   0  0  0  0  0  0  0  0  0  0  0  0
   -4.6628    3.7089   -1.7271 C   0  0  0  0  0  0  0  0  0  0  0  0
   -5.5955    2.8555   -2.2834 C   0  0  0  0  0  0  0  0  0  0  0  0
   -5.9676   -0.5471   -3.5045 C   0  0  0  0  0  0  0  0  0  0  0  0
   -5.0116   -0.4473   -4.5091 C   0  0  0  0  0  0  0  0  0  0  0  0
   -4.6944   -1.5533   -5.2727 C   0  0  0  0  0  0  0  0  0  0  0  0
   -5.3186   -2.7753   -5.0599 C   0  0  0  0  0  0  0  0  0  0  0  0
   -5.0214   -3.9624   -5.9224 C   0  0  0  0  0  0  0  0  0  0  0  0
   -6.2519   -2.8721   -4.0349 C   0  0  0  0  0  0  0  0  0  0  0  0
   -6.5728   -1.7769   -3.2597 C   0  0  0  0  0  0  0  0  0  0  0  0
   -8.6946    0.4354   -3.4604 C   0  0  0  0  0  0  0  0  0  0  0  0
   -8.6713   -0.4128   -4.9640 S   0  0  0  0  0  0  0  0  0  0  0  0
   -7.5263    1.9878   -0.3134 C   0  0  0  0  0  0  0  0  0  0  0  0
   -7.5481    3.2813    0.1545 C   0  0  0  0  0  0  0  0  0  0  0  0
   -8.4832    4.3555   -0.2972 C   0  0  0  0  0  0  0  0  0  0  0  0
   -9.7004    4.4475    0.6238 C   0  0  0  0  0  0  0  0  0  0  0  0
   -6.5097    3.5002    1.0795 C   0  0  0  0  0  0  0  0  0  0  0  0
   -5.8905    4.9534    1.8273 S   0  0  0  0  0  0  0  0  0  0  0  0
   -4.5360    4.0506    2.4191 C   0  0  0  0  0  0  0  0  0  0  0  0
   -3.3196    4.2652    3.0936 C   0  0  0  0  0  0  0  0  0  0  0  0
   -2.7643    5.3981    3.7277 C   0  0  0  0  0  0  0  0  0  0  0  0
   -1.4779    5.2844    4.3626 C   0  0  0  0  0  0  0  0  0  0  0  0
   -1.1051    6.4099    4.9507 N   0  0  0  0  0  0  0  0  0  0  0  0
   -2.2651    7.5174    4.7269 S   0  0  0  0  0  0  0  0  0  0  0  0
   -3.2890    6.6055    3.8649 N   0  0  0  0  0  0  0  0  0  0  0  0
   -0.7460    4.0844    4.2211 C   0  0  0  0  0  0  0  0  0  0  0  0
    0.5947    3.7638    4.5018 C   0  0  0  0  0  0  0  0  0  0  0  0
    2.0018    4.5005    5.1873 S   0  0  0  0  0  0  0  0  0  0  0  0
    2.9563    3.1334    4.6641 C   0  0  0  0  0  0  0  0  0  0  0  0
    4.3418    2.8275    4.7036 C   0  0  0  0  0  0  0  0  0  0  0  0
    5.2940    3.4727    5.4343 O   0  0  0  0  0  0  0  0  0  0  0  0
    5.9043    4.6584    4.9404 C   0  0  0  0  0  0  0  0  0  0  0  0
    4.9712    5.8548    4.8267 C   0  0  0  0  0  0  0  0  0  0  0  0
    4.6142    1.6432    4.0561 C   0  0  0  0  0  0  0  0  0  0  0  0
    3.1631    0.8232    3.5176 S   0  0  0  0  0  0  0  0  0  0  0  0
    2.1948    2.1534    4.0308 C   0  0  0  0  0  0  0  0  0  0  0  0
    0.8414    2.5078    3.9450 C   0  0  0  0  0  0  0  0  0  0  0  0
   -0.2997    2.0201    3.3639 N   0  0  0  0  0  0  0  0  0  0  0  0
   -1.2921    2.9680    3.5326 C   0  0  0  0  0  0  0  0  0  0  0  0
   -2.6391    3.0182    3.0975 C   0  0  0  0  0  0  0  0  0  0  0  0
   -3.4503    2.0612    2.5138 N   0  0  0  0  0  0  0  0  0  0  0  0
   -4.5864    2.6962    2.0848 C   0  0  0  0  0  0  0  0  0  0  0  0
   -5.7178    2.3802    1.3254 C   0  0  0  0  0  0  0  0  0  0  0  0
   -6.3042    0.9976    0.4788 S   0  0  0  0  0  0  0  0  0  0  0  0
   -3.4680    0.6379    2.7692 C   0  0  0  0  0  0  0  0  0  0  0  0
   -4.6079    0.2557    3.7129 C   0  0  0  0  0  0  0  0  0  0  0  0
   -0.2264    0.9216    2.4263 C   0  0  0  0  0  0  0  0  0  0  0  0
   -0.0758   -0.4293    3.1243 C   0  0  0  0  0  0  0  0  0  0  0  0
    5.8991    1.0879    3.7122 C   0  0  0  0  0  0  0  0  0  0  0  0
    6.7856    1.5969    2.7794 C   0  0  0  0  0  0  0  0  0  0  0  0
    6.5968    2.7510    2.0345 N   0  0  0  0  0  0  0  0  0  0  0  0
    7.7064    3.5509    1.7233 C   0  0  0  0  0  0  0  0  0  0  0  0
    8.7476    3.7029    2.6374 C   0  0  0  0  0  0  0  0  0  0  0  0
    9.8448    4.4763    2.3170 C   0  0  0  0  0  0  0  0  0  0  0  0
    9.9327    5.1267    1.0920 C   0  0  0  0  0  0  0  0  0  0  0  0
   11.1399    5.9447    0.7500 C   0  0  0  0  0  0  0  0  0  0  0  0
    8.8837    4.9810    0.1928 C   0  0  0  0  0  0  0  0  0  0  0  0
    7.7849    4.2018    0.4953 C   0  0  0  0  0  0  0  0  0  0  0  0
    5.3188    3.0858    1.5590 C   0  0  0  0  0  0  0  0  0  0  0  0
    4.4722    2.1036    1.0556 C   0  0  0  0  0  0  0  0  0  0  0  0
    3.1866    2.4251    0.6624 C   0  0  0  0  0  0  0  0  0  0  0  0
    2.7072    3.7229    0.7637 C   0  0  0  0  0  0  0  0  0  0  0  0
    1.2891    4.0615    0.4180 C   0  0  0  0  0  0  0  0  0  0  0  0
    3.5797    4.7101    1.2105 C   0  0  0  0  0  0  0  0  0  0  0  0
    4.8701    4.4056    1.5908 C   0  0  0  0  0  0  0  0  0  0  0  0
    7.9202    0.7559    2.6566 C   0  0  0  0  0  0  0  0  0  0  0  0
    9.3524    0.7825    1.6937 S   0  0  0  0  0  0  0  0  0  0  0  0
    9.8449   -0.7846    2.3225 C   0  0  0  0  0  0  0  0  0  0  0  0
    8.9350   -1.2854    3.2538 C   0  0  0  0  0  0  0  0  0  0  0  0
    9.1286   -2.3946    4.0704 N   0  0  0  0  0  0  0  0  0  0  0  0
    9.1712   -2.1685    5.4511 C   0  0  0  0  0  0  0  0  0  0  0  0
    9.7308   -0.9883    5.9417 C   0  0  0  0  0  0  0  0  0  0  0  0
    9.7768   -0.7524    7.2995 C   0  0  0  0  0  0  0  0  0  0  0  0
    9.2822   -1.6812    8.2090 C   0  0  0  0  0  0  0  0  0  0  0  0
    9.3375   -1.4040    9.6800 C   0  0  0  0  0  0  0  0  0  0  0  0
    8.7345   -2.8567    7.7129 C   0  0  0  0  0  0  0  0  0  0  0  0
    8.6703   -3.1016    6.3551 C   0  0  0  0  0  0  0  0  0  0  0  0
    8.9502   -3.6956    3.5687 C   0  0  0  0  0  0  0  0  0  0  0  0
    9.8351   -4.7100    3.9195 C   0  0  0  0  0  0  0  0  0  0  0  0
    9.6503   -5.9866    3.4286 C   0  0  0  0  0  0  0  0  0  0  0  0
    8.5855   -6.2826    2.5825 C   0  0  0  0  0  0  0  0  0  0  0  0
    8.3934   -7.6731    2.0563 C   0  0  0  0  0  0  0  0  0  0  0  0
    7.7162   -5.2599    2.2307 C   0  0  0  0  0  0  0  0  0  0  0  0
    7.8908   -3.9764    2.7138 C   0  0  0  0  0  0  0  0  0  0  0  0
    7.8631   -0.3833    3.4417 C   0  0  0  0  0  0  0  0  0  0  0  0
    6.4182   -0.4469    4.3858 S   0  0  0  0  0  0  0  0  0  0  0  0
   11.1594   -1.2388    2.0500 C   0  0  0  0  0  0  0  0  0  0  0  0
   11.5110   -2.5294    1.7790 C   0  0  0  0  0  0  0  0  0  0  0  0
   10.6054   -3.4925    1.1149 C   0  0  0  0  0  0  0  0  0  0  0  0
    9.4545   -3.3003    0.7814 O   0  0  0  0  0  0  0  0  0  0  0  0
   11.4431   -4.6601    0.7815 C   0  0  0  0  0  0  0  0  0  0  0  0
   11.0341   -5.8292    0.1463 C   0  0  0  0  0  0  0  0  0  0  0  0
   12.0400   -6.7466   -0.0424 C   0  0  0  0  0  0  0  0  0  0  0  0
   13.3679   -6.5015    0.3324 C   0  0  0  0  0  0  0  0  0  0  0  0
   13.7883   -5.3479    0.9491 C   0  0  0  0  0  0  0  0  0  0  0  0
   12.7724   -4.4164    1.1812 C   0  0  0  0  0  0  0  0  0  0  0  0
   12.8345   -3.1050    1.8185 C   0  0  0  0  0  0  0  0  0  0  0  0
   13.9225   -2.5553    2.4482 C   0  0  0  0  0  0  0  0  0  0  0  0
   15.1986   -3.1491    2.5048 C   0  0  0  0  0  0  0  0  0  0  0  0
   16.2618   -3.5769    2.5801 N   0  0  0  0  0  0  0  0  0  0  0  0
   13.8885   -1.3339    3.1522 C   0  0  0  0  0  0  0  0  0  0  0  0
   13.9213   -0.3617    3.7629 N   0  0  0  0  0  0  0  0  0  0  0  0
   13.8480   -7.8301   -0.1980 C   0  0  0  0  0  0  0  0  0  0  0  0
   14.1631   -8.9487    0.8236 C   0  0  0  0  0  0  0  0  0  0  0  0
   13.3212   -8.6600    2.0412 C   0  0  0  0  0  0  0  0  0  0  0  0
   12.0562   -8.8972    1.7220 C   0  0  0  0  0  0  0  0  0  0  0  0
   12.0188   -9.3500    0.2836 C   0  0  0  0  0  0  0  0  0  0  0  0
   13.3573  -10.1020    0.2043 C   0  0  0  0  0  0  0  0  0  0  0  0
   12.3632   -8.1154   -0.5880 C   0  0  0  0  0  0  0  0  0  0  0  0
  -12.1652   -0.1176   -6.2577 H   0  0  0  0  0  0  0  0  0  0  0  0
   -7.7549   -3.4570   -9.2361 H   0  0  0  0  0  0  0  0  0  0  0  0
   -8.4088   -4.4168  -11.4466 H   0  0  0  0  0  0  0  0  0  0  0  0
  -12.2433   -2.5451  -11.1800 H   0  0  0  0  0  0  0  0  0  0  0  0
  -14.7060    1.4291   -4.6405 H   0  0  0  0  0  0  0  0  0  0  0  0
  -16.4986   -0.0795   -5.3671 H   0  0  0  0  0  0  0  0  0  0  0  0
  -16.2452   -3.8116   -5.2876 H   0  0  0  0  0  0  0  0  0  0  0  0
  -16.5333   -2.7044   -6.6324 H   0  0  0  0  0  0  0  0  0  0  0  0
  -17.4142   -2.4918   -5.1248 H   0  0  0  0  0  0  0  0  0  0  0  0
  -13.9850   -3.4423   -4.6104 H   0  0  0  0  0  0  0  0  0  0  0  0
  -12.1981   -1.9424   -3.8558 H   0  0  0  0  0  0  0  0  0  0  0  0
  -11.3476    3.1658   -4.0617 H   0  0  0  0  0  0  0  0  0  0  0  0
  -11.8977    5.1092   -2.6623 H   0  0  0  0  0  0  0  0  0  0  0  0
  -13.1813    6.1359   -0.9471 H   0  0  0  0  0  0  0  0  0  0  0  0
  -14.7002    5.3556   -0.4867 H   0  0  0  0  0  0  0  0  0  0  0  0
  -13.2411    5.0554    0.4494 H   0  0  0  0  0  0  0  0  0  0  0  0
  -14.6253    2.7198   -0.4160 H   0  0  0  0  0  0  0  0  0  0  0  0
  -14.0656    0.7685   -1.8038 H   0  0  0  0  0  0  0  0  0  0  0  0
   -3.9357   -0.0591   -1.8933 H   0  0  0  0  0  0  0  0  0  0  0  0
   -2.2755    1.4737   -0.9298 H   0  0  0  0  0  0  0  0  0  0  0  0
   -1.9326    3.6567    0.2271 H   0  0  0  0  0  0  0  0  0  0  0  0
   -1.7505    4.4974   -1.3112 H   0  0  0  0  0  0  0  0  0  0  0  0
   -2.9738    5.0310   -0.1596 H   0  0  0  0  0  0  0  0  0  0  0  0
   -4.8736    4.7677   -1.6869 H   0  0  0  0  0  0  0  0  0  0  0  0
   -6.5182    3.2487   -2.6834 H   0  0  0  0  0  0  0  0  0  0  0  0
   -4.5334    0.5033   -4.6956 H   0  0  0  0  0  0  0  0  0  0  0  0
   -3.9615   -1.4577   -6.0609 H   0  0  0  0  0  0  0  0  0  0  0  0
   -4.8150   -4.8417   -5.3142 H   0  0  0  0  0  0  0  0  0  0  0  0
   -4.1686   -3.7734   -6.5692 H   0  0  0  0  0  0  0  0  0  0  0  0
   -5.8871   -4.1833   -6.5462 H   0  0  0  0  0  0  0  0  0  0  0  0
   -6.7380   -3.8182   -3.8462 H   0  0  0  0  0  0  0  0  0  0  0  0
   -7.2986   -1.8634   -2.4637 H   0  0  0  0  0  0  0  0  0  0  0  0
   -8.8180    4.1569   -1.3168 H   0  0  0  0  0  0  0  0  0  0  0  0
   -7.9467    5.3068   -0.2819 H   0  0  0  0  0  0  0  0  0  0  0  0
  -10.3506    5.2562    0.3012 H   0  0  0  0  0  0  0  0  0  0  0  0
   -9.3856    4.6390    1.6469 H   0  0  0  0  0  0  0  0  0  0  0  0
  -10.2655    3.5183    0.5975 H   0  0  0  0  0  0  0  0  0  0  0  0
    6.3819    4.4545    3.9758 H   0  0  0  0  0  0  0  0  0  0  0  0
    6.6852    4.8604    5.6783 H   0  0  0  0  0  0  0  0  0  0  0  0
    4.2333    5.7004    4.0438 H   0  0  0  0  0  0  0  0  0  0  0  0
    5.5557    6.7393    4.5862 H   0  0  0  0  0  0  0  0  0  0  0  0
    4.4534    6.0196    5.7681 H   0  0  0  0  0  0  0  0  0  0  0  0
   -2.5303    0.3559    3.2365 H   0  0  0  0  0  0  0  0  0  0  0  0
   -3.5839    0.1091    1.8169 H   0  0  0  0  0  0  0  0  0  0  0  0
   -4.5302    0.8158    4.6425 H   0  0  0  0  0  0  0  0  0  0  0  0
   -5.5745    0.4598    3.2616 H   0  0  0  0  0  0  0  0  0  0  0  0
   -4.5511   -0.8058    3.9382 H   0  0  0  0  0  0  0  0  0  0  0  0
   -1.1057    0.9471    1.7820 H   0  0  0  0  0  0  0  0  0  0  0  0
    0.6578    1.0843    1.7995 H   0  0  0  0  0  0  0  0  0  0  0  0
   -0.1213   -1.2278    2.3892 H   0  0  0  0  0  0  0  0  0  0  0  0
   -0.8550   -0.5914    3.8656 H   0  0  0  0  0  0  0  0  0  0  0  0
    0.8839   -0.4820    3.6306 H   0  0  0  0  0  0  0  0  0  0  0  0
    8.6899    3.2194    3.6020 H   0  0  0  0  0  0  0  0  0  0  0  0
   10.6458    4.5809    3.0341 H   0  0  0  0  0  0  0  0  0  0  0  0
   11.4630    6.5332    1.6063 H   0  0  0  0  0  0  0  0  0  0  0  0
   10.9346    6.6142   -0.0815 H   0  0  0  0  0  0  0  0  0  0  0  0
   11.9643    5.2902    0.4656 H   0  0  0  0  0  0  0  0  0  0  0  0
    8.9300    5.4766   -0.7662 H   0  0  0  0  0  0  0  0  0  0  0  0
    6.9837    4.0882   -0.2200 H   0  0  0  0  0  0  0  0  0  0  0  0
    4.8231    1.0847    0.9812 H   0  0  0  0  0  0  0  0  0  0  0  0
    2.5470    1.6438    0.2759 H   0  0  0  0  0  0  0  0  0  0  0  0
    0.8186    3.2530   -0.1366 H   0  0  0  0  0  0  0  0  0  0  0  0
    0.7139    4.2375    1.3287 H   0  0  0  0  0  0  0  0  0  0  0  0
    1.2433    4.9697   -0.1796 H   0  0  0  0  0  0  0  0  0  0  0  0
    3.2365    5.7329    1.2706 H   0  0  0  0  0  0  0  0  0  0  0  0
    5.5361    5.1885    1.9211 H   0  0  0  0  0  0  0  0  0  0  0  0
   10.1416   -0.2632    5.2545 H   0  0  0  0  0  0  0  0  0  0  0  0
   10.2141    0.1663    7.6624 H   0  0  0  0  0  0  0  0  0  0  0  0
    9.0392   -2.2783   10.2528 H   0  0  0  0  0  0  0  0  0  0  0  0
    8.6694   -0.5810    9.9334 H   0  0  0  0  0  0  0  0  0  0  0  0
   10.3450   -1.1171    9.9771 H   0  0  0  0  0  0  0  0  0  0  0  0
    8.3400   -3.5929    8.3986 H   0  0  0  0  0  0  0  0  0  0  0  0
    8.2242   -4.0146    5.9900 H   0  0  0  0  0  0  0  0  0  0  0  0
   10.6637   -4.4870    4.5765 H   0  0  0  0  0  0  0  0  0  0  0  0
   10.3490   -6.7645    3.7025 H   0  0  0  0  0  0  0  0  0  0  0  0
    8.5083   -8.4054    2.8540 H   0  0  0  0  0  0  0  0  0  0  0  0
    9.1355   -7.8926    1.2884 H   0  0  0  0  0  0  0  0  0  0  0  0
    7.4049   -7.7876    1.6180 H   0  0  0  0  0  0  0  0  0  0  0  0
    6.8886   -5.4653    1.5677 H   0  0  0  0  0  0  0  0  0  0  0  0
    7.2071   -3.1900    2.4340 H   0  0  0  0  0  0  0  0  0  0  0  0
   11.9259   -0.4722    2.0671 H   0  0  0  0  0  0  0  0  0  0  0  0
   10.0061   -5.9603   -0.1529 H   0  0  0  0  0  0  0  0  0  0  0  0
   14.8145   -5.1670    1.2236 H   0  0  0  0  0  0  0  0  0  0  0  0
   14.5808   -7.7803   -1.0009 H   0  0  0  0  0  0  0  0  0  0  0  0
   15.2222   -9.1154    1.0003 H   0  0  0  0  0  0  0  0  0  0  0  0
   13.7137   -8.2716    2.9627 H   0  0  0  0  0  0  0  0  0  0  0  0
   11.1817   -8.7518    2.3274 H   0  0  0  0  0  0  0  0  0  0  0  0
   11.1256   -9.8864   -0.0277 H   0  0  0  0  0  0  0  0  0  0  0  0
   13.3715  -11.0025    0.8167 H   0  0  0  0  0  0  0  0  0  0  0  0
   13.6594  -10.3448   -0.8136 H   0  0  0  0  0  0  0  0  0  0  0  0
   12.1327   -8.2788   -1.6394 H   0  0  0  0  0  0  0  0  0  0  0  0
  1  2  2  0  0  0  0
  2  3  1  0  0  0  0
  3  4  2  0  0  0  0
  3  5  1  0  0  0  0
  5  6  2  0  0  0  0
  6  7  1  0  0  0  0
  7  8  2  0  0  0  0
  8  9  1  0  0  0  0
  8 10  1  0  0  0  0
 10 11  2  0  0  0  0
 11 12  1  0  0  0  0
 12 13  2  0  0  0  0
 13 14  1  0  0  0  0
 14 15  3  0  0  0  0
 13 16  1  0  0  0  0
 16 17  3  0  0  0  0
  1 18  1  0  0  0  0
 18 19  2  0  0  0  0
 19 20  1  0  0  0  0
 20 21  1  0  0  0  0
 21 22  2  0  0  0  0
 22 23  1  0  0  0  0
 23 24  2  0  0  0  0
 24 25  1  0  0  0  0
 24 26  1  0  0  0  0
 26 27  2  0  0  0  0
 20 28  1  0  0  0  0
 28 29  2  0  0  0  0
 29 30  1  0  0  0  0
 30 31  2  0  0  0  0
 31 32  1  0  0  0  0
 31 33  1  0  0  0  0
 33 34  2  0  0  0  0
 19 35  1  0  0  0  0
 35 36  1  0  0  0  0
 36 37  1  0  0  0  0
 37 38  2  0  0  0  0
 38 39  1  0  0  0  0
 39 40  1  0  0  0  0
 40 41  2  0  0  0  0
 41 42  1  0  0  0  0
 42 43  2  0  0  0  0
 43 44  1  0  0  0  0
 43 45  1  0  0  0  0
 45 46  2  0  0  0  0
 39 47  1  0  0  0  0
 47 48  2  0  0  0  0
 48 49  1  0  0  0  0
 49 50  2  0  0  0  0
 50 51  1  0  0  0  0
 50 52  1  0  0  0  0
 52 53  2  0  0  0  0
 38 54  1  0  0  0  0
 54 55  1  0  0  0  0
 37 56  1  0  0  0  0
 56 57  2  0  0  0  0
 57 58  1  0  0  0  0
 58 59  1  0  0  0  0
 57 60  1  0  0  0  0
 60 61  1  0  0  0  0
 61 62  1  0  0  0  0
 62 63  1  0  0  0  0
 63 64  1  0  0  0  0
 64 65  1  0  0  0  0
 65 66  2  0  0  0  0
 66 67  1  0  0  0  0
 67 68  1  0  0  0  0
 65 69  1  0  0  0  0
 69 70  1  0  0  0  0
 70 71  1  0  0  0  0
 71 72  1  0  0  0  0
 72 73  1  0  0  0  0
 73 74  1  0  0  0  0
 74 75  1  0  0  0  0
 75 76  1  0  0  0  0
 73 77  2  0  0  0  0
 77 78  1  0  0  0  0
 78 79  1  0  0  0  0
 79 80  1  0  0  0  0
 80 81  1  0  0  0  0
 81 82  1  0  0  0  0
 82 83  1  0  0  0  0
 83 84  1  0  0  0  0
 84 85  1  0  0  0  0
 85 86  1  0  0  0  0
 86 87  1  0  0  0  0
 84 88  1  0  0  0  0
 88 89  1  0  0  0  0
 81 90  1  0  0  0  0
 90 91  1  0  0  0  0
 77 92  1  0  0  0  0
 92 93  2  0  0  0  0
 93 94  1  0  0  0  0
 94 95  1  0  0  0  0
 95 96  2  0  0  0  0
 96 97  1  0  0  0  0
 97 98  2  0  0  0  0
 98 99  1  0  0  0  0
 98100  1  0  0  0  0
100101  2  0  0  0  0
 94102  1  0  0  0  0
102103  2  0  0  0  0
103104  1  0  0  0  0
104105  2  0  0  0  0
105106  1  0  0  0  0
105107  1  0  0  0  0
107108  2  0  0  0  0
 93109  1  0  0  0  0
109110  1  0  0  0  0
110111  1  0  0  0  0
111112  2  0  0  0  0
112113  1  0  0  0  0
113114  1  0  0  0  0
114115  2  0  0  0  0
115116  1  0  0  0  0
116117  2  0  0  0  0
117118  1  0  0  0  0
117119  1  0  0  0  0
119120  2  0  0  0  0
113121  1  0  0  0  0
121122  2  0  0  0  0
122123  1  0  0  0  0
123124  2  0  0  0  0
124125  1  0  0  0  0
124126  1  0  0  0  0
126127  2  0  0  0  0
112128  1  0  0  0  0
128129  1  0  0  0  0
111130  1  0  0  0  0
130131  2  0  0  0  0
131132  1  0  0  0  0
132133  2  0  0  0  0
132134  1  0  0  0  0
134135  2  0  0  0  0
135136  1  0  0  0  0
136137  2  0  0  0  0
137138  1  0  0  0  0
138139  2  0  0  0  0
139140  1  0  0  0  0
140141  2  0  0  0  0
141142  1  0  0  0  0
142143  3  0  0  0  0
141144  1  0  0  0  0
144145  3  0  0  0  0
137146  1  0  0  0  0
146147  1  0  0  0  0
147148  1  0  0  0  0
148149  2  0  0  0  0
149150  1  0  0  0  0
150151  1  0  0  0  0
150152  1  0  0  0  0
 12  2  1  0  0  0  0
 55 18  1  0  0  0  0
 87 56  1  0  0  0  0
129 92  1  0  0  0  0
140131  1  0  0  0  0
152146  1  0  0  0  0
 11  5  1  0  0  0  0
 27 21  1  0  0  0  0
 34 28  1  0  0  0  0
 54 35  2  0  0  0  0
 86 60  2  0  0  0  0
101 95  1  0  0  0  0
108102  1  0  0  0  0
128109  2  0  0  0  0
139134  1  0  0  0  0
151147  1  0  0  0  0
 46 40  1  0  0  0  0
 53 47  1  0  0  0  0
 85 62  2  0  0  0  0
120114  1  0  0  0  0
127121  1  0  0  0  0
152136  1  0  0  0  0
 83 63  2  0  0  0  0
 68 64  2  0  0  0  0
 82 69  2  0  0  0  0
 80 70  2  0  0  0  0
 79 72  2  0  0  0  0
  1153  1  0  0  0  0
  6154  1  0  0  0  0
  7155  1  0  0  0  0
 10156  1  0  0  0  0
 22157  1  0  0  0  0
 23158  1  0  0  0  0
 25159  1  0  0  0  0
 25160  1  0  0  0  0
 25161  1  0  0  0  0
 26162  1  0  0  0  0
 27163  1  0  0  0  0
 29164  1  0  0  0  0
 30165  1  0  0  0  0
 32166  1  0  0  0  0
 32167  1  0  0  0  0
 32168  1  0  0  0  0
 33169  1  0  0  0  0
 34170  1  0  0  0  0
 41171  1  0  0  0  0
 42172  1  0  0  0  0
 44173  1  0  0  0  0
 44174  1  0  0  0  0
 44175  1  0  0  0  0
 45176  1  0  0  0  0
 46177  1  0  0  0  0
 48178  1  0  0  0  0
 49179  1  0  0  0  0
 51180  1  0  0  0  0
 51181  1  0  0  0  0
 51182  1  0  0  0  0
 52183  1  0  0  0  0
 53184  1  0  0  0  0
 58185  1  0  0  0  0
 58186  1  0  0  0  0
 59187  1  0  0  0  0
 59188  1  0  0  0  0
 59189  1  0  0  0  0
 75190  1  0  0  0  0
 75191  1  0  0  0  0
 76192  1  0  0  0  0
 76193  1  0  0  0  0
 76194  1  0  0  0  0
 88195  1  0  0  0  0
 88196  1  0  0  0  0
 89197  1  0  0  0  0
 89198  1  0  0  0  0
 89199  1  0  0  0  0
 90200  1  0  0  0  0
 90201  1  0  0  0  0
 91202  1  0  0  0  0
 91203  1  0  0  0  0
 91204  1  0  0  0  0
 96205  1  0  0  0  0
 97206  1  0  0  0  0
 99207  1  0  0  0  0
 99208  1  0  0  0  0
 99209  1  0  0  0  0
100210  1  0  0  0  0
101211  1  0  0  0  0
103212  1  0  0  0  0
104213  1  0  0  0  0
106214  1  0  0  0  0
106215  1  0  0  0  0
106216  1  0  0  0  0
107217  1  0  0  0  0
108218  1  0  0  0  0
115219  1  0  0  0  0
116220  1  0  0  0  0
118221  1  0  0  0  0
118222  1  0  0  0  0
118223  1  0  0  0  0
119224  1  0  0  0  0
120225  1  0  0  0  0
122226  1  0  0  0  0
123227  1  0  0  0  0
125228  1  0  0  0  0
125229  1  0  0  0  0
125230  1  0  0  0  0
126231  1  0  0  0  0
127232  1  0  0  0  0
130233  1  0  0  0  0
135234  1  0  0  0  0
138235  1  0  0  0  0
146236  1  0  0  0  0
147237  1  0  0  0  0
148238  1  0  0  0  0
149239  1  0  0  0  0
150240  1  0  0  0  0
151241  1  0  0  0  0
151242  1  0  0  0  0
152243  1  0  0  0  0
M  END
