229

C          0.79170        7.19170      -10.28600
C          0.87090        7.20360      -11.66660
C          1.96470        6.58360      -12.42740
O          2.91580        5.96370      -11.98760
C          1.73940        6.98160      -13.83530
C          2.48020        6.67300      -14.95730
C          2.05100        7.14840      -16.18820
C          0.90410        7.92640      -16.26500
Cl         0.38640        8.50970      -17.80380
C          0.15340        8.25460      -15.13930
C          0.58040        7.77110      -13.91680
C          0.01410        7.90640      -12.57400
C         -1.20990        8.45160      -12.26760
C         -2.08270        9.01790      -13.21380
N         -2.84440        9.47350      -13.94370
C         -1.77830        8.42920      -10.97920
N         -2.31590        8.41680       -9.96370
C          1.32120        6.21650       -9.44450
C          1.65870        4.86350       -9.67640
N          1.40420        4.12860      -10.79740
C          2.19920        2.98760      -11.04650
C          3.58630        3.07430      -10.97890
C          4.35580        1.94650      -11.18210
C          3.76760        0.71760      -11.46070
C          4.60890       -0.50890      -11.63350
C          2.38240        0.65130      -11.55540
C          1.59940        1.77100      -11.35190
C          0.35800        4.41340      -11.68340
C         -0.87530        4.87660      -11.22520
C         -1.87370        5.19200      -12.12190
C         -1.68020        5.05800      -13.49530
C         -2.75920        5.45250      -14.45340
C         -0.46780        4.54860      -13.94010
C          0.54100        4.22590      -13.05200
C          2.20410        4.28910       -8.50620
S          2.80960        2.71420       -8.12350
C          3.07500        3.19040       -6.45320
C          2.74340        4.52070       -6.22530
N          2.92230        5.20170       -5.03220
C          1.96740        6.17180       -4.68090
C          0.61160        5.90390       -4.85570
C         -0.33070        6.86190       -4.54310
C          0.04690        8.10210       -4.04050
C         -0.98910        9.13510       -3.72140
C          1.40050        8.35550       -3.85840
C          2.35470        7.40920       -4.17730
C          4.07790        5.02570       -4.26400
C          4.02940        5.17720       -2.87980
C          5.16290        4.97510       -2.11700
C          6.36630        4.60080       -2.70030
C          7.58750        4.34240       -1.87200
C          6.40920        4.46080       -4.08300
C          5.28940        4.67800       -4.85840
C          2.23200        5.12430       -7.39830
S          1.58360        6.68130       -7.75340
C          3.49260        2.21960       -5.49450
C          4.30510        1.11710       -5.66460
C          5.05020        0.74390       -6.90870
C          6.13890        1.75730       -7.25680
C          4.39160        0.36580       -4.48020
S          5.23850       -1.11200       -4.08270
C          4.52830       -1.07290       -2.50510
C          4.49410       -1.84880       -1.33010
C          5.21110       -2.99520       -0.90780
C          4.99000       -3.50310        0.42970
N          5.74620       -4.53020        0.76280
Se         6.78820       -4.93660       -0.60050
N          6.12790       -3.64230       -1.59960
C          3.95550       -2.93390        1.21300
C          3.35190       -3.32780        2.42310
S          3.53730       -4.53160        3.65340
C          2.07120       -3.95450        4.41420
C          1.35550       -4.38600        5.54440
C          1.81480       -5.52020        6.40550
C          2.37360       -5.02400        7.73820
C          0.24070       -3.60150        5.75610
S          0.05230       -2.35370        4.52230
C          1.49830       -2.87300        3.74480
C          2.23040       -2.51340        2.60840
N          2.12890       -1.60510        1.58390
C          3.19050       -1.84280        0.73100
C          3.57960       -1.20070       -0.46350
N          3.13540       -0.02860       -1.04570
C          3.70060        0.03520       -2.29560
C          3.63210        0.86350       -3.42110
S          2.80850        2.30910       -3.87040
C          2.74980        1.17910       -0.34450
C          3.90900        2.17270       -0.27770
C          0.82960       -1.07670        1.22110
C         -0.12010       -2.19610        0.79510
C         -0.78490       -3.70990        6.74250
C         -1.53900       -2.66970        7.27500
N         -1.27310       -1.32150        7.10140
C         -2.35450       -0.43280        6.99570
C         -3.47920       -0.78890        6.25680
C         -4.55490        0.07260        6.17130
C         -4.53580        1.30810        6.80560
C         -5.71310        2.23100        6.73140
C         -3.40380        1.65900        7.53300
C         -2.32580        0.80360        7.63480
C          0.04570       -0.84970        7.12510
C          1.01030       -1.47230        7.91290
C          2.32260       -1.04790        7.87420
C          2.71140        0.01230        7.06420
C          4.14660        0.43650        6.99860
C          1.73750        0.65050        6.30600
C          0.42270        0.23000        6.32900
C         -2.59700       -3.16410        8.07030
S         -3.84060       -2.40740        8.99230
C         -4.48180       -3.99130        9.46620
C         -3.65970       -5.05060        9.01030
N         -3.73490       -6.35770        9.38200
C         -4.34440       -6.78910       10.56910
C         -4.19780       -6.08110       11.76140
C         -4.83650       -6.51100       12.90490
C         -5.63660       -7.65210       12.90080
C         -6.36520       -8.07050       14.13840
C         -5.74050       -8.37580       11.72060
C         -5.10240       -7.95800       10.56740
C         -3.15000       -7.34690        8.55710
C         -2.29290       -8.28940        9.11250
C         -1.71760       -9.25390        8.30760
C         -1.98440       -9.30120        6.94480
C         -1.33990      -10.32860        6.06680
C         -2.85880       -8.36300        6.40590
C         -3.44060       -7.39350        7.19750
C         -2.63370       -4.54790        8.17990
S         -1.32670       -5.28130        7.30930
C         -5.66340       -3.99660       10.19990
C         -6.55440       -5.05290       10.28880
C         -6.72260       -6.06170        9.23660
O         -6.11180       -6.15410        8.18700
C         -7.88470       -6.87860        9.65490
C         -8.46470       -7.95490        9.01620
C         -9.54480       -8.58140        9.62180
C        -10.01640       -8.10720       10.83610
Br       -11.49620       -8.98380       11.64920
C         -9.45040       -7.01660       11.48750
C         -8.36920       -6.40190       10.88410
C         -7.53880       -5.27140       11.30450
C         -7.58960       -4.64790       12.52860
C         -6.67610       -3.65900       12.94190
N         -5.94550       -2.87440       13.35480
C         -8.50310       -4.97960       13.54460
N         -9.21450       -5.22710       14.41260
H          0.30660        8.02460       -9.79090
H          3.36900        6.06700      -14.87290
H          2.60020        6.91870      -17.08770
H         -0.72590        8.86940      -15.23930
H          4.04210        4.03360      -10.78970
H          5.43190        2.02110      -11.12630
H          5.56360       -0.26340      -12.09270
H          4.10000       -1.24800      -12.24720
H          4.81060       -0.95880      -10.66060
H          1.90790       -0.29230      -11.78240
H          0.52310        1.70750      -11.41850
H         -1.04710        4.99430      -10.16570
H         -2.81980        5.55960      -11.75170
H         -3.63160        4.81220      -14.32690
H         -3.07530        6.47890      -14.27150
H         -2.41500        5.37210      -15.48110
H         -0.29890        4.41920      -14.99920
H          1.48420        3.84410      -13.41270
H          0.30520        4.93950       -5.23490
H         -1.37880        6.64460       -4.68880
H         -1.45330        9.49410       -4.63970
H         -0.54860        9.98350       -3.20410
H         -1.77400        8.71150       -3.09690
H          1.71690        9.31390       -3.47260
H          3.40430        7.62640       -4.04480
H          3.09600        5.44460       -2.40750
H          5.10690        5.10160       -1.04530
H          8.44720        4.87070       -2.28060
H          7.82270        3.27770       -1.86970
H          7.43570        4.66240       -0.84430
H          7.33900        4.18740       -4.56090
H          5.35180        4.58550       -5.93200
H          4.35500        0.65500       -7.74680
H          5.50620       -0.23400       -6.74090
H          5.70120        2.71910       -7.51030
H          6.71320        1.40670       -8.11040
H          6.81250        1.89200       -6.41390
H          0.98820       -6.20940        6.58980
H          2.59460       -6.05860        5.86330
H          1.59370       -4.54240        8.32190
H          3.17250       -4.30630        7.56760
H          2.76910       -5.85840        8.31140
H          1.90230        1.63670       -0.86570
H          2.46080        0.91820        0.67300
H          3.61000        3.03640        0.30970
H          4.19190        2.51340       -1.26990
H          4.77320        1.70970        0.19410
H          0.42070       -0.55120        2.08970
H          0.93600       -0.38160        0.39170
H         -1.07240       -1.77030        0.49220
H          0.30190       -2.74510       -0.04420
H         -0.29560       -2.88900        1.61320
H         -3.50230       -1.74130        5.74690
H         -5.42210       -0.21910        5.59660
H         -6.30190        2.03980        5.83740
H         -5.39220        3.27030        6.72870
H         -6.35710        2.08140        7.59860
H         -3.37110        2.61380        8.03760
H         -1.45870        1.08390        8.21430
H          0.72510       -2.28850        8.55960
H          3.05780       -1.54650        8.48930
H          4.69030       -0.19540        6.29480
H          4.23360        1.46760        6.66450
H          4.62370        0.33910        7.97140
H          2.01410        1.48360        5.67560
H         -0.31950        0.72340        5.71920
H         -3.58600       -5.19190       11.78900
H         -4.71950       -5.94740       13.81900
H         -6.80080       -9.05920       14.01980
H         -7.16790       -7.36660       14.36060
H         -5.69300       -8.08050       14.99440
H         -6.33990       -9.27430       11.69530
H         -5.19800       -8.52670        9.65460
H         -2.07870       -8.25890       10.17100
H         -1.04760       -9.97870        8.74650
H         -0.93860      -11.14950        6.65550
H         -2.05420      -10.72480        5.34810
H         -0.52030       -9.87710        5.50730
H         -3.09090       -8.39760        5.35150
H         -4.14240       -6.68470        6.78690
H         -5.91440       -3.06760       10.69770
H         -8.07760       -8.30200        8.07070
H        -10.01850       -9.43220        9.15690
H         -9.85680       -6.67560       12.42590
