
  xtb     02072208173D
 energy: -407.151581093868 gnorm: 0.000524641025 xtb: 6.4.1 (unknown)
249274  0     0  0            999 V2000
   -7.2089   -2.7892    3.0700 C   0  0  0  0  0  0  0  0  0  0  0  0
   -7.0039   -4.0058    2.4422 C   0  0  0  0  0  0  0  0  0  0  0  0
   -5.6881   -4.6453    2.3282 C   0  0  0  0  0  0  0  0  0  0  0  0
   -4.6054   -4.2023    2.6692 O   0  0  0  0  0  0  0  0  0  0  0  0
   -5.9569   -6.0079    1.8163 C   0  0  0  0  0  0  0  0  0  0  0  0
   -5.0688   -7.0349    1.5750 C   0  0  0  0  0  0  0  0  0  0  0  0
   -5.5597   -8.2342    1.0777 C   0  0  0  0  0  0  0  0  0  0  0  0
   -6.9204   -8.3770    0.8449 C   0  0  0  0  0  0  0  0  0  0  0  0
   -7.5124   -9.8755    0.2254 Cl  0  0  0  0  0  0  0  0  0  0  0  0
   -7.8292   -7.3527    1.0991 C   0  0  0  0  0  0  0  0  0  0  0  0
   -7.3346   -6.1591    1.5906 C   0  0  0  0  0  0  0  0  0  0  0  0
   -8.0035   -4.9087    1.9560 C   0  0  0  0  0  0  0  0  0  0  0  0
   -9.3254   -4.6083    1.7303 C   0  0  0  0  0  0  0  0  0  0  0  0
   -9.8984   -3.3488    1.9913 C   0  0  0  0  0  0  0  0  0  0  0  0
  -10.4248   -2.3411    2.1579 N   0  0  0  0  0  0  0  0  0  0  0  0
  -10.2490   -5.4984    1.1534 C   0  0  0  0  0  0  0  0  0  0  0  0
  -11.0438   -6.1814    0.6823 N   0  0  0  0  0  0  0  0  0  0  0  0
   -6.2575   -1.7840    3.2102 C   0  0  0  0  0  0  0  0  0  0  0  0
   -5.1010   -1.4888    2.4489 C   0  0  0  0  0  0  0  0  0  0  0  0
   -4.8152   -1.9732    1.2134 N   0  0  0  0  0  0  0  0  0  0  0  0
   -3.5182   -1.8428    0.6652 C   0  0  0  0  0  0  0  0  0  0  0  0
   -2.4004   -2.3118    1.3471 C   0  0  0  0  0  0  0  0  0  0  0  0
   -1.1438   -2.1474    0.7962 C   0  0  0  0  0  0  0  0  0  0  0  0
   -0.9742   -1.5089   -0.4275 C   0  0  0  0  0  0  0  0  0  0  0  0
    0.3960   -1.2544   -0.9739 C   0  0  0  0  0  0  0  0  0  0  0  0
   -2.1038   -1.0816   -1.1153 C   0  0  0  0  0  0  0  0  0  0  0  0
   -3.3672   -1.2536   -0.5854 C   0  0  0  0  0  0  0  0  0  0  0  0
   -5.7908   -2.5413    0.3726 C   0  0  0  0  0  0  0  0  0  0  0  0
   -7.0424   -1.9546    0.2130 C   0  0  0  0  0  0  0  0  0  0  0  0
   -7.9861   -2.5526   -0.5968 C   0  0  0  0  0  0  0  0  0  0  0  0
   -7.7134   -3.7451   -1.2594 C   0  0  0  0  0  0  0  0  0  0  0  0
   -8.7452   -4.4111   -2.1125 C   0  0  0  0  0  0  0  0  0  0  0  0
   -6.4471   -4.3009   -1.1242 C   0  0  0  0  0  0  0  0  0  0  0  0
   -5.4891   -3.7068   -0.3268 C   0  0  0  0  0  0  0  0  0  0  0  0
   -4.3468   -0.4776    3.0911 C   0  0  0  0  0  0  0  0  0  0  0  0
   -2.8089    0.2472    2.7882 S   0  0  0  0  0  0  0  0  0  0  0  0
   -2.9886    1.2924    4.1967 C   0  0  0  0  0  0  0  0  0  0  0  0
   -4.1737    1.0696    4.8739 C   0  0  0  0  0  0  0  0  0  0  0  0
   -4.5629    1.6727    6.0559 N   0  0  0  0  0  0  0  0  0  0  0  0
   -5.9417    1.8584    6.2718 C   0  0  0  0  0  0  0  0  0  0  0  0
   -6.7440    2.3453    5.2431 C   0  0  0  0  0  0  0  0  0  0  0  0
   -8.0996    2.5129    5.4382 C   0  0  0  0  0  0  0  0  0  0  0  0
   -8.6927    2.2041    6.6565 C   0  0  0  0  0  0  0  0  0  0  0  0
  -10.1687    2.3725    6.8457 C   0  0  0  0  0  0  0  0  0  0  0  0
   -7.8852    1.7176    7.6769 C   0  0  0  0  0  0  0  0  0  0  0  0
   -6.5282    1.5397    7.4926 C   0  0  0  0  0  0  0  0  0  0  0  0
   -3.6430    1.9439    7.0732 C   0  0  0  0  0  0  0  0  0  0  0  0
   -3.9024    2.9555    7.9952 C   0  0  0  0  0  0  0  0  0  0  0  0
   -3.0152    3.2078    9.0218 C   0  0  0  0  0  0  0  0  0  0  0  0
   -1.8303    2.4919    9.1448 C   0  0  0  0  0  0  0  0  0  0  0  0
   -0.8515    2.8109   10.2334 C   0  0  0  0  0  0  0  0  0  0  0  0
   -1.5770    1.4866    8.2215 C   0  0  0  0  0  0  0  0  0  0  0  0
   -2.4727    1.2002    7.2104 C   0  0  0  0  0  0  0  0  0  0  0  0
   -4.9375    0.0654    4.2239 C   0  0  0  0  0  0  0  0  0  0  0  0
   -6.4642   -0.6596    4.5656 S   0  0  0  0  0  0  0  0  0  0  0  0
   -1.8746    2.1631    4.4504 C   0  0  0  0  0  0  0  0  0  0  0  0
   -1.8023    3.5303    4.6213 C   0  0  0  0  0  0  0  0  0  0  0  0
   -3.0061    4.3709    4.6914 C   0  0  0  0  0  0  0  0  0  0  0  0
   -3.9619    4.2017    3.6895 C   0  0  0  0  0  0  0  0  0  0  0  0
   -5.1407    4.9183    3.6981 C   0  0  0  0  0  0  0  0  0  0  0  0
   -5.3947    5.7991    4.7357 C   0  0  0  0  0  0  0  0  0  0  0  0
   -4.4466    5.9806    5.7224 C   0  0  0  0  0  0  0  0  0  0  0  0
   -3.2346    5.2979    5.7114 C   0  0  0  0  0  0  0  0  0  0  0  0
   -2.2396    5.5951    6.7979 C   0  0  0  0  0  0  0  0  0  0  0  0
   -1.7374    7.0379    6.7151 C   0  0  0  0  0  0  0  0  0  0  0  0
   -0.4600    3.9781    4.5596 C   0  0  0  0  0  0  0  0  0  0  0  0
    0.2741    5.5636    4.3938 S   0  0  0  0  0  0  0  0  0  0  0  0
    1.7978    4.8217    4.0148 C   0  0  0  0  0  0  0  0  0  0  0  0
    3.0342    5.1504    3.4212 C   0  0  0  0  0  0  0  0  0  0  0  0
    3.5094    6.3279    2.7926 C   0  0  0  0  0  0  0  0  0  0  0  0
    4.5347    6.2214    1.7782 C   0  0  0  0  0  0  0  0  0  0  0  0
    4.7646    7.3758    1.1773 N   0  0  0  0  0  0  0  0  0  0  0  0
    3.8028    8.5044    1.8303 S   0  0  0  0  0  0  0  0  0  0  0  0
    3.0381    7.5577    2.8994 N   0  0  0  0  0  0  0  0  0  0  0  0
    5.1539    4.9705    1.5424 C   0  0  0  0  0  0  0  0  0  0  0  0
    5.9774    4.4444    0.5221 C   0  0  0  0  0  0  0  0  0  0  0  0
    6.4128    4.7931   -1.1316 S   0  0  0  0  0  0  0  0  0  0  0  0
    6.7379    3.0828   -1.4005 C   0  0  0  0  0  0  0  0  0  0  0  0
    6.7335    2.2687   -2.5496 C   0  0  0  0  0  0  0  0  0  0  0  0
    6.7260    2.7684   -3.9270 C   0  0  0  0  0  0  0  0  0  0  0  0
    7.6785    2.3556   -4.8652 C   0  0  0  0  0  0  0  0  0  0  0  0
    8.7961    1.4056   -4.5281 C   0  0  0  0  0  0  0  0  0  0  0  0
    8.6616    0.0687   -5.2565 C   0  0  0  0  0  0  0  0  0  0  0  0
    7.6161    2.8904   -6.1461 C   0  0  0  0  0  0  0  0  0  0  0  0
    6.6495    3.8124   -6.4985 C   0  0  0  0  0  0  0  0  0  0  0  0
    5.7249    4.2342   -5.5583 C   0  0  0  0  0  0  0  0  0  0  0  0
    5.7652    3.7133   -4.2825 C   0  0  0  0  0  0  0  0  0  0  0  0
    6.6051    0.9222   -2.2126 C   0  0  0  0  0  0  0  0  0  0  0  0
    6.7648    0.6528   -0.4704 S   0  0  0  0  0  0  0  0  0  0  0  0
    6.6988    2.3537   -0.2109 C   0  0  0  0  0  0  0  0  0  0  0  0
    6.2416    3.1142    0.8642 C   0  0  0  0  0  0  0  0  0  0  0  0
    5.6317    2.7897    2.0466 N   0  0  0  0  0  0  0  0  0  0  0  0
    4.8792    3.8857    2.4181 C   0  0  0  0  0  0  0  0  0  0  0  0
    3.7143    3.9221    3.2152 C   0  0  0  0  0  0  0  0  0  0  0  0
    2.9206    2.8806    3.6510 N   0  0  0  0  0  0  0  0  0  0  0  0
    1.7506    3.4278    4.0995 C   0  0  0  0  0  0  0  0  0  0  0  0
    0.4658    2.9517    4.3813 C   0  0  0  0  0  0  0  0  0  0  0  0
   -0.2956    1.4087    4.3056 S   0  0  0  0  0  0  0  0  0  0  0  0
    2.9747    1.4768    3.3092 C   0  0  0  0  0  0  0  0  0  0  0  0
    3.1944    0.5898    4.5319 C   0  0  0  0  0  0  0  0  0  0  0  0
    6.1266    1.7261    2.8919 C   0  0  0  0  0  0  0  0  0  0  0  0
    7.6235    1.8861    3.1501 C   0  0  0  0  0  0  0  0  0  0  0  0
    5.9117   -0.0798   -2.9301 C   0  0  0  0  0  0  0  0  0  0  0  0
    5.4628   -1.2698   -2.3509 C   0  0  0  0  0  0  0  0  0  0  0  0
    6.0066   -1.8137   -1.1922 N   0  0  0  0  0  0  0  0  0  0  0  0
    7.3631   -2.1610   -1.1605 C   0  0  0  0  0  0  0  0  0  0  0  0
    8.0635   -2.4031   -2.3388 C   0  0  0  0  0  0  0  0  0  0  0  0
    9.4119   -2.6983   -2.3007 C   0  0  0  0  0  0  0  0  0  0  0  0
   10.0989   -2.7702   -1.0962 C   0  0  0  0  0  0  0  0  0  0  0  0
   11.5660   -3.0711   -1.0584 C   0  0  0  0  0  0  0  0  0  0  0  0
    9.3911   -2.5349    0.0774 C   0  0  0  0  0  0  0  0  0  0  0  0
    8.0462   -2.2291    0.0532 C   0  0  0  0  0  0  0  0  0  0  0  0
    5.1150   -2.2148   -0.1819 C   0  0  0  0  0  0  0  0  0  0  0  0
    5.2468   -3.4390    0.4667 C   0  0  0  0  0  0  0  0  0  0  0  0
    4.3529   -3.7974    1.4549 C   0  0  0  0  0  0  0  0  0  0  0  0
    3.3097   -2.9551    1.8246 C   0  0  0  0  0  0  0  0  0  0  0  0
    2.3353   -3.3690    2.8852 C   0  0  0  0  0  0  0  0  0  0  0  0
    3.1846   -1.7366    1.1717 C   0  0  0  0  0  0  0  0  0  0  0  0
    4.0702   -1.3682    0.1781 C   0  0  0  0  0  0  0  0  0  0  0  0
    4.3287   -1.7734   -3.0057 C   0  0  0  0  0  0  0  0  0  0  0  0
    3.2276   -3.0435   -2.6155 S   0  0  0  0  0  0  0  0  0  0  0  0
    2.1871   -2.5391   -3.9514 C   0  0  0  0  0  0  0  0  0  0  0  0
    2.8008   -1.5304   -4.7555 C   0  0  0  0  0  0  0  0  0  0  0  0
    2.2882   -1.0735   -5.9337 N   0  0  0  0  0  0  0  0  0  0  0  0
    2.5104    0.2550   -6.3478 C   0  0  0  0  0  0  0  0  0  0  0  0
    2.8474    0.5214   -7.6721 C   0  0  0  0  0  0  0  0  0  0  0  0
    2.9894    1.8246   -8.0986 C   0  0  0  0  0  0  0  0  0  0  0  0
    2.8045    2.8911   -7.2242 C   0  0  0  0  0  0  0  0  0  0  0  0
    2.9048    4.2968   -7.7300 C   0  0  0  0  0  0  0  0  0  0  0  0
    2.5011    2.6136   -5.8987 C   0  0  0  0  0  0  0  0  0  0  0  0
    2.3506    1.3119   -5.4587 C   0  0  0  0  0  0  0  0  0  0  0  0
    1.5700   -1.9216   -6.8019 C   0  0  0  0  0  0  0  0  0  0  0  0
    1.9658   -3.2424   -6.9895 C   0  0  0  0  0  0  0  0  0  0  0  0
    1.2503   -4.0634   -7.8389 C   0  0  0  0  0  0  0  0  0  0  0  0
    0.1388   -3.5910   -8.5259 C   0  0  0  0  0  0  0  0  0  0  0  0
   -0.6408   -4.4760   -9.4487 C   0  0  0  0  0  0  0  0  0  0  0  0
   -0.2356   -2.2635   -8.3449 C   0  0  0  0  0  0  0  0  0  0  0  0
    0.4661   -1.4322   -7.4963 C   0  0  0  0  0  0  0  0  0  0  0  0
    3.9710   -1.0574   -4.1465 C   0  0  0  0  0  0  0  0  0  0  0  0
    5.0643    0.2751   -4.4340 S   0  0  0  0  0  0  0  0  0  0  0  0
    0.8437   -2.8657   -4.0554 C   0  0  0  0  0  0  0  0  0  0  0  0
    0.0642   -3.6783   -3.2494 C   0  0  0  0  0  0  0  0  0  0  0  0
    0.5561   -4.6248   -2.2526 C   0  0  0  0  0  0  0  0  0  0  0  0
    1.7130   -4.8242   -1.9148 O   0  0  0  0  0  0  0  0  0  0  0  0
   -0.6331   -5.3407   -1.7477 C   0  0  0  0  0  0  0  0  0  0  0  0
   -0.7100   -6.3713   -0.8340 C   0  0  0  0  0  0  0  0  0  0  0  0
   -1.9587   -6.9176   -0.5657 C   0  0  0  0  0  0  0  0  0  0  0  0
   -3.0889   -6.4407   -1.2104 C   0  0  0  0  0  0  0  0  0  0  0  0
   -3.0141   -5.3954   -2.1241 C   0  0  0  0  0  0  0  0  0  0  0  0
   -1.7773   -4.8348   -2.3864 C   0  0  0  0  0  0  0  0  0  0  0  0
   -1.3712   -3.7492   -3.2801 C   0  0  0  0  0  0  0  0  0  0  0  0
   -2.2392   -2.8972   -3.9237 C   0  0  0  0  0  0  0  0  0  0  0  0
   -1.8536   -1.7883   -4.6986 C   0  0  0  0  0  0  0  0  0  0  0  0
   -1.6119   -0.8501   -5.3188 N   0  0  0  0  0  0  0  0  0  0  0  0
   -3.6408   -2.9734   -3.8158 C   0  0  0  0  0  0  0  0  0  0  0  0
   -4.7889   -2.9704   -3.7592 N   0  0  0  0  0  0  0  0  0  0  0  0
   -8.1607   -2.6129    3.5566 H   0  0  0  0  0  0  0  0  0  0  0  0
   -4.0164   -6.8956    1.7684 H   0  0  0  0  0  0  0  0  0  0  0  0
   -4.8954   -9.0588    0.8705 H   0  0  0  0  0  0  0  0  0  0  0  0
   -8.8801   -7.5089    0.9189 H   0  0  0  0  0  0  0  0  0  0  0  0
   -2.5374   -2.8170    2.2907 H   0  0  0  0  0  0  0  0  0  0  0  0
   -0.2766   -2.5152    1.3244 H   0  0  0  0  0  0  0  0  0  0  0  0
    1.0483   -2.1122   -0.8220 H   0  0  0  0  0  0  0  0  0  0  0  0
    0.8422   -0.4023   -0.4602 H   0  0  0  0  0  0  0  0  0  0  0  0
    0.3543   -1.0214   -2.0356 H   0  0  0  0  0  0  0  0  0  0  0  0
   -1.9933   -0.5918   -2.0726 H   0  0  0  0  0  0  0  0  0  0  0  0
   -4.2388   -0.9203   -1.1294 H   0  0  0  0  0  0  0  0  0  0  0  0
   -7.2768   -1.0335    0.7256 H   0  0  0  0  0  0  0  0  0  0  0  0
   -8.9541   -2.0872   -0.7097 H   0  0  0  0  0  0  0  0  0  0  0  0
   -8.7872   -5.4786   -1.9016 H   0  0  0  0  0  0  0  0  0  0  0  0
   -8.4897   -4.2880   -3.1646 H   0  0  0  0  0  0  0  0  0  0  0  0
   -9.7297   -3.9825   -1.9434 H   0  0  0  0  0  0  0  0  0  0  0  0
   -6.2153   -5.2181   -1.6449 H   0  0  0  0  0  0  0  0  0  0  0  0
   -4.5062   -4.1431   -0.2271 H   0  0  0  0  0  0  0  0  0  0  0  0
   -6.2940    2.5953    4.2946 H   0  0  0  0  0  0  0  0  0  0  0  0
   -8.7093    2.8912    4.6307 H   0  0  0  0  0  0  0  0  0  0  0  0
  -10.4367    2.3159    7.8977 H   0  0  0  0  0  0  0  0  0  0  0  0
  -10.5014    3.3293    6.4477 H   0  0  0  0  0  0  0  0  0  0  0  0
  -10.7037    1.5865    6.3127 H   0  0  0  0  0  0  0  0  0  0  0  0
   -8.3256    1.4622    8.6300 H   0  0  0  0  0  0  0  0  0  0  0  0
   -5.9175    1.1469    8.2921 H   0  0  0  0  0  0  0  0  0  0  0  0
   -4.8051    3.5402    7.9004 H   0  0  0  0  0  0  0  0  0  0  0  0
   -3.2435    3.9815    9.7415 H   0  0  0  0  0  0  0  0  0  0  0  0
   -1.3682    3.1064   11.1439 H   0  0  0  0  0  0  0  0  0  0  0  0
   -0.2107    3.6393    9.9282 H   0  0  0  0  0  0  0  0  0  0  0  0
   -0.2172    1.9546   10.4497 H   0  0  0  0  0  0  0  0  0  0  0  0
   -0.6715    0.9020    8.3033 H   0  0  0  0  0  0  0  0  0  0  0  0
   -2.2724    0.3789    6.5389 H   0  0  0  0  0  0  0  0  0  0  0  0
   -3.7596    3.5079    2.8857 H   0  0  0  0  0  0  0  0  0  0  0  0
   -5.8606    4.7880    2.9034 H   0  0  0  0  0  0  0  0  0  0  0  0
   -6.3256    6.3452    4.7704 H   0  0  0  0  0  0  0  0  0  0  0  0
   -4.6470    6.6701    6.5298 H   0  0  0  0  0  0  0  0  0  0  0  0
   -1.3981    4.9048    6.7434 H   0  0  0  0  0  0  0  0  0  0  0  0
   -2.7201    5.4500    7.7673 H   0  0  0  0  0  0  0  0  0  0  0  0
   -2.5500    7.7390    6.8879 H   0  0  0  0  0  0  0  0  0  0  0  0
   -0.9694    7.2095    7.4655 H   0  0  0  0  0  0  0  0  0  0  0  0
   -1.3145    7.2436    5.7356 H   0  0  0  0  0  0  0  0  0  0  0  0
    9.7428    1.8694   -4.8195 H   0  0  0  0  0  0  0  0  0  0  0  0
    8.8315    1.2250   -3.4527 H   0  0  0  0  0  0  0  0  0  0  0  0
    9.4892   -0.5850   -4.9914 H   0  0  0  0  0  0  0  0  0  0  0  0
    7.7320   -0.4221   -4.9827 H   0  0  0  0  0  0  0  0  0  0  0  0
    8.6634    0.2137   -6.3339 H   0  0  0  0  0  0  0  0  0  0  0  0
    8.3547    2.5881   -6.8747 H   0  0  0  0  0  0  0  0  0  0  0  0
    6.6303    4.2148   -7.5006 H   0  0  0  0  0  0  0  0  0  0  0  0
    4.9833    4.9739   -5.8136 H   0  0  0  0  0  0  0  0  0  0  0  0
    5.0431    4.0299   -3.5450 H   0  0  0  0  0  0  0  0  0  0  0  0
    3.7447    1.3178    2.5575 H   0  0  0  0  0  0  0  0  0  0  0  0
    2.0108    1.2123    2.8591 H   0  0  0  0  0  0  0  0  0  0  0  0
    4.0866    0.8810    5.0808 H   0  0  0  0  0  0  0  0  0  0  0  0
    2.3427    0.6632    5.2030 H   0  0  0  0  0  0  0  0  0  0  0  0
    3.3013   -0.4440    4.2158 H   0  0  0  0  0  0  0  0  0  0  0  0
    5.5927    1.7672    3.8401 H   0  0  0  0  0  0  0  0  0  0  0  0
    5.9458    0.7595    2.4067 H   0  0  0  0  0  0  0  0  0  0  0  0
    7.8309    2.8572    3.5944 H   0  0  0  0  0  0  0  0  0  0  0  0
    8.1829    1.7994    2.2222 H   0  0  0  0  0  0  0  0  0  0  0  0
    7.9612    1.1096    3.8310 H   0  0  0  0  0  0  0  0  0  0  0  0
    7.5467   -2.3693   -3.2863 H   0  0  0  0  0  0  0  0  0  0  0  0
    9.9367   -2.8863   -3.2265 H   0  0  0  0  0  0  0  0  0  0  0  0
   11.8811   -3.5840   -1.9639 H   0  0  0  0  0  0  0  0  0  0  0  0
   11.8120   -3.6902   -0.1984 H   0  0  0  0  0  0  0  0  0  0  0  0
   12.1363   -2.1447   -0.9776 H   0  0  0  0  0  0  0  0  0  0  0  0
    9.9055   -2.5833    1.0265 H   0  0  0  0  0  0  0  0  0  0  0  0
    7.5152   -2.0343    0.9728 H   0  0  0  0  0  0  0  0  0  0  0  0
    6.0435   -4.1099    0.1830 H   0  0  0  0  0  0  0  0  0  0  0  0
    4.4592   -4.7552    1.9429 H   0  0  0  0  0  0  0  0  0  0  0  0
    2.8565   -3.7515    3.7614 H   0  0  0  0  0  0  0  0  0  0  0  0
    1.6942   -4.1668    2.5091 H   0  0  0  0  0  0  0  0  0  0  0  0
    1.7050   -2.5352    3.1867 H   0  0  0  0  0  0  0  0  0  0  0  0
    2.3827   -1.0660    1.4459 H   0  0  0  0  0  0  0  0  0  0  0  0
    3.9592   -0.4181   -0.3251 H   0  0  0  0  0  0  0  0  0  0  0  0
    2.9831   -0.2985   -8.3617 H   0  0  0  0  0  0  0  0  0  0  0  0
    3.2395    2.0217   -9.1308 H   0  0  0  0  0  0  0  0  0  0  0  0
    3.8975    4.4854   -8.1358 H   0  0  0  0  0  0  0  0  0  0  0  0
    2.7050    5.0132   -6.9377 H   0  0  0  0  0  0  0  0  0  0  0  0
    2.1842    4.4586   -8.5308 H   0  0  0  0  0  0  0  0  0  0  0  0
    2.3570    3.4252   -5.2010 H   0  0  0  0  0  0  0  0  0  0  0  0
    2.0782    1.1110   -4.4331 H   0  0  0  0  0  0  0  0  0  0  0  0
    2.8303   -3.6232   -6.4657 H   0  0  0  0  0  0  0  0  0  0  0  0
    1.5673   -5.0875   -7.9735 H   0  0  0  0  0  0  0  0  0  0  0  0
   -0.5642   -4.1137  -10.4735 H   0  0  0  0  0  0  0  0  0  0  0  0
   -1.6949   -4.4744   -9.1755 H   0  0  0  0  0  0  0  0  0  0  0  0
   -0.2722   -5.4980   -9.4148 H   0  0  0  0  0  0  0  0  0  0  0  0
   -1.0979   -1.8782   -8.8684 H   0  0  0  0  0  0  0  0  0  0  0  0
    0.1529   -0.4105   -7.3503 H   0  0  0  0  0  0  0  0  0  0  0  0
    0.3196   -2.3577   -4.8546 H   0  0  0  0  0  0  0  0  0  0  0  0
    0.1841   -6.7391   -0.3541 H   0  0  0  0  0  0  0  0  0  0  0  0
   -2.0476   -7.7300    0.1402 H   0  0  0  0  0  0  0  0  0  0  0  0
   -4.0497   -6.8883   -1.0020 H   0  0  0  0  0  0  0  0  0  0  0  0
   -3.9048   -5.0472   -2.6205 H   0  0  0  0  0  0  0  0  0  0  0  0
  1  2  2  0  0  0  0
  2  3  1  0  0  0  0
  3  4  2  0  0  0  0
  3  5  1  0  0  0  0
  5  6  2  0  0  0  0
  6  7  1  0  0  0  0
  7  8  2  0  0  0  0
  8  9  1  0  0  0  0
  8 10  1  0  0  0  0
 10 11  2  0  0  0  0
 11 12  1  0  0  0  0
 12 13  2  0  0  0  0
 13 14  1  0  0  0  0
 14 15  3  0  0  0  0
 13 16  1  0  0  0  0
 16 17  3  0  0  0  0
  1 18  1  0  0  0  0
 18 19  2  0  0  0  0
 19 20  1  0  0  0  0
 20 21  1  0  0  0  0
 21 22  2  0  0  0  0
 22 23  1  0  0  0  0
 23 24  2  0  0  0  0
 24 25  1  0  0  0  0
 24 26  1  0  0  0  0
 26 27  2  0  0  0  0
 20 28  1  0  0  0  0
 28 29  2  0  0  0  0
 29 30  1  0  0  0  0
 30 31  2  0  0  0  0
 31 32  1  0  0  0  0
 31 33  1  0  0  0  0
 33 34  2  0  0  0  0
 19 35  1  0  0  0  0
 35 36  1  0  0  0  0
 36 37  1  0  0  0  0
 37 38  2  0  0  0  0
 38 39  1  0  0  0  0
 39 40  1  0  0  0  0
 40 41  2  0  0  0  0
 41 42  1  0  0  0  0
 42 43  2  0  0  0  0
 43 44  1  0  0  0  0
 43 45  1  0  0  0  0
 45 46  2  0  0  0  0
 39 47  1  0  0  0  0
 47 48  2  0  0  0  0
 48 49  1  0  0  0  0
 49 50  2  0  0  0  0
 50 51  1  0  0  0  0
 50 52  1  0  0  0  0
 52 53  2  0  0  0  0
 38 54  1  0  0  0  0
 54 55  1  0  0  0  0
 37 56  1  0  0  0  0
 56 57  2  0  0  0  0
 57 58  1  0  0  0  0
 58 59  2  0  0  0  0
 59 60  1  0  0  0  0
 60 61  2  0  0  0  0
 61 62  1  0  0  0  0
 62 63  2  0  0  0  0
 63 64  1  0  0  0  0
 64 65  1  0  0  0  0
 57 66  1  0  0  0  0
 66 67  1  0  0  0  0
 67 68  1  0  0  0  0
 68 69  1  0  0  0  0
 69 70  1  0  0  0  0
 70 71  1  0  0  0  0
 71 72  2  0  0  0  0
 72 73  1  0  0  0  0
 73 74  1  0  0  0  0
 71 75  1  0  0  0  0
 75 76  1  0  0  0  0
 76 77  1  0  0  0  0
 77 78  1  0  0  0  0
 78 79  1  0  0  0  0
 79 80  1  0  0  0  0
 80 81  2  0  0  0  0
 81 82  1  0  0  0  0
 82 83  1  0  0  0  0
 81 84  1  0  0  0  0
 84 85  2  0  0  0  0
 85 86  1  0  0  0  0
 86 87  2  0  0  0  0
 79 88  2  0  0  0  0
 88 89  1  0  0  0  0
 89 90  1  0  0  0  0
 90 91  1  0  0  0  0
 91 92  1  0  0  0  0
 92 93  1  0  0  0  0
 93 94  1  0  0  0  0
 94 95  1  0  0  0  0
 95 96  1  0  0  0  0
 96 97  1  0  0  0  0
 97 98  1  0  0  0  0
 95 99  1  0  0  0  0
 99100  1  0  0  0  0
 92101  1  0  0  0  0
101102  1  0  0  0  0
 88103  1  0  0  0  0
103104  2  0  0  0  0
104105  1  0  0  0  0
105106  1  0  0  0  0
106107  2  0  0  0  0
107108  1  0  0  0  0
108109  2  0  0  0  0
109110  1  0  0  0  0
109111  1  0  0  0  0
111112  2  0  0  0  0
105113  1  0  0  0  0
113114  2  0  0  0  0
114115  1  0  0  0  0
115116  2  0  0  0  0
116117  1  0  0  0  0
116118  1  0  0  0  0
118119  2  0  0  0  0
104120  1  0  0  0  0
120121  1  0  0  0  0
121122  1  0  0  0  0
122123  2  0  0  0  0
123124  1  0  0  0  0
124125  1  0  0  0  0
125126  2  0  0  0  0
126127  1  0  0  0  0
127128  2  0  0  0  0
128129  1  0  0  0  0
128130  1  0  0  0  0
130131  2  0  0  0  0
124132  1  0  0  0  0
132133  2  0  0  0  0
133134  1  0  0  0  0
134135  2  0  0  0  0
135136  1  0  0  0  0
135137  1  0  0  0  0
137138  2  0  0  0  0
123139  1  0  0  0  0
139140  1  0  0  0  0
122141  1  0  0  0  0
141142  2  0  0  0  0
142143  1  0  0  0  0
143144  2  0  0  0  0
143145  1  0  0  0  0
145146  2  0  0  0  0
146147  1  0  0  0  0
147148  2  0  0  0  0
148149  1  0  0  0  0
149150  2  0  0  0  0
150151  1  0  0  0  0
151152  2  0  0  0  0
152153  1  0  0  0  0
153154  3  0  0  0  0
152155  1  0  0  0  0
155156  3  0  0  0  0
 12  2  1  0  0  0  0
 55 18  1  0  0  0  0
 98 56  1  0  0  0  0
140103  1  0  0  0  0
151142  1  0  0  0  0
 11  5  1  0  0  0  0
 27 21  1  0  0  0  0
 34 28  1  0  0  0  0
 54 35  2  0  0  0  0
 63 58  1  0  0  0  0
 97 66  2  0  0  0  0
112106  1  0  0  0  0
119113  1  0  0  0  0
139120  2  0  0  0  0
150145  1  0  0  0  0
 46 40  1  0  0  0  0
 53 47  1  0  0  0  0
 96 68  2  0  0  0  0
131125  1  0  0  0  0
138132  1  0  0  0  0
 94 69  2  0  0  0  0
 74 70  2  0  0  0  0
 93 75  2  0  0  0  0
 91 76  2  0  0  0  0
 90 78  2  0  0  0  0
 87 80  1  0  0  0  0
  1157  1  0  0  0  0
  6158  1  0  0  0  0
  7159  1  0  0  0  0
 10160  1  0  0  0  0
 22161  1  0  0  0  0
 23162  1  0  0  0  0
 25163  1  0  0  0  0
 25164  1  0  0  0  0
 25165  1  0  0  0  0
 26166  1  0  0  0  0
 27167  1  0  0  0  0
 29168  1  0  0  0  0
 30169  1  0  0  0  0
 32170  1  0  0  0  0
 32171  1  0  0  0  0
 32172  1  0  0  0  0
 33173  1  0  0  0  0
 34174  1  0  0  0  0
 41175  1  0  0  0  0
 42176  1  0  0  0  0
 44177  1  0  0  0  0
 44178  1  0  0  0  0
 44179  1  0  0  0  0
 45180  1  0  0  0  0
 46181  1  0  0  0  0
 48182  1  0  0  0  0
 49183  1  0  0  0  0
 51184  1  0  0  0  0
 51185  1  0  0  0  0
 51186  1  0  0  0  0
 52187  1  0  0  0  0
 53188  1  0  0  0  0
 59189  1  0  0  0  0
 60190  1  0  0  0  0
 61191  1  0  0  0  0
 62192  1  0  0  0  0
 64193  1  0  0  0  0
 64194  1  0  0  0  0
 65195  1  0  0  0  0
 65196  1  0  0  0  0
 65197  1  0  0  0  0
 82198  1  0  0  0  0
 82199  1  0  0  0  0
 83200  1  0  0  0  0
 83201  1  0  0  0  0
 83202  1  0  0  0  0
 84203  1  0  0  0  0
 85204  1  0  0  0  0
 86205  1  0  0  0  0
 87206  1  0  0  0  0
 99207  1  0  0  0  0
 99208  1  0  0  0  0
100209  1  0  0  0  0
100210  1  0  0  0  0
100211  1  0  0  0  0
101212  1  0  0  0  0
101213  1  0  0  0  0
102214  1  0  0  0  0
102215  1  0  0  0  0
102216  1  0  0  0  0
107217  1  0  0  0  0
108218  1  0  0  0  0
110219  1  0  0  0  0
110220  1  0  0  0  0
110221  1  0  0  0  0
111222  1  0  0  0  0
112223  1  0  0  0  0
114224  1  0  0  0  0
115225  1  0  0  0  0
117226  1  0  0  0  0
117227  1  0  0  0  0
117228  1  0  0  0  0
118229  1  0  0  0  0
119230  1  0  0  0  0
126231  1  0  0  0  0
127232  1  0  0  0  0
129233  1  0  0  0  0
129234  1  0  0  0  0
129235  1  0  0  0  0
130236  1  0  0  0  0
131237  1  0  0  0  0
133238  1  0  0  0  0
134239  1  0  0  0  0
136240  1  0  0  0  0
136241  1  0  0  0  0
136242  1  0  0  0  0
137243  1  0  0  0  0
138244  1  0  0  0  0
141245  1  0  0  0  0
146246  1  0  0  0  0
147247  1  0  0  0  0
148248  1  0  0  0  0
149249  1  0  0  0  0
M  END
