249

C         -3.39370       -8.00870        7.71400
C         -3.87470       -9.16950        7.13910
C         -3.13560      -10.06990        6.25560
O         -2.01700       -9.92190        5.79210
C         -4.01340      -11.23840        6.04120
C         -3.78040      -12.37720        5.29650
C         -4.76530      -13.35250        5.25050
C         -5.95190      -13.16550        5.94730
Cl        -7.16410      -14.38980        5.88160
C         -6.20010      -12.02060        6.69980
C         -5.21570      -11.04960        6.74370
C         -5.16620       -9.74550        7.41090
C         -6.20040       -9.18420        8.12310
C         -6.22320       -7.87470        8.63830
N         -6.34470       -6.80950        9.05510
C         -7.41540       -9.83920        8.40400
N         -8.42130      -10.31670        8.68680
C         -2.19920       -7.33020        7.51380
C         -1.86760       -6.12240        8.19050
N         -2.52820       -5.59830        9.26500
C         -3.12980       -6.39230       10.25930
C         -4.30410       -5.96040       10.87120
C         -4.89990       -6.73650       11.84470
C         -4.35350       -7.95610       12.22650
C         -5.04060       -8.80460       13.25110
C         -3.16920       -8.36680       11.62510
C         -2.55380       -7.59530       10.65980
C         -2.53160       -4.19860        9.44660
C         -2.21870       -3.64750       10.68510
C         -2.24810       -2.27900       10.85800
C         -2.59010       -1.42920        9.81130
C         -2.65440        0.05230       10.02490
C         -2.89580       -1.99030        8.57730
C         -2.86920       -3.35840        8.39060
C         -0.75960       -5.50660        7.59010
S          0.10960       -4.03590        7.89910
C          1.18600       -4.38140        6.55270
C          0.93680       -5.62070        5.97300
N          1.70920       -6.19600        4.98150
C          3.10360       -6.07570        4.99210
C          3.80800       -5.91860        6.18480
C          5.17780       -5.75820        6.16670
C          5.88910       -5.75990        4.97160
C          7.37450       -5.56420        4.97360
C          5.18320       -5.93780        3.78920
C          3.81060       -6.09030        3.79180
C          1.07610       -7.06780        4.07620
C          1.62380       -8.31060        3.77820
C          0.95670       -9.17340        2.93190
C         -0.26460       -8.82650        2.36850
C         -1.01590       -9.78780        1.50030
C         -0.79300       -7.57380        2.65480
C         -0.13330       -6.69910        3.49400
C         -0.19520       -6.23920        6.55170
S         -1.01520       -7.73130        6.26260
C          2.07140       -3.36620        6.09410
C          2.60230       -2.32100        6.82220
C          2.49860       -2.24520        8.29040
C          3.33030       -3.05620        9.05510
C          3.24280       -3.04820       10.43320
C          2.30960       -2.23510       11.05460
C          1.48130       -1.43120       10.29550
C          1.56380       -1.41490        8.90900
C          0.63900       -0.53400        8.11800
C          0.96230        0.94620        8.32040
C          3.24560       -1.38520        5.99460
S          4.01720        0.15020        6.31370
C          4.18660        0.39410        4.60630
C          4.51150        1.42590        3.70880
C          4.78860        2.79670        3.91750
C          4.68130        3.70900        2.80860
N          4.85060        4.96880        3.17550
S          5.13480        5.00860        4.76940
N          5.04010        3.41790        5.05810
C          4.43880        3.19240        1.51640
C          4.19200        3.79510        0.26810
S          3.81980        5.35970       -0.38770
C          3.41730        4.60170       -1.91330
C          2.80390        5.07160       -3.08800
C          2.44720        6.48790       -3.27230
C          3.04110        7.29140       -4.24920
C          4.08330        6.77020       -5.20170
C          3.62730        6.84740       -6.65900
C          2.67360        8.62970       -4.31550
C          1.74810        9.16900       -3.44330
C          1.17950        8.37280       -2.46450
C          1.53200        7.04190       -2.38000
C          2.55140        4.03890       -3.98060
S          3.16160        2.49650       -3.39640
C          3.65140        3.22650       -1.91570
C          4.07820        2.76310       -0.66860
N          4.24680        1.54760       -0.05750
C          4.39380        1.78910        1.29600
C          4.27490        0.91710        2.40380
N          3.81200       -0.38520        2.50590
C          3.72860       -0.68230        3.84120
C          3.19100       -1.70240        4.63570
S          2.37760       -3.20270        4.36720
C          3.04320       -1.16330        1.55730
C          1.76790       -0.44240        1.12970
C          4.69210        0.38040       -0.78710
C          5.83670        0.71260       -1.74220
C          1.74230        4.11360       -5.15160
C          1.65000        3.28070       -6.26200
N          2.43140        2.15730       -6.54460
C          2.96120        2.07600       -7.84320
C          3.49870        3.21790       -8.43260
C          3.99770        3.16960       -9.71800
C          3.98700        1.98670      -10.44740
C          4.50670        1.95030      -11.85140
C          3.45610        0.85070       -9.84910
C          2.94250        0.88810       -8.56790
C          2.37740        1.03490       -5.71670
C          3.47110        0.17260       -5.63010
C          3.44980       -0.88840       -4.75030
C          2.34820       -1.12810       -3.93530
C          2.33580       -2.28190       -2.97780
C          1.25110       -0.28470       -4.04740
C          1.25660        0.78080       -4.92650
C          0.65160        3.73410       -7.15370
S          0.10740        3.18030       -8.69170
C         -1.17360        4.40780       -8.70160
C         -1.07320        5.28340       -7.59500
N         -1.75770        6.44390       -7.39940
C         -2.37030        7.16210       -8.43650
C         -3.62360        7.73500       -8.23220
C         -4.25940        8.40440       -9.26120
C         -3.66650        8.52930      -10.51010
C         -4.37080        9.20660      -11.64270
C         -2.39090        7.99750      -10.68970
C         -1.74780        7.32310       -9.67370
C         -1.88960        6.95870       -6.08790
C         -2.33920        6.14470       -5.05280
C         -2.49580        6.67030       -3.78680
C         -2.21460        8.00680       -3.52330
C         -2.43750        8.56510       -2.15170
C         -1.76120        8.80670       -4.56400
C         -1.59880        8.29410       -5.83700
C         -0.05080        4.84980       -6.72200
S          0.55150        5.41310       -5.20030
C         -2.08600        4.35390       -9.75210
C         -3.37750        4.84870       -9.72220
C         -4.16730        4.97600       -8.48990
O         -3.81620        4.72260       -7.35180
C         -5.53010        5.34670       -8.93140
C         -6.65830        5.57730       -8.17190
C         -7.83370        5.93010       -8.81920
C         -7.85400        6.03210      -10.20330
Cl        -9.32560        6.46790      -10.99110
C         -6.72490        5.79300      -10.98210
C         -5.55430        5.45010      -10.33200
C         -4.21270        5.16140      -10.84240
C         -3.79320        5.32310      -12.14120
C         -4.62610        5.74150      -13.19390
N         -5.25470        6.09650      -14.08810
C         -2.45670        5.16790      -12.55720
N         -1.38230        5.08970      -12.95690
H         -4.05320       -7.53840        8.43190
H         -2.84850      -12.49660        4.76570
H         -4.61930      -14.25560        4.67940
H         -7.13530      -11.91690        7.22460
H         -4.75250       -5.02750       10.56870
H         -5.81790       -6.39820       12.30060
H         -5.30190       -8.21300       14.12660
H         -5.96430       -9.21080       12.83860
H         -4.40910       -9.63310       13.56140
H         -2.71620       -9.30230       11.92020
H         -1.63080       -7.92510       10.20590
H         -1.95260       -4.29790       11.50490
H         -2.00140       -1.86120       11.82310
H         -3.58510        0.31380       10.52930
H         -1.83210        0.39060       10.65190
H         -2.62030        0.58760        9.07920
H         -3.16800       -1.34910        7.75130
H         -3.12160       -3.78460        7.43080
H          3.27770       -5.92930        7.12590
H          5.71020       -5.63750        7.09960
H          7.61800       -4.53260        5.22960
H          7.79760       -5.78390        3.99670
H          7.84560       -6.20940        5.71310
H          5.71320       -5.94790        2.84740
H          3.27310       -6.21350        2.86330
H          2.56300       -8.60050        4.22590
H          1.38510      -10.14250        2.72090
H         -1.78820      -10.28230        2.09020
H         -0.35440      -10.55080        1.09740
H         -1.50360       -9.27020        0.67660
H         -1.73700       -7.28140        2.21800
H         -0.55230       -5.72700        3.71140
H          4.04570       -3.69290        8.55410
H          3.89320       -3.67960       11.02020
H          2.22540       -2.23340       12.13140
H          0.74410       -0.81040       10.78310
H         -0.38600       -0.73140        8.43890
H          0.70950       -0.77780        7.05680
H          0.28030        1.56410        7.74060
H          1.97920        1.15960        8.00010
H          0.87070        1.22020        9.36830
H          4.99030        7.37070       -5.08650
H          4.33560        5.73770       -4.95540
H          4.40610        6.46470       -7.31540
H          2.72350        6.26170       -6.80990
H          3.41350        7.87390       -6.94510
H          3.13750        9.26390       -5.05710
H          1.48380       10.21350       -3.51650
H          0.47530        8.79040       -1.76260
H          1.09550        6.41080       -1.61990
H          2.78040       -2.09380        2.06640
H          3.64070       -1.42790        0.68500
H          1.18480       -1.08760        0.47850
H          1.99630        0.47740        0.59820
H          1.16750       -0.19770        2.00290
H          3.85570       -0.04150       -1.35590
H          5.05710       -0.34430       -0.05960
H          6.21750       -0.20660       -2.17920
H          6.64490        1.20690       -1.20750
H          5.50020        1.35750       -2.54800
H          3.52100        4.14210       -7.87480
H          4.40610        4.06580      -10.16270
H          3.73530        2.29440      -12.54100
H          5.36950        2.60370      -11.96260
H          4.78900        0.93980      -12.13660
H          3.43030       -0.07840      -10.39990
H          2.51360       -0.00050       -8.12920
H          4.34210        0.35930       -6.23990
H          4.31120       -1.53770       -4.68440
H          1.76800       -2.03810       -2.08200
H          3.34770       -2.56180       -2.69210
H          1.86690       -3.14970       -3.44280
H          0.37780       -0.46070       -3.43560
H          0.39590        1.42970       -4.99700
H         -4.10080        7.63700       -7.26880
H         -5.24130        8.82140       -9.09130
H         -3.73690        9.97350      -12.08460
H         -5.29720        9.66500      -11.30690
H         -4.60850        8.48600      -12.42550
H         -1.89950        8.10640      -11.64550
H         -0.76240        6.91360       -9.83830
H         -2.59660        5.11920       -5.26620
H         -2.85720        6.03700       -2.98980
H         -3.50530        8.60800       -1.93580
H         -1.97410        7.92940       -1.39950
H         -2.03220        9.57000       -2.06770
H         -1.53440        9.84640       -4.37990
H         -1.25100        8.92490       -6.64190
H         -1.75570        3.82550      -10.63860
H         -6.61780        5.48940       -7.09720
H         -8.73330        6.12550       -8.25710
H         -6.78510        5.87260      -12.05510
