253

C         -8.72650        9.38220       -2.78270
C         -9.84280        9.45180       -1.96910
C         -9.78100        9.42130       -0.50130
O         -8.79330        9.29080        0.19860
C        -11.15700        9.71500       -0.04240
C        -11.64230        9.81730        1.24480
C        -12.99080       10.08900        1.42660
C        -13.81360       10.26240        0.32240
Cl       -15.48660       10.60440        0.56760
C        -13.33480       10.17100       -0.98180
C        -11.99270        9.89070       -1.15770
C        -11.19380        9.70640       -2.37060
C        -11.68440        9.61840       -3.65140
C        -13.04310        9.75410       -3.98700
N        -14.14220        9.83230       -4.31320
C        -10.89430        9.29700       -4.77210
N        -10.31330        9.00310       -5.71880
C         -7.52210        8.76120       -2.45990
C         -7.22420        7.72250       -1.54810
N         -8.11690        6.94390       -0.87470
C         -7.70520        6.28410        0.30530
C         -7.04020        6.98300        1.30800
C         -6.64300        6.32530        2.45440
C         -6.89890        4.96930        2.62980
C         -6.43770        4.26470        3.86810
C         -7.57810        4.28730        1.62800
C         -7.98110        4.93230        0.47460
C         -9.43430        6.73610       -1.30710
C        -10.46740        6.68690       -0.37350
C        -11.77440        6.51680       -0.79010
C        -12.08700        6.38310       -2.13630
C        -13.50470        6.25160       -2.59510
C        -11.04270        6.38800       -3.05850
C         -9.73520        6.56180       -2.65720
C         -5.83010        7.49450       -1.50500
S         -4.83420        6.36460       -0.65080
C         -3.40390        6.99690       -1.44590
C         -3.69540        7.98230       -2.37940
N         -2.77660        8.56720       -3.22840
C         -2.94910        9.89900       -3.63470
C         -2.62330       10.28270       -4.93320
C         -2.79990       11.59090       -5.33440
C         -3.30980       12.54810       -4.46430
C         -3.52880       13.95760       -4.92170
C         -3.63160       12.15650       -3.17170
C         -3.45320       10.85220       -2.75480
C         -1.67730        7.82590       -3.68790
C         -0.42340        8.41990       -3.80170
C          0.67270        7.66230       -4.16090
C          0.55290        6.30420       -4.43260
C          1.76270        5.47720       -4.74280
C         -0.71360        5.73640       -4.38650
C         -1.81710        6.48130       -4.02040
C         -5.08260        8.26460       -2.38670
S         -6.07770        9.30960       -3.32970
C         -2.11630        6.46200       -1.11440
C         -0.96130        7.15400       -0.81270
C         -0.89200        8.59360       -0.57070
C         -1.93680        9.26500        0.06080
C         -1.84300       10.62250        0.29870
C         -0.71480       11.32540       -0.08730
C          0.34520       10.66990       -0.69880
C          1.60430       11.40110       -1.06520
C          2.66200       11.21450        0.02430
C          0.24870        9.30560       -0.92570
C          0.13290        6.27180       -0.66890
S          1.81390        6.51860       -0.26670
C          2.05470        4.80420       -0.27880
C          3.08240        3.86690       -0.05600
C          4.46850        3.98600        0.19010
C          5.27210        2.79320        0.28760
N          6.55610        3.06560        0.45770
S          6.74290        4.67230        0.50090
N          5.19150        5.08940        0.30030
C          4.63940        1.52980        0.26320
C          5.10040        0.21640        0.47910
S          6.58510       -0.62410        0.77970
C          5.69010       -2.11970        0.89730
C          6.08380       -3.44590        1.17670
C          7.44590       -3.76980        1.60430
C          8.53890       -3.32030        0.87170
C          9.81660       -3.51580        1.35900
C         10.01060       -4.12870        2.58390
C          8.92950       -4.58020        3.32960
C          9.13850       -5.17530        4.69140
C          9.20220       -4.07110        5.74900
C          7.65120       -4.40660        2.82340
C          5.00180       -4.30370        1.13330
S          3.48420       -3.46430        0.81210
C          4.31770       -1.95620        0.70590
C          3.97840       -0.61770        0.47960
N          2.83690        0.11740        0.26670
C          3.23350        1.43370        0.10590
C          2.48580        2.58940       -0.20180
N          1.15910        2.73600       -0.56900
C          0.89950        4.08550       -0.59540
C         -0.19840        4.92640       -0.82050
S         -1.87700        4.72210       -1.16580
C          0.40190        1.82900       -1.40850
C          0.43570        2.27500       -2.86950
C          1.57580       -0.33460        0.82120
C          1.68150       -0.56110        2.32940
C          4.94760       -5.72910        1.18440
C          5.88840       -6.66630        0.80020
N          7.17270       -6.39070        0.28930
C          7.21210       -6.32540       -1.12730
C          7.86840       -7.30190       -1.87320
C          7.88490       -7.23150       -3.25080
C          7.23750       -6.20210       -3.92600
C          7.28040       -6.13200       -5.42210
C          6.56460       -5.24770       -3.17660
C          6.54710       -5.30460       -1.79480
C          8.28550       -6.86690        0.99080
C          8.16360       -7.53020        2.20880
C          9.28730       -7.95150        2.89320
C         10.56200       -7.71110        2.40490
C         11.78320       -8.17070        3.14350
C         10.67940       -7.02350        1.20240
C          9.56680       -6.60490        0.50520
C          5.35980       -7.97470        0.87800
S          5.96930       -9.53970        0.49290
C          4.46200      -10.28810        1.00220
C          3.52410       -9.34590        1.42230
N          2.17340       -9.59700        1.66810
C          1.75430      -10.15370        2.88830
C          0.73610      -11.10160        2.90940
C          0.31270      -11.63440        4.11140
C          0.89180      -11.24430        5.31340
C          0.46380      -11.83910        6.61780
C          1.90600      -10.29320        5.28090
C          2.33550       -9.74810        4.08560
C          1.25090       -8.94460        0.84050
C          0.01790       -8.51340        1.32330
C         -0.87390       -7.87630        0.48320
C         -0.56550       -7.63630       -0.84910
C         -1.53670       -6.95290       -1.76290
C          0.66950       -8.06420       -1.32280
C          1.56500       -8.71330       -0.49880
C          4.04990       -8.04060        1.32670
S          3.41960       -6.46600        1.65020
C          4.29680      -11.67000        0.72860
C          3.67170      -12.65040        1.43460
C          3.22890      -13.88250        0.71780
O          3.46770      -14.16650       -0.43530
C          2.42380      -14.62900        1.69380
C          1.67780      -15.77860        1.52450
C          0.97740      -16.29320        2.60380
C          1.02780      -15.65820        3.84640
O          0.36390      -16.07280        4.94820
C         -0.41990      -17.24180        4.88210
C          1.79860      -14.49930        4.02250
C          2.48860      -13.98810        2.94660
C          3.35620      -12.81520        2.83240
C          3.97040      -12.18710        3.88360
C          3.79180      -12.56290        5.23040
N          3.71240      -12.84600        6.34060
C          4.92230      -11.15800        3.74630
N          5.72260      -10.33570        3.69910
H         -8.75390        9.88790       -3.74060
H        -10.98230        9.68070        2.08750
H        -13.40650       10.16760        2.41880
H        -14.00450       10.32310       -1.81230
H         -6.87130        8.04130        1.18550
H         -6.13120        6.87400        3.23140
H         -6.59530        4.88600        4.74720
H         -6.96490        3.32340        4.00140
H         -5.37080        4.05140        3.79750
H         -7.79200        3.23520        1.74810
H         -8.50660        4.39320       -0.30020
H        -10.23940        6.79520        0.67620
H        -12.56490        6.50200       -0.05390
H        -13.58960        5.49580       -3.37320
H        -13.85260        7.19660       -3.01470
H        -14.15890        5.98660       -1.76860
H        -11.25990        6.26030       -4.10890
H         -8.94300        6.56560       -3.39080
H         -2.23620        9.54830       -5.62400
H         -2.54630       11.87280       -6.34610
H         -3.51940       14.64580       -4.07990
H         -2.76320       14.25810       -5.63350
H         -4.49740       14.04130       -5.41600
H         -4.02430       12.88350       -2.47570
H         -3.69220       10.56980       -1.74110
H         -0.31600        9.47190       -3.58470
H          1.64490        8.13010       -4.21830
H          2.26920        5.20100       -3.81630
H          1.48820        4.56440       -5.26650
H          2.46870        6.03640       -5.35270
H         -0.84390        4.69470       -4.64360
H         -2.79320        6.01950       -3.98560
H         -2.81040        8.71790        0.38310
H         -2.65410       11.13730        0.79330
H         -0.65370       12.38840        0.09570
H          1.39370       12.46500       -1.18990
H          1.99290       11.01590       -2.01040
H          2.89000       10.15880        0.15270
H          3.57710       11.73930       -0.23980
H          2.29940       11.60420        0.97300
H          1.06800        8.78990       -1.40330
H          8.38390       -2.83180       -0.07860
H         10.66630       -3.17540        0.78590
H         11.01170       -4.26000        2.96770
H          8.32010       -5.85690        4.92750
H         10.07030       -5.74270        4.70420
H         10.02120       -3.38810        5.53470
H          9.35540       -4.49850        6.73730
H          8.27620       -3.50010        5.75690
H          6.79700       -4.74310        3.39440
H          0.83850        0.83400       -1.34270
H         -0.63360        1.80290       -1.05330
H         -0.01560        3.25640       -2.98160
H         -0.11530        1.56460       -3.47980
H          1.46350        2.31920       -3.22380
H          1.29130       -1.26800        0.32490
H          0.81460        0.42180        0.64340
H          2.00820        0.35200        2.82270
H          2.38820       -1.35350        2.55790
H          0.70880       -0.84320        2.72280
H          8.36120       -8.11730       -1.36420
H          8.39980       -7.99600       -3.81500
H          7.08660       -7.11030       -5.85810
H          8.26770       -5.80990       -5.75390
H          6.54590       -5.42570       -5.80080
H          6.04710       -4.44190       -3.67780
H          6.01960       -4.55150       -1.23210
H          7.19300       -7.72530        2.63690
H          9.16010       -8.47990        3.82690
H         12.50660       -7.36130        3.23210
H         12.26550       -8.98850        2.60770
H         11.52490       -8.52150        4.13970
H         11.66180       -6.80810        0.80630
H          9.68440       -6.06020       -0.41930
H          0.28300      -11.41170        1.97900
H         -0.47530      -12.37380        4.11360
H          0.08410      -11.06550        7.28400
H          1.31870      -12.30670        7.10650
H         -0.31120      -12.58730        6.47180
H          2.36520       -9.97620        6.20580
H          3.11590       -9.00130        4.07440
H         -0.23650       -8.66940        2.36090
H         -1.82490       -7.54870        0.87850
H         -1.02950       -6.21310       -2.37930
H         -2.00060       -7.68050       -2.42960
H         -2.32300       -6.46030       -1.19640
H          0.93220       -7.89210       -2.35670
H          2.51280       -9.04870       -0.89390
H          4.67310      -11.98840       -0.24160
H          1.64350      -16.26410        0.56140
H          0.39310      -17.18950        2.46920
H         -0.83420      -17.37230        5.88020
H         -1.23720      -17.13710        4.16180
H          0.18480      -18.11650        4.62490
H          1.81130      -14.03920        4.99560
