
  xtb     02072206283D
 energy: -378.856044296284 gnorm: 0.000387936049 xtb: 6.4.1 (unknown)
224247  0     0  0            999 V2000
   -1.0413    1.7107   12.4688 C   0  0  0  0  0  0  0  0  0  0  0  0
   -0.8567    2.9155   13.1221 C   0  0  0  0  0  0  0  0  0  0  0  0
   -0.6848    4.1991   12.4280 C   0  0  0  0  0  0  0  0  0  0  0  0
   -0.7221    4.4067   11.2288 O   0  0  0  0  0  0  0  0  0  0  0  0
   -0.3226    5.1721   13.4829 C   0  0  0  0  0  0  0  0  0  0  0  0
   -0.0407    6.5176   13.3672 C   0  0  0  0  0  0  0  0  0  0  0  0
    0.2621    7.2340   14.5162 C   0  0  0  0  0  0  0  0  0  0  0  0
    0.2855    6.5885   15.7448 C   0  0  0  0  0  0  0  0  0  0  0  0
    0.6673    7.4949   17.1621 Cl  0  0  0  0  0  0  0  0  0  0  0  0
    0.0118    5.2295   15.8745 C   0  0  0  0  0  0  0  0  0  0  0  0
   -0.2966    4.5220   14.7278 C   0  0  0  0  0  0  0  0  0  0  0  0
   -0.6493    3.1158   14.5251 C   0  0  0  0  0  0  0  0  0  0  0  0
   -0.9013    2.1981   15.5164 C   0  0  0  0  0  0  0  0  0  0  0  0
   -0.7918    2.4694   16.8919 C   0  0  0  0  0  0  0  0  0  0  0  0
   -0.7356    2.6382   18.0273 N   0  0  0  0  0  0  0  0  0  0  0  0
   -1.3816    0.8962   15.2752 C   0  0  0  0  0  0  0  0  0  0  0  0
   -1.8054   -0.1648   15.1542 N   0  0  0  0  0  0  0  0  0  0  0  0
   -1.6077    1.5465   11.2068 C   0  0  0  0  0  0  0  0  0  0  0  0
   -2.5046    2.3568   10.4726 C   0  0  0  0  0  0  0  0  0  0  0  0
   -3.1953    3.4345   10.9370 N   0  0  0  0  0  0  0  0  0  0  0  0
   -3.6966    4.3861   10.0195 C   0  0  0  0  0  0  0  0  0  0  0  0
   -5.0216    4.7975   10.1069 C   0  0  0  0  0  0  0  0  0  0  0  0
   -5.5137    5.7259    9.2103 C   0  0  0  0  0  0  0  0  0  0  0  0
   -4.7027    6.2623    8.2172 C   0  0  0  0  0  0  0  0  0  0  0  0
   -5.2474    7.2441    7.2265 C   0  0  0  0  0  0  0  0  0  0  0  0
   -3.3745    5.8554    8.1528 C   0  0  0  0  0  0  0  0  0  0  0  0
   -2.8688    4.9284    9.0419 C   0  0  0  0  0  0  0  0  0  0  0  0
   -3.4594    3.6483   12.2977 C   0  0  0  0  0  0  0  0  0  0  0  0
   -3.3770    4.9362   12.8217 C   0  0  0  0  0  0  0  0  0  0  0  0
   -3.5888    5.1537   14.1707 C   0  0  0  0  0  0  0  0  0  0  0  0
   -3.8950    4.1050   15.0267 C   0  0  0  0  0  0  0  0  0  0  0  0
   -4.0818    4.3253   16.4945 C   0  0  0  0  0  0  0  0  0  0  0  0
   -4.0274    2.8281   14.4838 C   0  0  0  0  0  0  0  0  0  0  0  0
   -3.8137    2.5966   13.1419 C   0  0  0  0  0  0  0  0  0  0  0  0
   -2.6978    1.8228    9.1780 C   0  0  0  0  0  0  0  0  0  0  0  0
   -3.6563    2.3030    7.8171 S   0  0  0  0  0  0  0  0  0  0  0  0
   -3.1072    0.9032    6.9112 C   0  0  0  0  0  0  0  0  0  0  0  0
   -2.2841    0.0683    7.6561 C   0  0  0  0  0  0  0  0  0  0  0  0
   -1.8046   -1.1616    7.2469 N   0  0  0  0  0  0  0  0  0  0  0  0
   -2.5490   -1.9651    6.3715 C   0  0  0  0  0  0  0  0  0  0  0  0
   -3.9404   -1.9983    6.4399 C   0  0  0  0  0  0  0  0  0  0  0  0
   -4.6658   -2.6964    5.4965 C   0  0  0  0  0  0  0  0  0  0  0  0
   -4.0333   -3.3931    4.4729 C   0  0  0  0  0  0  0  0  0  0  0  0
   -4.8371   -4.0847    3.4150 C   0  0  0  0  0  0  0  0  0  0  0  0
   -2.6447   -3.4060    4.4482 C   0  0  0  0  0  0  0  0  0  0  0  0
   -1.9066   -2.7032    5.3801 C   0  0  0  0  0  0  0  0  0  0  0  0
   -0.5564   -1.6022    7.7176 C   0  0  0  0  0  0  0  0  0  0  0  0
   -0.3727   -2.9345    8.0773 C   0  0  0  0  0  0  0  0  0  0  0  0
    0.8520   -3.3609    8.5486 C   0  0  0  0  0  0  0  0  0  0  0  0
    1.9185   -2.4786    8.6818 C   0  0  0  0  0  0  0  0  0  0  0  0
    3.2328   -2.9442    9.2288 C   0  0  0  0  0  0  0  0  0  0  0  0
    1.7270   -1.1524    8.3163 C   0  0  0  0  0  0  0  0  0  0  0  0
    0.5093   -0.7144    7.8336 C   0  0  0  0  0  0  0  0  0  0  0  0
   -2.0494    0.6180    8.9397 C   0  0  0  0  0  0  0  0  0  0  0  0
   -1.1723    0.0747   10.3208 S   0  0  0  0  0  0  0  0  0  0  0  0
   -3.5330    0.7641    5.5552 C   0  0  0  0  0  0  0  0  0  0  0  0
   -4.7723    1.0472    5.0380 C   0  0  0  0  0  0  0  0  0  0  0  0
   -4.8427    0.7953    3.6633 C   0  0  0  0  0  0  0  0  0  0  0  0
   -6.1234    0.9187    2.4823 S   0  0  0  0  0  0  0  0  0  0  0  0
   -5.0223    0.3769    1.2552 C   0  0  0  0  0  0  0  0  0  0  0  0
   -4.9880    0.1716   -0.1362 C   0  0  0  0  0  0  0  0  0  0  0  0
   -5.8795    0.4456   -1.1950 C   0  0  0  0  0  0  0  0  0  0  0  0
   -7.1255    0.9227   -1.2199 N   0  0  0  0  0  0  0  0  0  0  0  0
   -7.3882    1.0693   -2.4949 N   0  0  0  0  0  0  0  0  0  0  0  0
   -8.6688    1.5241   -2.9529 C   0  0  0  0  0  0  0  0  0  0  0  0
   -9.6117    0.3438   -3.1683 C   0  0  0  0  0  0  0  0  0  0  0  0
   -6.4382    0.7337   -3.3320 N   0  0  0  0  0  0  0  0  0  0  0  0
   -5.4406    0.3222   -2.5473 C   0  0  0  0  0  0  0  0  0  0  0  0
   -4.1662   -0.2120   -2.8303 C   0  0  0  0  0  0  0  0  0  0  0  0
   -3.4623   -0.5235   -4.0078 C   0  0  0  0  0  0  0  0  0  0  0  0
   -3.6176   -0.3315   -5.7249 S   0  0  0  0  0  0  0  0  0  0  0  0
   -2.0580   -1.0905   -5.9335 C   0  0  0  0  0  0  0  0  0  0  0  0
   -1.2627   -1.3600   -7.0479 C   0  0  0  0  0  0  0  0  0  0  0  0
   -0.0760   -1.9741   -6.7097 C   0  0  0  0  0  0  0  0  0  0  0  0
    0.0703   -2.2117   -4.9731 S   0  0  0  0  0  0  0  0  0  0  0  0
   -1.4750   -1.4859   -4.7242 C   0  0  0  0  0  0  0  0  0  0  0  0
   -2.2742   -1.1567   -3.6266 C   0  0  0  0  0  0  0  0  0  0  0  0
   -2.1966   -1.2406   -2.2574 N   0  0  0  0  0  0  0  0  0  0  0  0
   -1.4956   -2.3453   -1.6325 C   0  0  0  0  0  0  0  0  0  0  0  0
   -1.9860   -3.6910   -2.1670 C   0  0  0  0  0  0  0  0  0  0  0  0
   -3.3347   -0.6244   -1.7574 C   0  0  0  0  0  0  0  0  0  0  0  0
   -3.6775   -0.2844   -0.4340 C   0  0  0  0  0  0  0  0  0  0  0  0
   -2.9200   -0.3136    0.7272 N   0  0  0  0  0  0  0  0  0  0  0  0
   -3.7432    0.0968    1.7458 C   0  0  0  0  0  0  0  0  0  0  0  0
   -3.6390    0.3407    3.1190 C   0  0  0  0  0  0  0  0  0  0  0  0
   -2.4025    0.2379    4.3163 S   0  0  0  0  0  0  0  0  0  0  0  0
   -1.4926   -0.0865    0.8261 C   0  0  0  0  0  0  0  0  0  0  0  0
   -1.1765    1.4023    0.9690 C   0  0  0  0  0  0  0  0  0  0  0  0
    0.9999   -2.2721   -7.5859 C   0  0  0  0  0  0  0  0  0  0  0  0
    2.0820   -3.1307   -7.4115 C   0  0  0  0  0  0  0  0  0  0  0  0
    2.2517   -4.0288   -6.3743 N   0  0  0  0  0  0  0  0  0  0  0  0
    1.1967   -4.7948   -5.8718 C   0  0  0  0  0  0  0  0  0  0  0  0
    0.0819   -5.1036   -6.6503 C   0  0  0  0  0  0  0  0  0  0  0  0
   -0.9627   -5.8262   -6.1126 C   0  0  0  0  0  0  0  0  0  0  0  0
   -0.9275   -6.2770   -4.7973 C   0  0  0  0  0  0  0  0  0  0  0  0
   -2.0792   -7.0496   -4.2301 C   0  0  0  0  0  0  0  0  0  0  0  0
    0.1970   -5.9876   -4.0356 C   0  0  0  0  0  0  0  0  0  0  0  0
    1.2438   -5.2537   -4.5564 C   0  0  0  0  0  0  0  0  0  0  0  0
    3.5779   -4.3210   -5.9907 C   0  0  0  0  0  0  0  0  0  0  0  0
    4.0219   -5.6355   -5.8931 C   0  0  0  0  0  0  0  0  0  0  0  0
    5.3396   -5.8957   -5.5777 C   0  0  0  0  0  0  0  0  0  0  0  0
    6.2438   -4.8631   -5.3562 C   0  0  0  0  0  0  0  0  0  0  0  0
    7.6839   -5.1579   -5.0740 C   0  0  0  0  0  0  0  0  0  0  0  0
    5.7856   -3.5546   -5.4362 C   0  0  0  0  0  0  0  0  0  0  0  0
    4.4680   -3.2805   -5.7457 C   0  0  0  0  0  0  0  0  0  0  0  0
    3.0181   -2.9888   -8.4624 C   0  0  0  0  0  0  0  0  0  0  0  0
    4.5286   -3.7516   -8.8035 S   0  0  0  0  0  0  0  0  0  0  0  0
    4.6956   -2.7817  -10.2725 C   0  0  0  0  0  0  0  0  0  0  0  0
    3.5405   -1.9812  -10.5127 C   0  0  0  0  0  0  0  0  0  0  0  0
    3.3316   -1.1958  -11.6107 N   0  0  0  0  0  0  0  0  0  0  0  0
    2.5631   -0.0228  -11.4607 C   0  0  0  0  0  0  0  0  0  0  0  0
    1.5532    0.2865  -12.3649 C   0  0  0  0  0  0  0  0  0  0  0  0
    0.8071    1.4367  -12.1979 C   0  0  0  0  0  0  0  0  0  0  0  0
    1.0443    2.2990  -11.1344 C   0  0  0  0  0  0  0  0  0  0  0  0
    0.2151    3.5292  -10.9347 C   0  0  0  0  0  0  0  0  0  0  0  0
    2.0639    1.9851  -10.2423 C   0  0  0  0  0  0  0  0  0  0  0  0
    2.8198    0.8419  -10.4000 C   0  0  0  0  0  0  0  0  0  0  0  0
    3.7501   -1.5659  -12.9020 C   0  0  0  0  0  0  0  0  0  0  0  0
    4.1491   -0.5880  -13.8099 C   0  0  0  0  0  0  0  0  0  0  0  0
    4.5512   -0.9499  -15.0798 C   0  0  0  0  0  0  0  0  0  0  0  0
    4.5768   -2.2825  -15.4745 C   0  0  0  0  0  0  0  0  0  0  0  0
    5.0520   -2.6566  -16.8441 C   0  0  0  0  0  0  0  0  0  0  0  0
    4.1611   -3.2488  -14.5655 C   0  0  0  0  0  0  0  0  0  0  0  0
    3.7427   -2.9016  -13.2967 C   0  0  0  0  0  0  0  0  0  0  0  0
    2.6356   -2.0849   -9.4469 C   0  0  0  0  0  0  0  0  0  0  0  0
    1.0871   -1.3796   -9.1021 S   0  0  0  0  0  0  0  0  0  0  0  0
    5.8584   -2.6752  -11.0197 C   0  0  0  0  0  0  0  0  0  0  0  0
    7.0689   -3.3367  -10.8977 C   0  0  0  0  0  0  0  0  0  0  0  0
    7.3491   -4.4542  -10.0039 C   0  0  0  0  0  0  0  0  0  0  0  0
    6.6133   -4.9612   -9.1755 O   0  0  0  0  0  0  0  0  0  0  0  0
    8.7286   -4.8903  -10.3217 C   0  0  0  0  0  0  0  0  0  0  0  0
    9.2428   -4.0832  -11.3522 C   0  0  0  0  0  0  0  0  0  0  0  0
   10.5243   -4.3043  -11.8276 C   0  0  0  0  0  0  0  0  0  0  0  0
   11.2742   -5.3294  -11.2670 C   0  0  0  0  0  0  0  0  0  0  0  0
   10.7634   -6.1189  -10.2497 C   0  0  0  0  0  0  0  0  0  0  0  0
   11.8369   -7.4956   -9.5224 Br  0  0  0  0  0  0  0  0  0  0  0  0
    9.4711   -5.9111   -9.7556 C   0  0  0  0  0  0  0  0  0  0  0  0
    8.8328   -6.8824   -8.4972 Cl  0  0  0  0  0  0  0  0  0  0  0  0
    8.2295   -3.0875  -11.7090 C   0  0  0  0  0  0  0  0  0  0  0  0
    8.4082   -2.0833  -12.6338 C   0  0  0  0  0  0  0  0  0  0  0  0
    7.5100   -1.0287  -12.8806 C   0  0  0  0  0  0  0  0  0  0  0  0
    6.8588   -0.1107  -13.1179 N   0  0  0  0  0  0  0  0  0  0  0  0
    9.5512   -1.9498  -13.4451 C   0  0  0  0  0  0  0  0  0  0  0  0
   10.4463   -1.7938  -14.1485 N   0  0  0  0  0  0  0  0  0  0  0  0
   -0.6745    0.8071   12.9411 H   0  0  0  0  0  0  0  0  0  0  0  0
   -0.0635    6.9972   12.4008 H   0  0  0  0  0  0  0  0  0  0  0  0
    0.4801    8.2891   14.4644 H   0  0  0  0  0  0  0  0  0  0  0  0
    0.0495    4.7633   16.8453 H   0  0  0  0  0  0  0  0  0  0  0  0
   -5.6596    4.3841   10.8744 H   0  0  0  0  0  0  0  0  0  0  0  0
   -6.5464    6.0350    9.2810 H   0  0  0  0  0  0  0  0  0  0  0  0
   -4.4975    7.9873    6.9649 H   0  0  0  0  0  0  0  0  0  0  0  0
   -6.1255    7.7499    7.6203 H   0  0  0  0  0  0  0  0  0  0  0  0
   -5.5367    6.7245    6.3125 H   0  0  0  0  0  0  0  0  0  0  0  0
   -2.7257    6.2760    7.3985 H   0  0  0  0  0  0  0  0  0  0  0  0
   -1.8309    4.6361    9.0125 H   0  0  0  0  0  0  0  0  0  0  0  0
   -3.1306    5.7599   12.1686 H   0  0  0  0  0  0  0  0  0  0  0  0
   -3.4971    6.1557   14.5637 H   0  0  0  0  0  0  0  0  0  0  0  0
   -3.9222    5.3682   16.7549 H   0  0  0  0  0  0  0  0  0  0  0  0
   -5.0882    4.0387   16.7971 H   0  0  0  0  0  0  0  0  0  0  0  0
   -3.3814    3.7149   17.0638 H   0  0  0  0  0  0  0  0  0  0  0  0
   -4.2927    2.0019   15.1272 H   0  0  0  0  0  0  0  0  0  0  0  0
   -3.9152    1.5976   12.7450 H   0  0  0  0  0  0  0  0  0  0  0  0
   -4.4506   -1.4638    7.2275 H   0  0  0  0  0  0  0  0  0  0  0  0
   -5.7448   -2.6953    5.5513 H   0  0  0  0  0  0  0  0  0  0  0  0
   -5.2253   -3.3519    2.7060 H   0  0  0  0  0  0  0  0  0  0  0  0
   -4.2287   -4.8002    2.8672 H   0  0  0  0  0  0  0  0  0  0  0  0
   -5.6863   -4.6054    3.8527 H   0  0  0  0  0  0  0  0  0  0  0  0
   -2.1295   -3.9565    3.6739 H   0  0  0  0  0  0  0  0  0  0  0  0
   -0.8280   -2.6963    5.3285 H   0  0  0  0  0  0  0  0  0  0  0  0
   -1.1961   -3.6276    7.9878 H   0  0  0  0  0  0  0  0  0  0  0  0
    0.9803   -4.3966    8.8281 H   0  0  0  0  0  0  0  0  0  0  0  0
    4.0482   -2.3251    8.8623 H   0  0  0  0  0  0  0  0  0  0  0  0
    3.4230   -3.9794    8.9548 H   0  0  0  0  0  0  0  0  0  0  0  0
    3.2242   -2.8812   10.3175 H   0  0  0  0  0  0  0  0  0  0  0  0
    2.5440   -0.4511    8.4047 H   0  0  0  0  0  0  0  0  0  0  0  0
    0.3806    0.3168    7.5381 H   0  0  0  0  0  0  0  0  0  0  0  0
   -5.5926    1.3913    5.6408 H   0  0  0  0  0  0  0  0  0  0  0  0
   -9.0678    2.1984   -2.1927 H   0  0  0  0  0  0  0  0  0  0  0  0
   -8.5105    2.0619   -3.8896 H   0  0  0  0  0  0  0  0  0  0  0  0
  -10.5771    0.6993   -3.5167 H   0  0  0  0  0  0  0  0  0  0  0  0
   -9.7515   -0.1974   -2.2356 H   0  0  0  0  0  0  0  0  0  0  0  0
   -9.1972   -0.3339   -3.9107 H   0  0  0  0  0  0  0  0  0  0  0  0
   -1.5302   -1.1279   -8.0626 H   0  0  0  0  0  0  0  0  0  0  0  0
   -1.6779   -2.3140   -0.5588 H   0  0  0  0  0  0  0  0  0  0  0  0
   -0.4235   -2.2408   -1.8296 H   0  0  0  0  0  0  0  0  0  0  0  0
   -1.7552   -3.8009   -3.2230 H   0  0  0  0  0  0  0  0  0  0  0  0
   -3.0618   -3.7788   -2.0295 H   0  0  0  0  0  0  0  0  0  0  0  0
   -1.4969   -4.4960   -1.6262 H   0  0  0  0  0  0  0  0  0  0  0  0
   -1.1208   -0.6321    1.6992 H   0  0  0  0  0  0  0  0  0  0  0  0
   -1.0021   -0.4570   -0.0708 H   0  0  0  0  0  0  0  0  0  0  0  0
   -0.1001    1.5446    1.0063 H   0  0  0  0  0  0  0  0  0  0  0  0
   -1.5739    1.9516    0.1180 H   0  0  0  0  0  0  0  0  0  0  0  0
   -1.6107    1.8062    1.8793 H   0  0  0  0  0  0  0  0  0  0  0  0
    0.0368   -4.7767   -7.6786 H   0  0  0  0  0  0  0  0  0  0  0  0
   -1.8220   -6.0514   -6.7279 H   0  0  0  0  0  0  0  0  0  0  0  0
   -2.2831   -7.9305   -4.8373 H   0  0  0  0  0  0  0  0  0  0  0  0
   -2.9804   -6.4369   -4.2219 H   0  0  0  0  0  0  0  0  0  0  0  0
   -1.8698   -7.3697   -3.2127 H   0  0  0  0  0  0  0  0  0  0  0  0
    0.2531   -6.3331   -3.0133 H   0  0  0  0  0  0  0  0  0  0  0  0
    2.1032   -5.0215   -3.9455 H   0  0  0  0  0  0  0  0  0  0  0  0
    3.3333   -6.4459   -6.0824 H   0  0  0  0  0  0  0  0  0  0  0  0
    5.6783   -6.9198   -5.5207 H   0  0  0  0  0  0  0  0  0  0  0  0
    8.2175   -5.2938   -6.0149 H   0  0  0  0  0  0  0  0  0  0  0  0
    8.1541   -4.3387   -4.5350 H   0  0  0  0  0  0  0  0  0  0  0  0
    7.7897   -6.0723   -4.4943 H   0  0  0  0  0  0  0  0  0  0  0  0
    6.4700   -2.7373   -5.2589 H   0  0  0  0  0  0  0  0  0  0  0  0
    4.1212   -2.2588   -5.8103 H   0  0  0  0  0  0  0  0  0  0  0  0
    1.3544   -0.3798  -13.1911 H   0  0  0  0  0  0  0  0  0  0  0  0
    0.0215    1.6639  -12.9037 H   0  0  0  0  0  0  0  0  0  0  0  0
    0.8373    4.3690  -10.6322 H   0  0  0  0  0  0  0  0  0  0  0  0
   -0.3174    3.7935  -11.8446 H   0  0  0  0  0  0  0  0  0  0  0  0
   -0.5190    3.3575  -10.1470 H   0  0  0  0  0  0  0  0  0  0  0  0
    2.2713    2.6492   -9.4161 H   0  0  0  0  0  0  0  0  0  0  0  0
    3.6182    0.6138   -9.7090 H   0  0  0  0  0  0  0  0  0  0  0  0
    4.1546    0.4483  -13.5119 H   0  0  0  0  0  0  0  0  0  0  0  0
    4.8694   -0.1840  -15.7706 H   0  0  0  0  0  0  0  0  0  0  0  0
    6.1208   -2.4629  -16.9340 H   0  0  0  0  0  0  0  0  0  0  0  0
    4.5437   -2.0623  -17.6014 H   0  0  0  0  0  0  0  0  0  0  0  0
    4.8745   -3.7098  -17.0463 H   0  0  0  0  0  0  0  0  0  0  0  0
    4.1557   -4.2894  -14.8560 H   0  0  0  0  0  0  0  0  0  0  0  0
    3.4136   -3.6635  -12.6052 H   0  0  0  0  0  0  0  0  0  0  0  0
    5.8087   -1.9432  -11.8155 H   0  0  0  0  0  0  0  0  0  0  0  0
   10.9502   -3.7065  -12.6157 H   0  0  0  0  0  0  0  0  0  0  0  0
   12.2746   -5.5185  -11.6246 H   0  0  0  0  0  0  0  0  0  0  0  0
  1  2  2  0  0  0  0
  2  3  1  0  0  0  0
  3  4  2  0  0  0  0
  3  5  1  0  0  0  0
  5  6  2  0  0  0  0
  6  7  1  0  0  0  0
  7  8  2  0  0  0  0
  8  9  1  0  0  0  0
  8 10  1  0  0  0  0
 10 11  2  0  0  0  0
 11 12  1  0  0  0  0
 12 13  2  0  0  0  0
 13 14  1  0  0  0  0
 14 15  3  0  0  0  0
 13 16  1  0  0  0  0
 16 17  3  0  0  0  0
  1 18  1  0  0  0  0
 18 19  2  0  0  0  0
 19 20  1  0  0  0  0
 20 21  1  0  0  0  0
 21 22  2  0  0  0  0
 22 23  1  0  0  0  0
 23 24  2  0  0  0  0
 24 25  1  0  0  0  0
 24 26  1  0  0  0  0
 26 27  2  0  0  0  0
 20 28  1  0  0  0  0
 28 29  2  0  0  0  0
 29 30  1  0  0  0  0
 30 31  2  0  0  0  0
 31 32  1  0  0  0  0
 31 33  1  0  0  0  0
 33 34  2  0  0  0  0
 19 35  1  0  0  0  0
 35 36  1  0  0  0  0
 36 37  1  0  0  0  0
 37 38  2  0  0  0  0
 38 39  1  0  0  0  0
 39 40  1  0  0  0  0
 40 41  2  0  0  0  0
 41 42  1  0  0  0  0
 42 43  2  0  0  0  0
 43 44  1  0  0  0  0
 43 45  1  0  0  0  0
 45 46  2  0  0  0  0
 39 47  1  0  0  0  0
 47 48  2  0  0  0  0
 48 49  1  0  0  0  0
 49 50  2  0  0  0  0
 50 51  1  0  0  0  0
 50 52  1  0  0  0  0
 52 53  2  0  0  0  0
 38 54  1  0  0  0  0
 54 55  1  0  0  0  0
 37 56  1  0  0  0  0
 56 57  2  0  0  0  0
 57 58  1  0  0  0  0
 58 59  1  0  0  0  0
 59 60  1  0  0  0  0
 60 61  1  0  0  0  0
 61 62  1  0  0  0  0
 62 63  2  0  0  0  0
 63 64  1  0  0  0  0
 64 65  1  0  0  0  0
 65 66  1  0  0  0  0
 64 67  1  0  0  0  0
 67 68  2  0  0  0  0
 68 69  1  0  0  0  0
 69 70  1  0  0  0  0
 70 71  1  0  0  0  0
 71 72  1  0  0  0  0
 72 73  1  0  0  0  0
 73 74  2  0  0  0  0
 74 75  1  0  0  0  0
 75 76  1  0  0  0  0
 76 77  1  0  0  0  0
 77 78  1  0  0  0  0
 78 79  1  0  0  0  0
 79 80  1  0  0  0  0
 78 81  1  0  0  0  0
 81 82  1  0  0  0  0
 82 83  1  0  0  0  0
 83 84  1  0  0  0  0
 84 85  1  0  0  0  0
 85 86  1  0  0  0  0
 83 87  1  0  0  0  0
 87 88  1  0  0  0  0
 74 89  1  0  0  0  0
 89 90  2  0  0  0  0
 90 91  1  0  0  0  0
 91 92  1  0  0  0  0
 92 93  2  0  0  0  0
 93 94  1  0  0  0  0
 94 95  2  0  0  0  0
 95 96  1  0  0  0  0
 95 97  1  0  0  0  0
 97 98  2  0  0  0  0
 91 99  1  0  0  0  0
 99100  2  0  0  0  0
100101  1  0  0  0  0
101102  2  0  0  0  0
102103  1  0  0  0  0
102104  1  0  0  0  0
104105  2  0  0  0  0
 90106  1  0  0  0  0
106107  1  0  0  0  0
107108  1  0  0  0  0
108109  2  0  0  0  0
109110  1  0  0  0  0
110111  1  0  0  0  0
111112  2  0  0  0  0
112113  1  0  0  0  0
113114  2  0  0  0  0
114115  1  0  0  0  0
114116  1  0  0  0  0
116117  2  0  0  0  0
110118  1  0  0  0  0
118119  2  0  0  0  0
119120  1  0  0  0  0
120121  2  0  0  0  0
121122  1  0  0  0  0
121123  1  0  0  0  0
123124  2  0  0  0  0
109125  1  0  0  0  0
125126  1  0  0  0  0
108127  1  0  0  0  0
127128  2  0  0  0  0
128129  1  0  0  0  0
129130  2  0  0  0  0
129131  1  0  0  0  0
131132  2  0  0  0  0
132133  1  0  0  0  0
133134  2  0  0  0  0
134135  1  0  0  0  0
135136  1  0  0  0  0
135137  2  0  0  0  0
137138  1  0  0  0  0
132139  1  0  0  0  0
139140  2  0  0  0  0
140141  1  0  0  0  0
141142  3  0  0  0  0
140143  1  0  0  0  0
143144  3  0  0  0  0
 12  2  1  0  0  0  0
 55 18  1  0  0  0  0
 86 56  1  0  0  0  0
126 89  1  0  0  0  0
139128  1  0  0  0  0
 11  5  1  0  0  0  0
 27 21  1  0  0  0  0
 34 28  1  0  0  0  0
 54 35  2  0  0  0  0
 85 58  2  0  0  0  0
 98 92  1  0  0  0  0
105 99  1  0  0  0  0
125106  2  0  0  0  0
137131  1  0  0  0  0
 46 40  1  0  0  0  0
 53 47  1  0  0  0  0
 84 60  2  0  0  0  0
117111  1  0  0  0  0
124118  1  0  0  0  0
 82 61  2  0  0  0  0
 68 62  1  0  0  0  0
 81 69  2  0  0  0  0
 77 70  2  0  0  0  0
 76 72  2  0  0  0  0
  1145  1  0  0  0  0
  6146  1  0  0  0  0
  7147  1  0  0  0  0
 10148  1  0  0  0  0
 22149  1  0  0  0  0
 23150  1  0  0  0  0
 25151  1  0  0  0  0
 25152  1  0  0  0  0
 25153  1  0  0  0  0
 26154  1  0  0  0  0
 27155  1  0  0  0  0
 29156  1  0  0  0  0
 30157  1  0  0  0  0
 32158  1  0  0  0  0
 32159  1  0  0  0  0
 32160  1  0  0  0  0
 33161  1  0  0  0  0
 34162  1  0  0  0  0
 41163  1  0  0  0  0
 42164  1  0  0  0  0
 44165  1  0  0  0  0
 44166  1  0  0  0  0
 44167  1  0  0  0  0
 45168  1  0  0  0  0
 46169  1  0  0  0  0
 48170  1  0  0  0  0
 49171  1  0  0  0  0
 51172  1  0  0  0  0
 51173  1  0  0  0  0
 51174  1  0  0  0  0
 52175  1  0  0  0  0
 53176  1  0  0  0  0
 57177  1  0  0  0  0
 65178  1  0  0  0  0
 65179  1  0  0  0  0
 66180  1  0  0  0  0
 66181  1  0  0  0  0
 66182  1  0  0  0  0
 73183  1  0  0  0  0
 79184  1  0  0  0  0
 79185  1  0  0  0  0
 80186  1  0  0  0  0
 80187  1  0  0  0  0
 80188  1  0  0  0  0
 87189  1  0  0  0  0
 87190  1  0  0  0  0
 88191  1  0  0  0  0
 88192  1  0  0  0  0
 88193  1  0  0  0  0
 93194  1  0  0  0  0
 94195  1  0  0  0  0
 96196  1  0  0  0  0
 96197  1  0  0  0  0
 96198  1  0  0  0  0
 97199  1  0  0  0  0
 98200  1  0  0  0  0
100201  1  0  0  0  0
101202  1  0  0  0  0
103203  1  0  0  0  0
103204  1  0  0  0  0
103205  1  0  0  0  0
104206  1  0  0  0  0
105207  1  0  0  0  0
112208  1  0  0  0  0
113209  1  0  0  0  0
115210  1  0  0  0  0
115211  1  0  0  0  0
115212  1  0  0  0  0
116213  1  0  0  0  0
117214  1  0  0  0  0
119215  1  0  0  0  0
120216  1  0  0  0  0
122217  1  0  0  0  0
122218  1  0  0  0  0
122219  1  0  0  0  0
123220  1  0  0  0  0
124221  1  0  0  0  0
127222  1  0  0  0  0
133223  1  0  0  0  0
134224  1  0  0  0  0
M  END
