
  xtb     02062209443D
 energy: -341.161931796660 gnorm: 0.000296021016 xtb: 6.4.1 (unknown)
199220  0     0  0            999 V2000
   -2.9461   -4.5088   -8.5129 C   0  0  0  0  0  0  0  0  0  0  0  0
   -4.0811   -3.8839   -8.9626 C   0  0  0  0  0  0  0  0  0  0  0  0
   -4.7254   -4.3357  -10.2152 C   0  0  0  0  0  0  0  0  0  0  0  0
   -4.4786   -5.3444  -10.8414 O   0  0  0  0  0  0  0  0  0  0  0  0
   -5.7017   -3.2756  -10.5535 C   0  0  0  0  0  0  0  0  0  0  0  0
   -6.4928   -3.1359  -11.6767 C   0  0  0  0  0  0  0  0  0  0  0  0
   -7.3078   -2.0185  -11.7811 C   0  0  0  0  0  0  0  0  0  0  0  0
   -7.3103   -1.0676  -10.7685 C   0  0  0  0  0  0  0  0  0  0  0  0
   -8.3133    0.3253  -10.9286 Cl  0  0  0  0  0  0  0  0  0  0  0  0
   -6.5282   -1.2004   -9.6249 C   0  0  0  0  0  0  0  0  0  0  0  0
   -5.7243   -2.3204   -9.5215 C   0  0  0  0  0  0  0  0  0  0  0  0
   -4.8280   -2.7659   -8.4519 C   0  0  0  0  0  0  0  0  0  0  0  0
   -4.9295   -2.3716   -7.1389 C   0  0  0  0  0  0  0  0  0  0  0  0
   -5.8014   -1.3647   -6.6897 C   0  0  0  0  0  0  0  0  0  0  0  0
   -6.4981   -0.5576   -6.2609 N   0  0  0  0  0  0  0  0  0  0  0  0
   -4.2851   -3.0234   -6.0706 C   0  0  0  0  0  0  0  0  0  0  0  0
   -3.8412   -3.5643   -5.1586 N   0  0  0  0  0  0  0  0  0  0  0  0
   -1.9696   -4.0074   -7.6452 C   0  0  0  0  0  0  0  0  0  0  0  0
   -0.9640   -4.7448   -6.9925 C   0  0  0  0  0  0  0  0  0  0  0  0
   -0.8838   -6.1075   -6.9772 N   0  0  0  0  0  0  0  0  0  0  0  0
   -2.0407   -6.9162   -7.0562 C   0  0  0  0  0  0  0  0  0  0  0  0
   -2.0428   -8.0448   -7.8686 C   0  0  0  0  0  0  0  0  0  0  0  0
   -3.1736   -8.8332   -7.9492 C   0  0  0  0  0  0  0  0  0  0  0  0
   -4.3198   -8.5182   -7.2286 C   0  0  0  0  0  0  0  0  0  0  0  0
   -5.5541   -9.3556   -7.3563 C   0  0  0  0  0  0  0  0  0  0  0  0
   -4.2969   -7.3982   -6.4055 C   0  0  0  0  0  0  0  0  0  0  0  0
   -3.1710   -6.6053   -6.3074 C   0  0  0  0  0  0  0  0  0  0  0  0
    0.3583   -6.7407   -6.7989 C   0  0  0  0  0  0  0  0  0  0  0  0
    1.4946   -6.2654   -7.4508 C   0  0  0  0  0  0  0  0  0  0  0  0
    2.6983   -6.9249   -7.3125 C   0  0  0  0  0  0  0  0  0  0  0  0
    2.8027   -8.0746   -6.5371 C   0  0  0  0  0  0  0  0  0  0  0  0
    4.1038   -8.8100   -6.4486 C   0  0  0  0  0  0  0  0  0  0  0  0
    1.6679   -8.5323   -5.8795 C   0  0  0  0  0  0  0  0  0  0  0  0
    0.4585   -7.8774   -6.0026 C   0  0  0  0  0  0  0  0  0  0  0  0
   -0.0947   -3.8898   -6.2827 C   0  0  0  0  0  0  0  0  0  0  0  0
    1.2578   -4.1539   -5.2329 S   0  0  0  0  0  0  0  0  0  0  0  0
    1.3394   -2.4340   -4.8848 C   0  0  0  0  0  0  0  0  0  0  0  0
    0.4125   -1.6940   -5.6119 C   0  0  0  0  0  0  0  0  0  0  0  0
    0.3370   -0.3140   -5.6108 N   0  0  0  0  0  0  0  0  0  0  0  0
    1.5108    0.4519   -5.5983 C   0  0  0  0  0  0  0  0  0  0  0  0
    1.5578    1.6642   -4.9148 C   0  0  0  0  0  0  0  0  0  0  0  0
    2.7321    2.3900   -4.8687 C   0  0  0  0  0  0  0  0  0  0  0  0
    3.8869    1.9321   -5.4895 C   0  0  0  0  0  0  0  0  0  0  0  0
    5.1722    2.6973   -5.4093 C   0  0  0  0  0  0  0  0  0  0  0  0
    3.8269    0.7298   -6.1858 C   0  0  0  0  0  0  0  0  0  0  0  0
    2.6572    0.0017   -6.2490 C   0  0  0  0  0  0  0  0  0  0  0  0
   -0.9200    0.3055   -5.7147 C   0  0  0  0  0  0  0  0  0  0  0  0
   -1.0860    1.4343   -6.5111 C   0  0  0  0  0  0  0  0  0  0  0  0
   -2.3220    2.0429   -6.5994 C   0  0  0  0  0  0  0  0  0  0  0  0
   -3.4209    1.5453   -5.9090 C   0  0  0  0  0  0  0  0  0  0  0  0
   -4.7515    2.2261   -5.9806 C   0  0  0  0  0  0  0  0  0  0  0  0
   -3.2471    0.4093   -5.1260 C   0  0  0  0  0  0  0  0  0  0  0  0
   -2.0155   -0.2063   -5.0238 C   0  0  0  0  0  0  0  0  0  0  0  0
   -0.4105   -2.5414   -6.3848 C   0  0  0  0  0  0  0  0  0  0  0  0
   -1.7927   -2.2685   -7.3783 S   0  0  0  0  0  0  0  0  0  0  0  0
    2.1639   -1.9671   -3.8218 C   0  0  0  0  0  0  0  0  0  0  0  0
    3.3400   -2.5124   -3.3426 C   0  0  0  0  0  0  0  0  0  0  0  0
    4.1143   -3.5468   -4.0281 C   0  0  0  0  0  0  0  0  0  0  0  0
    4.3739   -3.4556   -5.3935 C   0  0  0  0  0  0  0  0  0  0  0  0
    5.1360   -4.4239   -6.0148 C   0  0  0  0  0  0  0  0  0  0  0  0
    5.6353   -5.4919   -5.2885 C   0  0  0  0  0  0  0  0  0  0  0  0
    5.3801   -5.6039   -3.9288 C   0  0  0  0  0  0  0  0  0  0  0  0
    5.8739   -6.7778   -3.1331 C   0  0  0  0  0  0  0  0  0  0  0  0
    4.7147   -7.7025   -2.7570 C   0  0  0  0  0  0  0  0  0  0  0  0
    4.6263   -4.6188   -3.3080 C   0  0  0  0  0  0  0  0  0  0  0  0
    3.7161   -1.9244   -2.1184 C   0  0  0  0  0  0  0  0  0  0  0  0
    5.0595   -2.1943   -1.0332 S   0  0  0  0  0  0  0  0  0  0  0  0
    4.4061   -1.0014    0.0397 C   0  0  0  0  0  0  0  0  0  0  0  0
    4.6316   -0.4906    1.3295 C   0  0  0  0  0  0  0  0  0  0  0  0
    5.5364   -0.8664    2.3485 C   0  0  0  0  0  0  0  0  0  0  0  0
    5.3413   -0.3593    3.6813 C   0  0  0  0  0  0  0  0  0  0  0  0
    6.2020   -0.8714    4.5462 N   0  0  0  0  0  0  0  0  0  0  0  0
    7.1798   -1.8926    3.7568 S   0  0  0  0  0  0  0  0  0  0  0  0
    6.5385   -1.7279    2.2793 N   0  0  0  0  0  0  0  0  0  0  0  0
    4.3365    0.6076    3.9060 C   0  0  0  0  0  0  0  0  0  0  0  0
    3.9083    1.2967    5.0551 C   0  0  0  0  0  0  0  0  0  0  0  0
    4.1877    1.2966    6.7637 S   0  0  0  0  0  0  0  0  0  0  0  0
    2.9648    2.5321    6.9427 C   0  0  0  0  0  0  0  0  0  0  0  0
    2.3893    3.1461    8.0708 C   0  0  0  0  0  0  0  0  0  0  0  0
    2.7020    2.7578    9.4447 C   0  0  0  0  0  0  0  0  0  0  0  0
    4.0221    2.5963    9.8526 C   0  0  0  0  0  0  0  0  0  0  0  0
    4.2987    2.1892   11.1443 C   0  0  0  0  0  0  0  0  0  0  0  0
    3.2692    1.9301   12.0318 C   0  0  0  0  0  0  0  0  0  0  0  0
    1.9436    2.0735   11.6367 C   0  0  0  0  0  0  0  0  0  0  0  0
    0.8220    1.7407   12.5798 C   0  0  0  0  0  0  0  0  0  0  0  0
    0.4701    0.2551   12.4831 C   0  0  0  0  0  0  0  0  0  0  0  0
    1.6726    2.4826   10.3404 C   0  0  0  0  0  0  0  0  0  0  0  0
    1.3979    4.0406    7.7024 C   0  0  0  0  0  0  0  0  0  0  0  0
    1.1443    4.0915    5.9652 S   0  0  0  0  0  0  0  0  0  0  0  0
    2.3968    2.9257    5.7278 C   0  0  0  0  0  0  0  0  0  0  0  0
    2.9368    2.2175    4.6483 C   0  0  0  0  0  0  0  0  0  0  0  0
    2.7415    2.1246    3.2927 N   0  0  0  0  0  0  0  0  0  0  0  0
    3.5530    1.1044    2.8311 C   0  0  0  0  0  0  0  0  0  0  0  0
    3.5954    0.4489    1.5784 C   0  0  0  0  0  0  0  0  0  0  0  0
    2.7447    0.4842    0.4845 N   0  0  0  0  0  0  0  0  0  0  0  0
    3.2334   -0.4075   -0.4347 C   0  0  0  0  0  0  0  0  0  0  0  0
    2.8397   -0.9358   -1.6704 C   0  0  0  0  0  0  0  0  0  0  0  0
    1.5280   -0.7071   -2.7681 S   0  0  0  0  0  0  0  0  0  0  0  0
    1.3453    0.8607    0.4365 C   0  0  0  0  0  0  0  0  0  0  0  0
    0.5330    0.1648    1.5242 C   0  0  0  0  0  0  0  0  0  0  0  0
    2.2718    3.2556    2.5218 C   0  0  0  0  0  0  0  0  0  0  0  0
    3.0447    4.5290    2.8622 C   0  0  0  0  0  0  0  0  0  0  0  0
    0.5869    4.8800    8.5160 C   0  0  0  0  0  0  0  0  0  0  0  0
   -1.0265    5.2544    8.0178 S   0  0  0  0  0  0  0  0  0  0  0  0
   -1.2734    6.2158    9.4462 C   0  0  0  0  0  0  0  0  0  0  0  0
   -0.0943    6.2793   10.2282 C   0  0  0  0  0  0  0  0  0  0  0  0
    0.9617    5.5251    9.6996 C   0  0  0  0  0  0  0  0  0  0  0  0
    2.2717    5.4672   10.0754 O   0  0  0  0  0  0  0  0  0  0  0  0
    2.6221    5.5616   11.4380 C   0  0  0  0  0  0  0  0  0  0  0  0
    2.1825    6.8580   12.1126 C   0  0  0  0  0  0  0  0  0  0  0  0
    0.6898    6.8450   12.4251 C   0  0  0  0  0  0  0  0  0  0  0  0
   -0.1336    7.0951   11.3067 O   0  0  0  0  0  0  0  0  0  0  0  0
   -2.4440    6.8513    9.8562 C   0  0  0  0  0  0  0  0  0  0  0  0
   -3.6671    6.9371    9.2310 C   0  0  0  0  0  0  0  0  0  0  0  0
   -3.9697    6.4270    7.8943 C   0  0  0  0  0  0  0  0  0  0  0  0
   -3.2336    5.7962    7.1531 O   0  0  0  0  0  0  0  0  0  0  0  0
   -5.3569    6.8378    7.6062 C   0  0  0  0  0  0  0  0  0  0  0  0
   -6.1120    6.6218    6.4702 C   0  0  0  0  0  0  0  0  0  0  0  0
   -7.4075    7.1138    6.4317 C   0  0  0  0  0  0  0  0  0  0  0  0
   -7.9147    7.8065    7.5242 C   0  0  0  0  0  0  0  0  0  0  0  0
   -9.5264    8.4130    7.4578 Cl  0  0  0  0  0  0  0  0  0  0  0  0
   -7.1646    8.0291    8.6758 C   0  0  0  0  0  0  0  0  0  0  0  0
   -5.8718    7.5371    8.7121 C   0  0  0  0  0  0  0  0  0  0  0  0
   -4.8428    7.5921    9.7548 C   0  0  0  0  0  0  0  0  0  0  0  0
   -5.0095    8.1383   11.0025 C   0  0  0  0  0  0  0  0  0  0  0  0
   -4.0520    8.1327   12.0382 C   0  0  0  0  0  0  0  0  0  0  0  0
   -3.3459    8.1587   12.9445 N   0  0  0  0  0  0  0  0  0  0  0  0
   -6.1925    8.7695   11.4391 C   0  0  0  0  0  0  0  0  0  0  0  0
   -7.1199    9.3009   11.8591 N   0  0  0  0  0  0  0  0  0  0  0  0
   -2.7452   -5.4731   -8.9679 H   0  0  0  0  0  0  0  0  0  0  0  0
   -6.4708   -3.8849  -12.4529 H   0  0  0  0  0  0  0  0  0  0  0  0
   -7.9380   -1.8776  -12.6449 H   0  0  0  0  0  0  0  0  0  0  0  0
   -6.5521   -0.4393   -8.8622 H   0  0  0  0  0  0  0  0  0  0  0  0
   -1.1600   -8.2925   -8.4399 H   0  0  0  0  0  0  0  0  0  0  0  0
   -3.1693   -9.7024   -8.5902 H   0  0  0  0  0  0  0  0  0  0  0  0
   -6.1143   -9.0523   -8.2413 H   0  0  0  0  0  0  0  0  0  0  0  0
   -5.3003  -10.4077   -7.4657 H   0  0  0  0  0  0  0  0  0  0  0  0
   -6.1988   -9.2340   -6.4894 H   0  0  0  0  0  0  0  0  0  0  0  0
   -5.1705   -7.1438   -5.8233 H   0  0  0  0  0  0  0  0  0  0  0  0
   -3.1690   -5.7415   -5.6597 H   0  0  0  0  0  0  0  0  0  0  0  0
    1.4224   -5.3925   -8.0830 H   0  0  0  0  0  0  0  0  0  0  0  0
    3.5701   -6.5524   -7.8291 H   0  0  0  0  0  0  0  0  0  0  0  0
    4.0490   -9.6182   -5.7235 H   0  0  0  0  0  0  0  0  0  0  0  0
    4.3583   -9.2367   -7.4189 H   0  0  0  0  0  0  0  0  0  0  0  0
    4.9048   -8.1315   -6.1634 H   0  0  0  0  0  0  0  0  0  0  0  0
    1.7278   -9.4168   -5.2619 H   0  0  0  0  0  0  0  0  0  0  0  0
   -0.4160   -8.2445   -5.4867 H   0  0  0  0  0  0  0  0  0  0  0  0
    0.6718    2.0245   -4.4137 H   0  0  0  0  0  0  0  0  0  0  0  0
    2.7522    3.3258   -4.3287 H   0  0  0  0  0  0  0  0  0  0  0  0
    5.6463    2.7566   -6.3873 H   0  0  0  0  0  0  0  0  0  0  0  0
    5.0033    3.7054   -5.0392 H   0  0  0  0  0  0  0  0  0  0  0  0
    5.8655    2.1953   -4.7338 H   0  0  0  0  0  0  0  0  0  0  0  0
    4.7092    0.3634   -6.6910 H   0  0  0  0  0  0  0  0  0  0  0  0
    2.6192   -0.9192   -6.8132 H   0  0  0  0  0  0  0  0  0  0  0  0
   -0.2426    1.8287   -7.0591 H   0  0  0  0  0  0  0  0  0  0  0  0
   -2.4357    2.9188   -7.2220 H   0  0  0  0  0  0  0  0  0  0  0  0
   -4.8994    2.8480   -5.0971 H   0  0  0  0  0  0  0  0  0  0  0  0
   -5.5554    1.4933   -6.0093 H   0  0  0  0  0  0  0  0  0  0  0  0
   -4.8163    2.8632   -6.8595 H   0  0  0  0  0  0  0  0  0  0  0  0
   -4.0884    0.0051   -4.5823 H   0  0  0  0  0  0  0  0  0  0  0  0
   -1.8964   -1.0818   -4.4019 H   0  0  0  0  0  0  0  0  0  0  0  0
    3.9992   -2.6110   -5.9513 H   0  0  0  0  0  0  0  0  0  0  0  0
    5.3514   -4.3422   -7.0703 H   0  0  0  0  0  0  0  0  0  0  0  0
    6.2455   -6.2355   -5.7820 H   0  0  0  0  0  0  0  0  0  0  0  0
    6.3594   -6.4227   -2.2211 H   0  0  0  0  0  0  0  0  0  0  0  0
    6.6109   -7.3356   -3.7143 H   0  0  0  0  0  0  0  0  0  0  0  0
    5.0847   -8.5788   -2.2299 H   0  0  0  0  0  0  0  0  0  0  0  0
    4.1836   -8.0267   -3.6485 H   0  0  0  0  0  0  0  0  0  0  0  0
    4.0077   -7.1847   -2.1136 H   0  0  0  0  0  0  0  0  0  0  0  0
    4.4271   -4.6887   -2.2488 H   0  0  0  0  0  0  0  0  0  0  0  0
    4.8248    2.8053    9.1624 H   0  0  0  0  0  0  0  0  0  0  0  0
    5.3243    2.0705   11.4612 H   0  0  0  0  0  0  0  0  0  0  0  0
    3.4925    1.6112   13.0399 H   0  0  0  0  0  0  0  0  0  0  0  0
    1.1171    1.9738   13.6055 H   0  0  0  0  0  0  0  0  0  0  0  0
   -0.0612    2.3348   12.3332 H   0  0  0  0  0  0  0  0  0  0  0  0
    1.3338   -0.3551   12.7372 H   0  0  0  0  0  0  0  0  0  0  0  0
    0.1616    0.0057   11.4704 H   0  0  0  0  0  0  0  0  0  0  0  0
   -0.3415    0.0112   13.1645 H   0  0  0  0  0  0  0  0  0  0  0  0
    0.6463    2.5803   10.0141 H   0  0  0  0  0  0  0  0  0  0  0  0
    1.2184    1.9419    0.5048 H   0  0  0  0  0  0  0  0  0  0  0  0
    0.9791    0.5528   -0.5459 H   0  0  0  0  0  0  0  0  0  0  0  0
   -0.5177    0.4162    1.4109 H   0  0  0  0  0  0  0  0  0  0  0  0
    0.6438   -0.9140    1.4420 H   0  0  0  0  0  0  0  0  0  0  0  0
    0.8606    0.4721    2.5137 H   0  0  0  0  0  0  0  0  0  0  0  0
    2.4371    3.0342    1.4693 H   0  0  0  0  0  0  0  0  0  0  0  0
    1.2037    3.4065    2.7102 H   0  0  0  0  0  0  0  0  0  0  0  0
    2.8573    4.8422    3.8846 H   0  0  0  0  0  0  0  0  0  0  0  0
    2.7320    5.3285    2.1961 H   0  0  0  0  0  0  0  0  0  0  0  0
    4.1127    4.3652    2.7349 H   0  0  0  0  0  0  0  0  0  0  0  0
    3.7117    5.4837   11.4285 H   0  0  0  0  0  0  0  0  0  0  0  0
    2.2165    4.7012   11.9904 H   0  0  0  0  0  0  0  0  0  0  0  0
    2.7347    6.9699   13.0456 H   0  0  0  0  0  0  0  0  0  0  0  0
    2.4136    7.7072   11.4664 H   0  0  0  0  0  0  0  0  0  0  0  0
    0.4154    5.8816   12.8803 H   0  0  0  0  0  0  0  0  0  0  0  0
    0.4308    7.6480   13.1187 H   0  0  0  0  0  0  0  0  0  0  0  0
   -2.3387    7.3434   10.8154 H   0  0  0  0  0  0  0  0  0  0  0  0
   -5.6934    6.0804    5.6361 H   0  0  0  0  0  0  0  0  0  0  0  0
   -8.0268    6.9648    5.5614 H   0  0  0  0  0  0  0  0  0  0  0  0
   -7.5977    8.5720    9.4994 H   0  0  0  0  0  0  0  0  0  0  0  0
  1  2  2  0  0  0  0
  2  3  1  0  0  0  0
  3  4  2  0  0  0  0
  3  5  1  0  0  0  0
  5  6  2  0  0  0  0
  6  7  1  0  0  0  0
  7  8  2  0  0  0  0
  8  9  1  0  0  0  0
  8 10  1  0  0  0  0
 10 11  2  0  0  0  0
 11 12  1  0  0  0  0
 12 13  2  0  0  0  0
 13 14  1  0  0  0  0
 14 15  3  0  0  0  0
 13 16  1  0  0  0  0
 16 17  3  0  0  0  0
  1 18  1  0  0  0  0
 18 19  2  0  0  0  0
 19 20  1  0  0  0  0
 20 21  1  0  0  0  0
 21 22  2  0  0  0  0
 22 23  1  0  0  0  0
 23 24  2  0  0  0  0
 24 25  1  0  0  0  0
 24 26  1  0  0  0  0
 26 27  2  0  0  0  0
 20 28  1  0  0  0  0
 28 29  2  0  0  0  0
 29 30  1  0  0  0  0
 30 31  2  0  0  0  0
 31 32  1  0  0  0  0
 31 33  1  0  0  0  0
 33 34  2  0  0  0  0
 19 35  1  0  0  0  0
 35 36  1  0  0  0  0
 36 37  1  0  0  0  0
 37 38  2  0  0  0  0
 38 39  1  0  0  0  0
 39 40  1  0  0  0  0
 40 41  2  0  0  0  0
 41 42  1  0  0  0  0
 42 43  2  0  0  0  0
 43 44  1  0  0  0  0
 43 45  1  0  0  0  0
 45 46  2  0  0  0  0
 39 47  1  0  0  0  0
 47 48  2  0  0  0  0
 48 49  1  0  0  0  0
 49 50  2  0  0  0  0
 50 51  1  0  0  0  0
 50 52  1  0  0  0  0
 52 53  2  0  0  0  0
 38 54  1  0  0  0  0
 54 55  1  0  0  0  0
 37 56  1  0  0  0  0
 56 57  2  0  0  0  0
 57 58  1  0  0  0  0
 58 59  2  0  0  0  0
 59 60  1  0  0  0  0
 60 61  2  0  0  0  0
 61 62  1  0  0  0  0
 62 63  1  0  0  0  0
 63 64  1  0  0  0  0
 62 65  2  0  0  0  0
 57 66  1  0  0  0  0
 66 67  1  0  0  0  0
 67 68  1  0  0  0  0
 68 69  1  0  0  0  0
 69 70  1  0  0  0  0
 70 71  1  0  0  0  0
 71 72  2  0  0  0  0
 72 73  1  0  0  0  0
 73 74  1  0  0  0  0
 71 75  1  0  0  0  0
 75 76  1  0  0  0  0
 76 77  1  0  0  0  0
 77 78  1  0  0  0  0
 78 79  1  0  0  0  0
 79 80  1  0  0  0  0
 80 81  2  0  0  0  0
 81 82  1  0  0  0  0
 82 83  2  0  0  0  0
 83 84  1  0  0  0  0
 84 85  1  0  0  0  0
 85 86  1  0  0  0  0
 84 87  2  0  0  0  0
 79 88  2  0  0  0  0
 88 89  1  0  0  0  0
 89 90  1  0  0  0  0
 90 91  1  0  0  0  0
 91 92  1  0  0  0  0
 92 93  1  0  0  0  0
 93 94  1  0  0  0  0
 94 95  1  0  0  0  0
 95 96  1  0  0  0  0
 96 97  1  0  0  0  0
 97 98  1  0  0  0  0
 95 99  1  0  0  0  0
 99100  1  0  0  0  0
 92101  1  0  0  0  0
101102  1  0  0  0  0
 88103  1  0  0  0  0
103104  1  0  0  0  0
104105  1  0  0  0  0
105106  2  0  0  0  0
106107  1  0  0  0  0
107108  1  0  0  0  0
108109  1  0  0  0  0
109110  1  0  0  0  0
110111  1  0  0  0  0
111112  1  0  0  0  0
105113  1  0  0  0  0
113114  2  0  0  0  0
114115  1  0  0  0  0
115116  2  0  0  0  0
115117  1  0  0  0  0
117118  2  0  0  0  0
118119  1  0  0  0  0
119120  2  0  0  0  0
120121  1  0  0  0  0
120122  1  0  0  0  0
122123  2  0  0  0  0
123124  1  0  0  0  0
124125  2  0  0  0  0
125126  1  0  0  0  0
126127  3  0  0  0  0
125128  1  0  0  0  0
128129  3  0  0  0  0
 12  2  1  0  0  0  0
 55 18  1  0  0  0  0
 98 56  1  0  0  0  0
107103  2  0  0  0  0
124114  1  0  0  0  0
 11  5  1  0  0  0  0
 27 21  1  0  0  0  0
 34 28  1  0  0  0  0
 54 35  2  0  0  0  0
 65 58  1  0  0  0  0
 97 66  2  0  0  0  0
112106  1  0  0  0  0
123117  1  0  0  0  0
 46 40  1  0  0  0  0
 53 47  1  0  0  0  0
 96 68  2  0  0  0  0
 94 69  2  0  0  0  0
 74 70  2  0  0  0  0
 93 75  2  0  0  0  0
 91 76  2  0  0  0  0
 90 78  2  0  0  0  0
 87 80  1  0  0  0  0
  1130  1  0  0  0  0
  6131  1  0  0  0  0
  7132  1  0  0  0  0
 10133  1  0  0  0  0
 22134  1  0  0  0  0
 23135  1  0  0  0  0
 25136  1  0  0  0  0
 25137  1  0  0  0  0
 25138  1  0  0  0  0
 26139  1  0  0  0  0
 27140  1  0  0  0  0
 29141  1  0  0  0  0
 30142  1  0  0  0  0
 32143  1  0  0  0  0
 32144  1  0  0  0  0
 32145  1  0  0  0  0
 33146  1  0  0  0  0
 34147  1  0  0  0  0
 41148  1  0  0  0  0
 42149  1  0  0  0  0
 44150  1  0  0  0  0
 44151  1  0  0  0  0
 44152  1  0  0  0  0
 45153  1  0  0  0  0
 46154  1  0  0  0  0
 48155  1  0  0  0  0
 49156  1  0  0  0  0
 51157  1  0  0  0  0
 51158  1  0  0  0  0
 51159  1  0  0  0  0
 52160  1  0  0  0  0
 53161  1  0  0  0  0
 59162  1  0  0  0  0
 60163  1  0  0  0  0
 61164  1  0  0  0  0
 63165  1  0  0  0  0
 63166  1  0  0  0  0
 64167  1  0  0  0  0
 64168  1  0  0  0  0
 64169  1  0  0  0  0
 65170  1  0  0  0  0
 81171  1  0  0  0  0
 82172  1  0  0  0  0
 83173  1  0  0  0  0
 85174  1  0  0  0  0
 85175  1  0  0  0  0
 86176  1  0  0  0  0
 86177  1  0  0  0  0
 86178  1  0  0  0  0
 87179  1  0  0  0  0
 99180  1  0  0  0  0
 99181  1  0  0  0  0
100182  1  0  0  0  0
100183  1  0  0  0  0
100184  1  0  0  0  0
101185  1  0  0  0  0
101186  1  0  0  0  0
102187  1  0  0  0  0
102188  1  0  0  0  0
102189  1  0  0  0  0
109190  1  0  0  0  0
109191  1  0  0  0  0
110192  1  0  0  0  0
110193  1  0  0  0  0
111194  1  0  0  0  0
111195  1  0  0  0  0
113196  1  0  0  0  0
118197  1  0  0  0  0
119198  1  0  0  0  0
122199  1  0  0  0  0
M  END
