
  xtb     02082204373D
 energy: -396.897442943521 gnorm: 0.000462475003 xtb: 6.4.1 (unknown)
225249  0     0  0            999 V2000
   -8.2748    1.6980    6.5180 C   0  0  0  0  0  0  0  0  0  0  0  0
   -9.2410    0.7139    6.5591 C   0  0  0  0  0  0  0  0  0  0  0  0
   -9.7129   -0.0863    5.4280 C   0  0  0  0  0  0  0  0  0  0  0  0
   -9.4604    0.0613    4.2446 O   0  0  0  0  0  0  0  0  0  0  0  0
  -10.5666   -1.1426    6.0072 C   0  0  0  0  0  0  0  0  0  0  0  0
  -11.2301   -2.1719    5.3696 C   0  0  0  0  0  0  0  0  0  0  0  0
  -11.9709   -3.0583    6.1364 C   0  0  0  0  0  0  0  0  0  0  0  0
  -12.0311   -2.8931    7.5143 C   0  0  0  0  0  0  0  0  0  0  0  0
  -12.9550   -4.0061    8.4519 Cl  0  0  0  0  0  0  0  0  0  0  0  0
  -11.3700   -1.8572    8.1686 C   0  0  0  0  0  0  0  0  0  0  0  0
  -10.6294   -0.9756    7.4012 C   0  0  0  0  0  0  0  0  0  0  0  0
   -9.8417    0.2047    7.7665 C   0  0  0  0  0  0  0  0  0  0  0  0
   -9.7316    0.7186    9.0367 C   0  0  0  0  0  0  0  0  0  0  0  0
   -9.1033    1.9316    9.3758 C   0  0  0  0  0  0  0  0  0  0  0  0
   -8.6474    2.9244    9.7352 N   0  0  0  0  0  0  0  0  0  0  0  0
  -10.2686    0.1080   10.1871 C   0  0  0  0  0  0  0  0  0  0  0  0
  -10.6565   -0.3464   11.1681 N   0  0  0  0  0  0  0  0  0  0  0  0
   -7.5624    2.2244    5.4458 C   0  0  0  0  0  0  0  0  0  0  0  0
   -6.5041    3.1596    5.6022 C   0  0  0  0  0  0  0  0  0  0  0  0
   -5.9475    3.5501    6.7905 N   0  0  0  0  0  0  0  0  0  0  0  0
   -5.4026    4.8461    6.8787 C   0  0  0  0  0  0  0  0  0  0  0  0
   -4.1604    5.0583    7.4672 C   0  0  0  0  0  0  0  0  0  0  0  0
   -3.6423    6.3360    7.5441 C   0  0  0  0  0  0  0  0  0  0  0  0
   -4.3393    7.4259    7.0378 C   0  0  0  0  0  0  0  0  0  0  0  0
   -3.7673    8.8082    7.0989 C   0  0  0  0  0  0  0  0  0  0  0  0
   -5.5824    7.2034    6.4553 C   0  0  0  0  0  0  0  0  0  0  0  0
   -6.1145    5.9331    6.3772 C   0  0  0  0  0  0  0  0  0  0  0  0
   -5.7524    2.6627    7.8660 C   0  0  0  0  0  0  0  0  0  0  0  0
   -5.8556    3.1240    9.1752 C   0  0  0  0  0  0  0  0  0  0  0  0
   -5.6532    2.2562   10.2306 C   0  0  0  0  0  0  0  0  0  0  0  0
   -5.3577    0.9164   10.0134 C   0  0  0  0  0  0  0  0  0  0  0  0
   -5.1904   -0.0272   11.1636 C   0  0  0  0  0  0  0  0  0  0  0  0
   -5.2419    0.4697    8.7009 C   0  0  0  0  0  0  0  0  0  0  0  0
   -5.4249    1.3279    7.6364 C   0  0  0  0  0  0  0  0  0  0  0  0
   -6.0590    3.6229    4.3541 C   0  0  0  0  0  0  0  0  0  0  0  0
   -4.7556    4.6544    3.8518 S   0  0  0  0  0  0  0  0  0  0  0  0
   -5.0968    4.2809    2.1692 C   0  0  0  0  0  0  0  0  0  0  0  0
   -6.1389    3.3763    2.0185 C   0  0  0  0  0  0  0  0  0  0  0  0
   -6.5514    2.8103    0.8248 N   0  0  0  0  0  0  0  0  0  0  0  0
   -7.9191    2.5381    0.6597 C   0  0  0  0  0  0  0  0  0  0  0  0
   -8.3446    1.3680    0.0369 C   0  0  0  0  0  0  0  0  0  0  0  0
   -9.6923    1.1048   -0.0928 C   0  0  0  0  0  0  0  0  0  0  0  0
  -10.6495    1.9866    0.3964 C   0  0  0  0  0  0  0  0  0  0  0  0
  -12.1081    1.6661    0.2812 C   0  0  0  0  0  0  0  0  0  0  0  0
  -10.2160    3.1518    1.0132 C   0  0  0  0  0  0  0  0  0  0  0  0
   -8.8702    3.4310    1.1433 C   0  0  0  0  0  0  0  0  0  0  0  0
   -5.6216    2.4183   -0.1457 C   0  0  0  0  0  0  0  0  0  0  0  0
   -5.9354    2.5138   -1.5002 C   0  0  0  0  0  0  0  0  0  0  0  0
   -4.9961    2.1913   -2.4574 C   0  0  0  0  0  0  0  0  0  0  0  0
   -3.7215    1.7623   -2.1029 C   0  0  0  0  0  0  0  0  0  0  0  0
   -2.7096    1.4381   -3.1588 C   0  0  0  0  0  0  0  0  0  0  0  0
   -3.4311    1.6251   -0.7525 C   0  0  0  0  0  0  0  0  0  0  0  0
   -4.3656    1.9368    0.2167 C   0  0  0  0  0  0  0  0  0  0  0  0
   -6.7001    3.0340    3.2721 C   0  0  0  0  0  0  0  0  0  0  0  0
   -7.9028    1.8893    3.7425 S   0  0  0  0  0  0  0  0  0  0  0  0
   -4.2304    4.7412    1.1253 C   0  0  0  0  0  0  0  0  0  0  0  0
   -4.5775    5.1841   -0.1381 C   0  0  0  0  0  0  0  0  0  0  0  0
   -5.9154    5.6642   -0.4718 C   0  0  0  0  0  0  0  0  0  0  0  0
   -6.4165    5.5681   -1.7675 C   0  0  0  0  0  0  0  0  0  0  0  0
   -7.6971    6.0045   -2.0495 C   0  0  0  0  0  0  0  0  0  0  0  0
   -8.4873    6.5522   -1.0556 C   0  0  0  0  0  0  0  0  0  0  0  0
   -7.9933    6.6915    0.2358 C   0  0  0  0  0  0  0  0  0  0  0  0
   -8.8192    7.3523    1.3029 C   0  0  0  0  0  0  0  0  0  0  0  0
   -8.6542    8.8718    1.2417 C   0  0  0  0  0  0  0  0  0  0  0  0
   -6.7097    6.2516    0.5120 C   0  0  0  0  0  0  0  0  0  0  0  0
   -3.4648    5.1288   -1.0110 C   0  0  0  0  0  0  0  0  0  0  0  0
   -3.2777    5.3232   -2.7393 S   0  0  0  0  0  0  0  0  0  0  0  0
   -1.6445    4.7557   -2.6202 C   0  0  0  0  0  0  0  0  0  0  0  0
   -0.6175    4.2750   -3.4518 C   0  0  0  0  0  0  0  0  0  0  0  0
   -0.5789    4.0354   -4.8435 C   0  0  0  0  0  0  0  0  0  0  0  0
    0.4757    3.2190   -5.3807 C   0  0  0  0  0  0  0  0  0  0  0  0
    0.3265    2.9890   -6.6753 N   0  0  0  0  0  0  0  0  0  0  0  0
   -1.0166    3.7393   -7.1805 S   0  0  0  0  0  0  0  0  0  0  0  0
   -1.4669    4.3800   -5.7626 N   0  0  0  0  0  0  0  0  0  0  0  0
    1.5185    2.7952   -4.5275 C   0  0  0  0  0  0  0  0  0  0  0  0
    2.6760    2.0328   -4.7586 C   0  0  0  0  0  0  0  0  0  0  0  0
    3.3777    1.0935   -6.0297 S   0  0  0  0  0  0  0  0  0  0  0  0
    4.6686    0.6415   -4.9451 C   0  0  0  0  0  0  0  0  0  0  0  0
    5.7479   -0.2503   -5.0822 C   0  0  0  0  0  0  0  0  0  0  0  0
    6.0659   -0.9800   -6.3119 C   0  0  0  0  0  0  0  0  0  0  0  0
    7.3525   -0.9374   -6.8421 C   0  0  0  0  0  0  0  0  0  0  0  0
    7.6405   -1.6291   -8.0025 C   0  0  0  0  0  0  0  0  0  0  0  0
    6.6594   -2.3765   -8.6307 C   0  0  0  0  0  0  0  0  0  0  0  0
    5.3711   -2.4301   -8.1137 C   0  0  0  0  0  0  0  0  0  0  0  0
    4.2953   -3.2064   -8.8166 C   0  0  0  0  0  0  0  0  0  0  0  0
    3.5681   -2.3094   -9.8200 C   0  0  0  0  0  0  0  0  0  0  0  0
    5.0806   -1.7160   -6.9605 C   0  0  0  0  0  0  0  0  0  0  0  0
    6.4742   -0.3371   -3.9077 C   0  0  0  0  0  0  0  0  0  0  0  0
    5.8661    0.7351   -2.6586 S   0  0  0  0  0  0  0  0  0  0  0  0
    4.5675    1.2365   -3.6827 C   0  0  0  0  0  0  0  0  0  0  0  0
    3.4116    2.0198   -3.5687 C   0  0  0  0  0  0  0  0  0  0  0  0
    2.7410    2.7270   -2.5990 N   0  0  0  0  0  0  0  0  0  0  0  0
    1.5549    3.1757   -3.1607 C   0  0  0  0  0  0  0  0  0  0  0  0
    0.4133    3.7970   -2.5949 C   0  0  0  0  0  0  0  0  0  0  0  0
    0.0034    3.9591   -1.2857 N   0  0  0  0  0  0  0  0  0  0  0  0
   -1.2456    4.5133   -1.3051 C   0  0  0  0  0  0  0  0  0  0  0  0
   -2.2878    4.7106   -0.3921 C   0  0  0  0  0  0  0  0  0  0  0  0
   -2.5163    4.4017    1.2880 S   0  0  0  0  0  0  0  0  0  0  0  0
    0.4988    3.3478   -0.0761 C   0  0  0  0  0  0  0  0  0  0  0  0
    1.0111    4.3772    0.9286 C   0  0  0  0  0  0  0  0  0  0  0  0
    3.4436    3.3240   -1.4809 C   0  0  0  0  0  0  0  0  0  0  0  0
    3.8365    2.3267   -0.3928 C   0  0  0  0  0  0  0  0  0  0  0  0
    7.4436   -1.3149   -3.5456 C   0  0  0  0  0  0  0  0  0  0  0  0
    7.5756   -2.5689   -4.0726 C   0  0  0  0  0  0  0  0  0  0  0  0
    8.4780   -3.3892   -3.3635 C   0  0  0  0  0  0  0  0  0  0  0  0
    8.7613   -4.7468   -3.5963 C   0  0  0  0  0  0  0  0  0  0  0  0
    8.2014   -5.4108   -4.7603 C   0  0  0  0  0  0  0  0  0  0  0  0
    7.3125   -6.8983   -4.6589 S   0  0  0  0  0  0  0  0  0  0  0  0
    6.9620   -6.9021   -6.3528 C   0  0  0  0  0  0  0  0  0  0  0  0
    6.1095   -7.9510   -6.9786 C   0  0  0  0  0  0  0  0  0  0  0  0
    4.6269   -7.6881   -6.7032 C   0  0  0  0  0  0  0  0  0  0  0  0
    7.5166   -5.8086   -6.9484 C   0  0  0  0  0  0  0  0  0  0  0  0
    7.4112   -5.5549   -8.2626 F   0  0  0  0  0  0  0  0  0  0  0  0
    8.2170   -4.9662   -6.0541 C   0  0  0  0  0  0  0  0  0  0  0  0
    8.8759   -3.8683   -6.4489 F   0  0  0  0  0  0  0  0  0  0  0  0
    9.5462   -5.4034   -2.6577 C   0  0  0  0  0  0  0  0  0  0  0  0
   10.1274   -4.7270   -1.5512 C   0  0  0  0  0  0  0  0  0  0  0  0
    9.9196   -3.3373   -1.3674 C   0  0  0  0  0  0  0  0  0  0  0  0
   10.5835   -2.6179   -0.2987 C   0  0  0  0  0  0  0  0  0  0  0  0
    9.7652   -1.4442    0.6893 S   0  0  0  0  0  0  0  0  0  0  0  0
   11.1888   -1.0911    1.6070 C   0  0  0  0  0  0  0  0  0  0  0  0
   11.1845   -0.1082    2.7256 C   0  0  0  0  0  0  0  0  0  0  0  0
   10.2762   -0.5627    3.8687 C   0  0  0  0  0  0  0  0  0  0  0  0
   12.2305   -1.8460    1.1575 C   0  0  0  0  0  0  0  0  0  0  0  0
   11.8950   -2.7072    0.0862 C   0  0  0  0  0  0  0  0  0  0  0  0
   12.7992   -3.4874   -0.5204 F   0  0  0  0  0  0  0  0  0  0  0  0
   13.4659   -1.7748    1.6728 F   0  0  0  0  0  0  0  0  0  0  0  0
    9.0534   -2.7177   -2.2520 C   0  0  0  0  0  0  0  0  0  0  0  0
    8.4903   -1.0706   -2.1606 S   0  0  0  0  0  0  0  0  0  0  0  0
   10.8113   -5.6202   -0.7165 C   0  0  0  0  0  0  0  0  0  0  0  0
   10.7916   -6.9334   -1.1538 C   0  0  0  0  0  0  0  0  0  0  0  0
    9.9184   -7.1009   -2.6635 S   0  0  0  0  0  0  0  0  0  0  0  0
   11.3805   -7.9652   -0.3962 C   0  0  0  0  0  0  0  0  0  0  0  0
   11.4504   -9.3109   -0.6274 C   0  0  0  0  0  0  0  0  0  0  0  0
   10.9684  -10.0122   -1.8312 C   0  0  0  0  0  0  0  0  0  0  0  0
   10.3956   -9.5356   -2.7914 O   0  0  0  0  0  0  0  0  0  0  0  0
   11.3329  -11.4279   -1.6457 C   0  0  0  0  0  0  0  0  0  0  0  0
   11.1155  -12.4968   -2.4946 C   0  0  0  0  0  0  0  0  0  0  0  0
   11.5525  -13.7522   -2.1045 C   0  0  0  0  0  0  0  0  0  0  0  0
   12.1957  -13.9108   -0.8816 C   0  0  0  0  0  0  0  0  0  0  0  0
   12.7336  -15.4785   -0.4145 Cl  0  0  0  0  0  0  0  0  0  0  0  0
   12.4200  -12.8427   -0.0179 C   0  0  0  0  0  0  0  0  0  0  0  0
   11.9804  -11.5889   -0.4082 C   0  0  0  0  0  0  0  0  0  0  0  0
   12.0476  -10.2900    0.2630 C   0  0  0  0  0  0  0  0  0  0  0  0
   12.5469  -10.0769    1.5205 C   0  0  0  0  0  0  0  0  0  0  0  0
   12.5558   -8.8459    2.2113 C   0  0  0  0  0  0  0  0  0  0  0  0
   12.5867   -7.8952    2.8552 N   0  0  0  0  0  0  0  0  0  0  0  0
   13.1096  -11.0857    2.3325 C   0  0  0  0  0  0  0  0  0  0  0  0
   13.5808  -11.8515    3.0458 N   0  0  0  0  0  0  0  0  0  0  0  0
   -7.9963    2.1162    7.4768 H   0  0  0  0  0  0  0  0  0  0  0  0
  -11.1660   -2.2759    4.2976 H   0  0  0  0  0  0  0  0  0  0  0  0
  -12.5012   -3.8758    5.6742 H   0  0  0  0  0  0  0  0  0  0  0  0
  -11.4446   -1.7664    9.2395 H   0  0  0  0  0  0  0  0  0  0  0  0
   -3.6043    4.2188    7.8570 H   0  0  0  0  0  0  0  0  0  0  0  0
   -2.6748    6.4865    8.0005 H   0  0  0  0  0  0  0  0  0  0  0  0
   -4.5290    9.5277    7.3924 H   0  0  0  0  0  0  0  0  0  0  0  0
   -2.9436    8.8585    7.8062 H   0  0  0  0  0  0  0  0  0  0  0  0
   -3.3935    9.1001    6.1172 H   0  0  0  0  0  0  0  0  0  0  0  0
   -6.1439    8.0397    6.0648 H   0  0  0  0  0  0  0  0  0  0  0  0
   -7.0879    5.7735    5.9365 H   0  0  0  0  0  0  0  0  0  0  0  0
   -6.1049    4.1569    9.3600 H   0  0  0  0  0  0  0  0  0  0  0  0
   -5.7469    2.6249   11.2407 H   0  0  0  0  0  0  0  0  0  0  0  0
   -4.5557   -0.8667   10.8907 H   0  0  0  0  0  0  0  0  0  0  0  0
   -4.7579    0.4811   12.0219 H   0  0  0  0  0  0  0  0  0  0  0  0
   -6.1624   -0.4210   11.4636 H   0  0  0  0  0  0  0  0  0  0  0  0
   -4.9945   -0.5647    8.5094 H   0  0  0  0  0  0  0  0  0  0  0  0
   -5.3210    0.9681    6.6230 H   0  0  0  0  0  0  0  0  0  0  0  0
   -7.6137    0.6640   -0.3326 H   0  0  0  0  0  0  0  0  0  0  0  0
  -10.0091    0.1894   -0.5712 H   0  0  0  0  0  0  0  0  0  0  0  0
  -12.3362    1.2431   -0.6950 H   0  0  0  0  0  0  0  0  0  0  0  0
  -12.7160    2.5548    0.4316 H   0  0  0  0  0  0  0  0  0  0  0  0
  -12.3852    0.9317    1.0376 H   0  0  0  0  0  0  0  0  0  0  0  0
  -10.9407    3.8547    1.3984 H   0  0  0  0  0  0  0  0  0  0  0  0
   -8.5487    4.3459    1.6171 H   0  0  0  0  0  0  0  0  0  0  0  0
   -6.9156    2.8600   -1.7907 H   0  0  0  0  0  0  0  0  0  0  0  0
   -5.2481    2.2906   -3.5032 H   0  0  0  0  0  0  0  0  0  0  0  0
   -2.9229    0.4632   -3.5985 H   0  0  0  0  0  0  0  0  0  0  0  0
   -2.7404    2.1772   -3.9571 H   0  0  0  0  0  0  0  0  0  0  0  0
   -1.7034    1.4116   -2.7455 H   0  0  0  0  0  0  0  0  0  0  0  0
   -2.4576    1.2635   -0.4504 H   0  0  0  0  0  0  0  0  0  0  0  0
   -4.1228    1.8095    1.2619 H   0  0  0  0  0  0  0  0  0  0  0  0
   -5.8112    5.1353   -2.5477 H   0  0  0  0  0  0  0  0  0  0  0  0
   -8.0823    5.9129   -3.0544 H   0  0  0  0  0  0  0  0  0  0  0  0
   -9.4909    6.8819   -1.2822 H   0  0  0  0  0  0  0  0  0  0  0  0
   -8.5086    6.9978    2.2884 H   0  0  0  0  0  0  0  0  0  0  0  0
   -9.8720    7.0980    1.1635 H   0  0  0  0  0  0  0  0  0  0  0  0
   -8.9635    9.2470    0.2690 H   0  0  0  0  0  0  0  0  0  0  0  0
   -7.6126    9.1447    1.3973 H   0  0  0  0  0  0  0  0  0  0  0  0
   -9.2583    9.3522    2.0079 H   0  0  0  0  0  0  0  0  0  0  0  0
   -6.3127    6.3778    1.5094 H   0  0  0  0  0  0  0  0  0  0  0  0
    8.1175   -0.3618   -6.3429 H   0  0  0  0  0  0  0  0  0  0  0  0
    8.6387   -1.5973   -8.4110 H   0  0  0  0  0  0  0  0  0  0  0  0
    6.8972   -2.9331   -9.5250 H   0  0  0  0  0  0  0  0  0  0  0  0
    4.7376   -4.0551   -9.3420 H   0  0  0  0  0  0  0  0  0  0  0  0
    3.5757   -3.5878   -8.0886 H   0  0  0  0  0  0  0  0  0  0  0  0
    2.7837   -2.8647  -10.3291 H   0  0  0  0  0  0  0  0  0  0  0  0
    3.1195   -1.4594   -9.3103 H   0  0  0  0  0  0  0  0  0  0  0  0
    4.2662   -1.9325  -10.5639 H   0  0  0  0  0  0  0  0  0  0  0  0
    4.0833   -1.7501   -6.5448 H   0  0  0  0  0  0  0  0  0  0  0  0
    1.2668    2.6264   -0.3403 H   0  0  0  0  0  0  0  0  0  0  0  0
   -0.3336    2.8030    0.3850 H   0  0  0  0  0  0  0  0  0  0  0  0
    1.4142    3.8676    1.7990 H   0  0  0  0  0  0  0  0  0  0  0  0
    0.1965    5.0191    1.2530 H   0  0  0  0  0  0  0  0  0  0  0  0
    1.7883    5.0056    0.5005 H   0  0  0  0  0  0  0  0  0  0  0  0
    2.8133    4.1156   -1.0790 H   0  0  0  0  0  0  0  0  0  0  0  0
    4.3577    3.7926   -1.8657 H   0  0  0  0  0  0  0  0  0  0  0  0
    3.0041    1.6916   -0.1012 H   0  0  0  0  0  0  0  0  0  0  0  0
    4.6405    1.6827   -0.7342 H   0  0  0  0  0  0  0  0  0  0  0  0
    4.1823    2.8698    0.4824 H   0  0  0  0  0  0  0  0  0  0  0  0
    6.9895   -2.9086   -4.9055 H   0  0  0  0  0  0  0  0  0  0  0  0
    6.3847   -8.9287   -6.5791 H   0  0  0  0  0  0  0  0  0  0  0  0
    6.2890   -7.9490   -8.0555 H   0  0  0  0  0  0  0  0  0  0  0  0
    4.0189   -8.4599   -7.1670 H   0  0  0  0  0  0  0  0  0  0  0  0
    4.4371   -7.6892   -5.6324 H   0  0  0  0  0  0  0  0  0  0  0  0
    4.3324   -6.7227   -7.1080 H   0  0  0  0  0  0  0  0  0  0  0  0
   12.2089    0.0051    3.0854 H   0  0  0  0  0  0  0  0  0  0  0  0
   10.8391    0.8602    2.3551 H   0  0  0  0  0  0  0  0  0  0  0  0
   10.6151   -1.5157    4.2671 H   0  0  0  0  0  0  0  0  0  0  0  0
    9.2543   -0.6769    3.5144 H   0  0  0  0  0  0  0  0  0  0  0  0
   10.2895    0.1722    4.6689 H   0  0  0  0  0  0  0  0  0  0  0  0
   11.2890   -5.3410    0.2053 H   0  0  0  0  0  0  0  0  0  0  0  0
   11.8368   -7.6025    0.5171 H   0  0  0  0  0  0  0  0  0  0  0  0
   10.6145  -12.3450   -3.4379 H   0  0  0  0  0  0  0  0  0  0  0  0
   11.3998  -14.6100   -2.7399 H   0  0  0  0  0  0  0  0  0  0  0  0
   12.9235  -13.0107    0.9195 H   0  0  0  0  0  0  0  0  0  0  0  0
  1  2  2  0  0  0  0
  2  3  1  0  0  0  0
  3  4  2  0  0  0  0
  3  5  1  0  0  0  0
  5  6  2  0  0  0  0
  6  7  1  0  0  0  0
  7  8  2  0  0  0  0
  8  9  1  0  0  0  0
  8 10  1  0  0  0  0
 10 11  2  0  0  0  0
 11 12  1  0  0  0  0
 12 13  2  0  0  0  0
 13 14  1  0  0  0  0
 14 15  3  0  0  0  0
 13 16  1  0  0  0  0
 16 17  3  0  0  0  0
  1 18  1  0  0  0  0
 18 19  2  0  0  0  0
 19 20  1  0  0  0  0
 20 21  1  0  0  0  0
 21 22  2  0  0  0  0
 22 23  1  0  0  0  0
 23 24  2  0  0  0  0
 24 25  1  0  0  0  0
 24 26  1  0  0  0  0
 26 27  2  0  0  0  0
 20 28  1  0  0  0  0
 28 29  2  0  0  0  0
 29 30  1  0  0  0  0
 30 31  2  0  0  0  0
 31 32  1  0  0  0  0
 31 33  1  0  0  0  0
 33 34  2  0  0  0  0
 19 35  1  0  0  0  0
 35 36  1  0  0  0  0
 36 37  1  0  0  0  0
 37 38  2  0  0  0  0
 38 39  1  0  0  0  0
 39 40  1  0  0  0  0
 40 41  2  0  0  0  0
 41 42  1  0  0  0  0
 42 43  2  0  0  0  0
 43 44  1  0  0  0  0
 43 45  1  0  0  0  0
 45 46  2  0  0  0  0
 39 47  1  0  0  0  0
 47 48  2  0  0  0  0
 48 49  1  0  0  0  0
 49 50  2  0  0  0  0
 50 51  1  0  0  0  0
 50 52  1  0  0  0  0
 52 53  2  0  0  0  0
 38 54  1  0  0  0  0
 54 55  1  0  0  0  0
 37 56  1  0  0  0  0
 56 57  2  0  0  0  0
 57 58  1  0  0  0  0
 58 59  2  0  0  0  0
 59 60  1  0  0  0  0
 60 61  2  0  0  0  0
 61 62  1  0  0  0  0
 62 63  1  0  0  0  0
 63 64  1  0  0  0  0
 62 65  2  0  0  0  0
 57 66  1  0  0  0  0
 66 67  1  0  0  0  0
 67 68  1  0  0  0  0
 68 69  1  0  0  0  0
 69 70  1  0  0  0  0
 70 71  1  0  0  0  0
 71 72  2  0  0  0  0
 72 73  1  0  0  0  0
 73 74  1  0  0  0  0
 71 75  1  0  0  0  0
 75 76  1  0  0  0  0
 76 77  1  0  0  0  0
 77 78  1  0  0  0  0
 78 79  1  0  0  0  0
 79 80  1  0  0  0  0
 80 81  2  0  0  0  0
 81 82  1  0  0  0  0
 82 83  2  0  0  0  0
 83 84  1  0  0  0  0
 84 85  1  0  0  0  0
 85 86  1  0  0  0  0
 84 87  2  0  0  0  0
 79 88  2  0  0  0  0
 88 89  1  0  0  0  0
 89 90  1  0  0  0  0
 90 91  1  0  0  0  0
 91 92  1  0  0  0  0
 92 93  1  0  0  0  0
 93 94  1  0  0  0  0
 94 95  1  0  0  0  0
 95 96  1  0  0  0  0
 96 97  1  0  0  0  0
 97 98  1  0  0  0  0
 95 99  1  0  0  0  0
 99100  1  0  0  0  0
 92101  1  0  0  0  0
101102  1  0  0  0  0
 88103  1  0  0  0  0
103104  2  0  0  0  0
104105  1  0  0  0  0
105106  2  0  0  0  0
106107  1  0  0  0  0
107108  1  0  0  0  0
108109  1  0  0  0  0
109110  1  0  0  0  0
110111  1  0  0  0  0
109112  2  0  0  0  0
112113  1  0  0  0  0
112114  1  0  0  0  0
114115  1  0  0  0  0
106116  1  0  0  0  0
116117  2  0  0  0  0
117118  1  0  0  0  0
118119  1  0  0  0  0
119120  1  0  0  0  0
120121  1  0  0  0  0
121122  1  0  0  0  0
122123  1  0  0  0  0
121124  2  0  0  0  0
124125  1  0  0  0  0
125126  1  0  0  0  0
124127  1  0  0  0  0
118128  2  0  0  0  0
128129  1  0  0  0  0
117130  1  0  0  0  0
130131  2  0  0  0  0
131132  1  0  0  0  0
131133  1  0  0  0  0
133134  2  0  0  0  0
134135  1  0  0  0  0
135136  2  0  0  0  0
135137  1  0  0  0  0
137138  2  0  0  0  0
138139  1  0  0  0  0
139140  2  0  0  0  0
140141  1  0  0  0  0
140142  1  0  0  0  0
142143  2  0  0  0  0
143144  1  0  0  0  0
144145  2  0  0  0  0
145146  1  0  0  0  0
146147  3  0  0  0  0
145148  1  0  0  0  0
148149  3  0  0  0  0
 12  2  1  0  0  0  0
 55 18  1  0  0  0  0
 98 56  1  0  0  0  0
129103  1  0  0  0  0
144134  1  0  0  0  0
 11  5  1  0  0  0  0
 27 21  1  0  0  0  0
 34 28  1  0  0  0  0
 54 35  2  0  0  0  0
 65 58  1  0  0  0  0
 97 66  2  0  0  0  0
128105  1  0  0  0  0
143137  1  0  0  0  0
 46 40  1  0  0  0  0
 53 47  1  0  0  0  0
 96 68  2  0  0  0  0
114107  2  0  0  0  0
132116  1  0  0  0  0
 94 69  2  0  0  0  0
125119  2  0  0  0  0
 74 70  2  0  0  0  0
 93 75  2  0  0  0  0
 91 76  2  0  0  0  0
 90 78  2  0  0  0  0
 87 80  1  0  0  0  0
  1150  1  0  0  0  0
  6151  1  0  0  0  0
  7152  1  0  0  0  0
 10153  1  0  0  0  0
 22154  1  0  0  0  0
 23155  1  0  0  0  0
 25156  1  0  0  0  0
 25157  1  0  0  0  0
 25158  1  0  0  0  0
 26159  1  0  0  0  0
 27160  1  0  0  0  0
 29161  1  0  0  0  0
 30162  1  0  0  0  0
 32163  1  0  0  0  0
 32164  1  0  0  0  0
 32165  1  0  0  0  0
 33166  1  0  0  0  0
 34167  1  0  0  0  0
 41168  1  0  0  0  0
 42169  1  0  0  0  0
 44170  1  0  0  0  0
 44171  1  0  0  0  0
 44172  1  0  0  0  0
 45173  1  0  0  0  0
 46174  1  0  0  0  0
 48175  1  0  0  0  0
 49176  1  0  0  0  0
 51177  1  0  0  0  0
 51178  1  0  0  0  0
 51179  1  0  0  0  0
 52180  1  0  0  0  0
 53181  1  0  0  0  0
 59182  1  0  0  0  0
 60183  1  0  0  0  0
 61184  1  0  0  0  0
 63185  1  0  0  0  0
 63186  1  0  0  0  0
 64187  1  0  0  0  0
 64188  1  0  0  0  0
 64189  1  0  0  0  0
 65190  1  0  0  0  0
 81191  1  0  0  0  0
 82192  1  0  0  0  0
 83193  1  0  0  0  0
 85194  1  0  0  0  0
 85195  1  0  0  0  0
 86196  1  0  0  0  0
 86197  1  0  0  0  0
 86198  1  0  0  0  0
 87199  1  0  0  0  0
 99200  1  0  0  0  0
 99201  1  0  0  0  0
100202  1  0  0  0  0
100203  1  0  0  0  0
100204  1  0  0  0  0
101205  1  0  0  0  0
101206  1  0  0  0  0
102207  1  0  0  0  0
102208  1  0  0  0  0
102209  1  0  0  0  0
104210  1  0  0  0  0
110211  1  0  0  0  0
110212  1  0  0  0  0
111213  1  0  0  0  0
111214  1  0  0  0  0
111215  1  0  0  0  0
122216  1  0  0  0  0
122217  1  0  0  0  0
123218  1  0  0  0  0
123219  1  0  0  0  0
123220  1  0  0  0  0
130221  1  0  0  0  0
133222  1  0  0  0  0
138223  1  0  0  0  0
139224  1  0  0  0  0
142225  1  0  0  0  0
M  END
