246

C          2.47430      -11.33230        3.01670
C          3.13020      -11.68900        4.18130
C          3.81470      -10.72750        5.05610
O          3.94190       -9.52790        4.88790
C          4.20930      -11.49760        6.25660
C          4.87540      -11.06900        7.38600
C          5.15410      -11.99260        8.38330
C          4.75150      -13.31220        8.23230
Cl         5.10380      -14.44590        9.48410
C          4.07030      -13.75580        7.10190
C          3.80330      -12.83390        6.10720
C          3.14410      -12.97690        4.80780
C          2.76500      -14.16270        4.22570
C          2.90900      -15.42290        4.83280
N          3.01880      -16.48040        5.26900
C          2.26420      -14.26780        2.91340
N          1.88120      -14.42840        1.84230
C          2.77050      -10.22670        2.22390
C          3.95900       -9.47260        2.08200
N          5.19500       -9.79840        2.54710
C          6.17660       -8.78550        2.66430
C          5.90770       -7.62230        3.37720
C          6.87190       -6.63800        3.47010
C          8.11300       -6.78970        2.86230
C          9.13860       -5.70090        2.93340
C          8.37530       -7.96740        2.17150
C          7.42180       -8.96150        2.07200
C          5.57800      -11.10330        2.88970
C          5.18900      -12.20210        2.12460
C          5.54840      -13.47570        2.51080
C          6.29990      -13.69650        3.66360
C          6.63100      -15.09010        4.09490
C          6.72420      -12.59360        4.39170
C          6.37600      -11.31060        4.01240
C          3.72680       -8.34740        1.25770
S          4.72600       -7.04800        0.70100
C          3.39940       -6.39080       -0.23010
C          2.25930       -7.17960       -0.15840
N          1.10770       -6.94300       -0.88920
C         -0.14550       -7.20630       -0.32420
C         -0.36320       -7.01000        1.03710
C         -1.59650       -7.29180        1.59040
C         -2.64460       -7.75960        0.80830
C         -3.97410       -8.08530        1.41710
C         -2.42210       -7.93910       -0.55230
C         -1.19150       -7.67290       -1.11660
C          1.21740       -6.44030       -2.19750
C          0.36910       -5.42820       -2.64120
C          0.54520       -4.87670       -3.89380
C          1.54850       -5.32760       -4.74470
C          1.77270       -4.67560       -6.07450
C          2.35340       -6.37440       -4.31460
C          2.20150       -6.92040       -3.05550
C          2.45600       -8.28330        0.70250
S          1.47100       -9.61310        1.18370
C          3.44630       -5.11410       -0.88900
C          4.22800       -4.63280       -1.91400
C          5.38750       -5.29540       -2.51280
C          6.41200       -5.82030       -1.73170
C          7.50030       -6.42210       -2.33510
C          7.58730       -6.49020       -3.71450
C          6.58740       -5.94510       -4.51030
C          6.70060       -5.93900       -6.00750
C          7.25660       -4.59740       -6.48880
C          5.49630       -5.34860       -3.89850
C          3.74580       -3.38660       -2.37900
S          4.26040       -2.32970       -3.67100
C          2.99400       -1.22670       -3.24860
C          2.51590        0.04380       -3.61660
C          3.02300        1.02350       -4.49930
C          2.46320        2.34900       -4.47170
N          3.10010        3.18220       -5.27920
S          4.28930        2.37180       -6.02150
N          4.04480        0.92570       -5.33500
C          1.33010        2.59640       -3.66650
C          0.54130        3.74270       -3.44840
S          0.54450        5.43060       -3.83050
C         -0.87120        5.64590       -2.83220
C         -1.60780        6.78390       -2.43260
C         -1.40750        8.13810       -2.94240
C         -2.49250        8.99410       -3.12540
C         -2.29310       10.26950       -3.61640
C         -1.01760       10.71050       -3.92440
C          0.07310        9.86670       -3.76610
C          1.45710       10.30420       -4.15000
C          1.80150        9.80730       -5.55530
C         -0.13590        8.58190       -3.28910
C         -2.59050        6.44050       -1.52590
S         -2.68920        4.70880       -1.24500
C         -1.32600        4.45370       -2.27150
C         -0.51960        3.36410       -2.62360
N         -0.42320        2.02960       -2.31670
C          0.73380        1.55460       -2.91000
C          1.41360        0.32180       -2.76560
N          1.24970       -0.73230       -1.88020
C          2.21470       -1.66050       -2.17510
C          2.64540       -2.89890       -1.68070
S          2.16350       -3.98940       -0.43600
C          0.63940       -0.73090       -0.56530
C          1.10530        0.45100        0.27900
C         -1.59850        1.25230       -1.99000
C         -2.72310        1.48090       -2.99910
C         -3.32650        7.32440       -0.67090
C         -2.78200        8.32960        0.11490
N         -1.43340        8.62620        0.22000
C         -1.04370        9.96590        0.36850
C         -1.73400       10.97710       -0.29520
C         -1.35270       12.29420       -0.14340
C         -0.27720       12.64260        0.66490
C          0.11590       14.07880        0.82730
C          0.40430       11.62830        1.32520
C          0.02830       10.30670        1.18820
C         -0.47850        7.60090        0.19510
C         -0.75420        6.35650        0.75780
C          0.15770        5.32450        0.65240
C          1.37340        5.50200        0.00530
C          2.33690        4.36620       -0.15740
C          1.66630        6.76290       -0.50120
C          0.76110        7.80050       -0.40830
C         -3.79250        8.97390        0.86840
S         -3.78650       10.30190        1.96380
C         -5.51510       10.07740        2.28100
C         -6.07340        9.06480        1.47470
N         -7.39930        8.77250        1.32350
C         -8.42190        9.69690        1.57070
C         -9.61060        9.27300        2.16190
C        -10.60500       10.18590        2.46050
C        -10.44730       11.53670        2.18240
C        -11.49010       12.53970        2.56390
C         -9.27920       11.94360        1.54140
C         -8.28130       11.04330        1.23480
C         -7.76750        7.47930        0.88820
C         -7.22240        6.35180        1.49430
C         -7.57970        5.09440        1.05150
C         -8.48350        4.93100        0.00730
C         -8.83600        3.56080       -0.48390
C         -9.03610        6.06470       -0.57550
C         -8.68610        7.32980       -0.14430
C         -5.06190        8.43540        0.70930
S         -5.05000        7.11890       -0.41720
C         -6.08720       10.93170        3.22950
C         -7.22480       10.68920        3.96430
C         -7.73800        9.33620        4.27090
O         -7.25870        8.26870        3.93940
C         -8.86330        9.58250        5.17540
S        -10.02250        8.63380        5.99450
C        -10.73840       10.06320        6.64730
C        -10.11890       11.21360        6.25960
C         -9.03110       10.93760        5.40890
C         -8.02800       11.66610        4.65420
C         -7.98240       13.03120        4.51700
C         -7.09180       13.72090        3.67430
N         -6.41170       14.33890        2.98490
C         -8.90160       13.87060        5.17300
N         -9.65610       14.56660        5.68830
H          1.62250      -11.92340        2.70230
H          5.17660      -10.03720        7.48150
H          5.68120      -11.69500        9.27610
H          3.76650      -14.78690        7.02730
H          4.95300       -7.51860        3.86860
H          6.65860       -5.73760        4.02740
H          9.01310       -5.02010        2.09070
H         10.14510       -6.10990        2.88770
H          9.03110       -5.12460        3.84920
H          9.33800       -8.10650        1.70140
H          7.63180       -9.87300        1.53150
H          4.60070      -12.05620        1.23110
H          5.23230      -14.31820        1.91320
H          5.71940      -15.64970        4.30360
H          7.24470      -15.08460        4.99180
H          7.16590      -15.61680        3.30590
H          7.32240      -12.73680        5.27980
H          6.70420      -10.46170        4.59330
H          0.43430       -6.62670        1.65680
H         -1.74820       -7.13790        2.64910
H         -4.15060       -7.48780        2.30850
H         -4.00330       -9.13680        1.70500
H         -4.77980       -7.90980        0.70780
H         -3.22340       -8.30360       -1.17890
H         -1.03000       -7.82900       -2.17300
H         -0.40840       -5.06380       -1.98570
H         -0.09950       -4.07040       -4.21360
H          0.82710       -4.41460       -6.54490
H          2.34540       -3.75570       -5.94480
H          2.32900       -5.33060       -6.74080
H          3.11630       -6.77060       -4.96860
H          2.85350       -7.71760       -2.72950
H          6.37130       -5.73030       -0.65710
H          8.28920       -6.83270       -1.72210
H          8.44280       -6.96020       -4.17820
H          7.35990       -6.74480       -6.33580
H          5.71660       -6.09840       -6.45390
H          7.33110       -4.58310       -7.57360
H          8.24600       -4.42740       -6.07020
H          6.60780       -3.78390       -6.17230
H          4.71140       -4.92540       -4.50640
H         -3.49120        8.65030       -2.89930
H         -3.13890       10.92630       -3.76130
H         -0.86950       11.71360       -4.29720
H          2.18160        9.89920       -3.44030
H          1.52350       11.39350       -4.12210
H          1.10060       10.21290       -6.28160
H          1.74690        8.72190       -5.59560
H          2.80670       10.11620       -5.83250
H          0.70830        7.92070       -3.16850
H         -0.45060       -0.74450       -0.62840
H          0.94540       -1.66440       -0.08630
H          0.69030        0.36880        1.27990
H          2.19070        0.45440        0.35050
H          0.78430        1.39310       -0.15660
H         -1.32550        0.20000       -2.02240
H         -1.94180        1.51850       -0.98460
H         -3.08480        2.50400       -2.95970
H         -2.37090        1.27230       -4.00720
H         -3.55170        0.81500       -2.77360
H         -2.56050       10.72250       -0.94080
H         -1.89730       13.06660       -0.66650
H          1.09130       14.16550        1.29920
H         -0.61370       14.59760        1.44910
H          0.14570       14.58060       -0.13820
H          1.23880       11.87500        1.96580
H          0.56160        9.53170        1.71870
H         -1.68970        6.19850        1.27460
H         -0.08320        4.36240        1.08270
H          3.36360        4.72470       -0.13980
H          2.20630        3.62860        0.63150
H          2.17450        3.87130       -1.11650
H          2.61460        6.93000       -0.99140
H          0.99860        8.77120       -0.81610
H         -9.74000        8.22810        2.40200
H        -11.51140        9.84110        2.93720
H        -11.77780       13.14030        1.70260
H        -11.10110       13.21880        3.32310
H        -12.37480       12.05020        2.96270
H         -9.14720       12.98550        1.28810
H         -7.38360       11.38380        0.74090
H         -6.54620        6.47820        2.32510
H         -7.15440        4.22330        1.52790
H         -9.76920        3.57340       -1.04130
H         -8.05010        3.19130       -1.14340
H         -8.92910        2.86450        0.34680
H         -9.74620        5.95850       -1.38280
H         -9.11810        8.20560       -0.60640
H         -5.54970       11.85590        3.40750
H        -11.58990        9.96670        7.29180
H        -10.42710       12.19380        6.57280
