
  xtb     02072208193D
 energy: -299.474904297164 gnorm: 0.000248207140 xtb: 6.4.1 (unknown)
173190  0     0  0            999 V2000
   -7.7302   -2.3147    4.4857 C   0  0  0  0  0  0  0  0  0  0  0  0
   -8.0020   -2.4685    5.8089 C   0  0  0  0  0  0  0  0  0  0  0  0
   -8.4500   -3.7864    6.3386 C   0  0  0  0  0  0  0  0  0  0  0  0
   -8.8404   -4.7338    5.6962 O   0  0  0  0  0  0  0  0  0  0  0  0
   -8.2378   -3.6975    7.7983 C   0  0  0  0  0  0  0  0  0  0  0  0
   -8.3509   -4.6820    8.7623 C   0  0  0  0  0  0  0  0  0  0  0  0
   -8.0567   -4.3595   10.0778 C   0  0  0  0  0  0  0  0  0  0  0  0
   -7.6554   -3.0682   10.4035 C   0  0  0  0  0  0  0  0  0  0  0  0
   -7.2720   -2.6977   12.0412 Cl  0  0  0  0  0  0  0  0  0  0  0  0
   -7.5501   -2.0626    9.4482 C   0  0  0  0  0  0  0  0  0  0  0  0
   -7.8483   -2.3886    8.1376 C   0  0  0  0  0  0  0  0  0  0  0  0
   -7.8389   -1.5719    6.9278 C   0  0  0  0  0  0  0  0  0  0  0  0
   -7.9448   -0.2072    6.8874 C   0  0  0  0  0  0  0  0  0  0  0  0
   -7.9947    0.6075    8.0354 C   0  0  0  0  0  0  0  0  0  0  0  0
   -8.0612    1.3085    8.9417 N   0  0  0  0  0  0  0  0  0  0  0  0
   -8.1355    0.5104    5.6891 C   0  0  0  0  0  0  0  0  0  0  0  0
   -8.3257    1.1213    4.7360 N   0  0  0  0  0  0  0  0  0  0  0  0
   -6.8414   -1.3853    3.8874 C   0  0  0  0  0  0  0  0  0  0  0  0
   -5.6703   -0.8541    4.4169 C   0  0  0  0  0  0  0  0  0  0  0  0
   -5.1585   -1.1459    5.7006 N   0  0  0  0  0  0  0  0  0  0  0  0
   -4.1729   -2.1641    5.6758 C   0  0  0  0  0  0  0  0  0  0  0  0
   -4.4864   -3.4053    5.1313 C   0  0  0  0  0  0  0  0  0  0  0  0
   -3.5338   -4.4055    5.0826 C   0  0  0  0  0  0  0  0  0  0  0  0
   -2.2494   -4.1981    5.5668 C   0  0  0  0  0  0  0  0  0  0  0  0
   -1.2198   -5.2853    5.5286 C   0  0  0  0  0  0  0  0  0  0  0  0
   -1.9419   -2.9509    6.0999 C   0  0  0  0  0  0  0  0  0  0  0  0
   -2.8823   -1.9423    6.1498 C   0  0  0  0  0  0  0  0  0  0  0  0
   -5.0793   -0.1447    6.6765 C   0  0  0  0  0  0  0  0  0  0  0  0
   -5.3058    1.2002    6.3926 C   0  0  0  0  0  0  0  0  0  0  0  0
   -5.2449    2.1440    7.4009 C   0  0  0  0  0  0  0  0  0  0  0  0
   -4.9643    1.7849    8.7117 C   0  0  0  0  0  0  0  0  0  0  0  0
   -4.9427    2.8091    9.8015 C   0  0  0  0  0  0  0  0  0  0  0  0
   -4.7491    0.4386    8.9896 C   0  0  0  0  0  0  0  0  0  0  0  0
   -4.8117   -0.5149    7.9960 C   0  0  0  0  0  0  0  0  0  0  0  0
   -4.9363   -0.1722    3.4302 C   0  0  0  0  0  0  0  0  0  0  0  0
   -3.4564    0.7149    3.4598 S   0  0  0  0  0  0  0  0  0  0  0  0
   -3.6327    1.0835    1.7517 C   0  0  0  0  0  0  0  0  0  0  0  0
   -4.7886    0.5580    1.1973 C   0  0  0  0  0  0  0  0  0  0  0  0
   -5.1932    0.7286   -0.1112 N   0  0  0  0  0  0  0  0  0  0  0  0
   -5.9553   -0.2725   -0.7351 C   0  0  0  0  0  0  0  0  0  0  0  0
   -6.9992    0.0762   -1.5882 C   0  0  0  0  0  0  0  0  0  0  0  0
   -7.7563   -0.9058   -2.1926 C   0  0  0  0  0  0  0  0  0  0  0  0
   -7.5033   -2.2540   -1.9621 C   0  0  0  0  0  0  0  0  0  0  0  0
   -8.3573   -3.3102   -2.5930 C   0  0  0  0  0  0  0  0  0  0  0  0
   -6.4542   -2.5924   -1.1180 C   0  0  0  0  0  0  0  0  0  0  0  0
   -5.6814   -1.6193   -0.5140 C   0  0  0  0  0  0  0  0  0  0  0  0
   -4.8229    1.8734   -0.8364 C   0  0  0  0  0  0  0  0  0  0  0  0
   -4.8384    3.1306   -0.2384 C   0  0  0  0  0  0  0  0  0  0  0  0
   -4.3859    4.2348   -0.9315 C   0  0  0  0  0  0  0  0  0  0  0  0
   -3.9275    4.1237   -2.2391 C   0  0  0  0  0  0  0  0  0  0  0  0
   -3.3771    5.3188   -2.9540 C   0  0  0  0  0  0  0  0  0  0  0  0
   -3.9772    2.8768   -2.8496 C   0  0  0  0  0  0  0  0  0  0  0  0
   -4.4121    1.7606   -2.1613 C   0  0  0  0  0  0  0  0  0  0  0  0
   -5.5276   -0.1588    2.1727 C   0  0  0  0  0  0  0  0  0  0  0  0
   -7.0154   -1.0298    2.1781 S   0  0  0  0  0  0  0  0  0  0  0  0
   -2.6072    1.8489    1.0953 C   0  0  0  0  0  0  0  0  0  0  0  0
   -2.1924    3.1233    1.3835 C   0  0  0  0  0  0  0  0  0  0  0  0
   -2.7266    3.9800    2.4848 C   0  0  0  0  0  0  0  0  0  0  0  0
   -1.7638    3.9954    3.6728 C   0  0  0  0  0  0  0  0  0  0  0  0
   -1.1721    3.5358    0.5035 C   0  0  0  0  0  0  0  0  0  0  0  0
   -0.2856    5.0311    0.3437 S   0  0  0  0  0  0  0  0  0  0  0  0
    0.6526    4.3170   -0.9232 C   0  0  0  0  0  0  0  0  0  0  0  0
    1.7515    4.6347   -1.7458 C   0  0  0  0  0  0  0  0  0  0  0  0
    2.4596    5.8361   -1.9960 C   0  0  0  0  0  0  0  0  0  0  0  0
    3.5186    5.8296   -2.9831 C   0  0  0  0  0  0  0  0  0  0  0  0
    4.0766    7.0034   -3.2019 N   0  0  0  0  0  0  0  0  0  0  0  0
    3.3069    8.2037   -2.1651 Se  0  0  0  0  0  2  0  0  0  0  0  0
    2.2173    7.0133   -1.4542 N   0  0  0  0  0  0  0  0  0  0  0  0
    3.9205    4.5910   -3.5432 C   0  0  0  0  0  0  0  0  0  0  0  0
    5.0418    4.2115   -4.3058 C   0  0  0  0  0  0  0  0  0  0  0  0
    6.4084    4.9371   -5.0798 S   0  0  0  0  0  0  0  0  0  0  0  0
    7.0185    3.3390   -5.4551 C   0  0  0  0  0  0  0  0  0  0  0  0
    8.2023    2.9013   -6.0706 C   0  0  0  0  0  0  0  0  0  0  0  0
    9.2706    3.8666   -6.4792 C   0  0  0  0  0  0  0  0  0  0  0  0
   10.5249    3.7071   -5.6185 C   0  0  0  0  0  0  0  0  0  0  0  0
    8.2703    1.5183   -6.0772 C   0  0  0  0  0  0  0  0  0  0  0  0
    6.8836    0.7677   -5.3022 S   0  0  0  0  0  0  0  0  0  0  0  0
    6.1809    2.3123   -5.0111 C   0  0  0  0  0  0  0  0  0  0  0  0
    5.0487    2.8133   -4.3606 C   0  0  0  0  0  0  0  0  0  0  0  0
    3.9543    2.3080   -3.7025 N   0  0  0  0  0  0  0  0  0  0  0  0
    3.2483    3.3883   -3.2108 C   0  0  0  0  0  0  0  0  0  0  0  0
    2.0562    3.4492   -2.4581 C   0  0  0  0  0  0  0  0  0  0  0  0
    1.1229    2.4743   -2.1626 N   0  0  0  0  0  0  0  0  0  0  0  0
    0.2805    3.0007   -1.2156 C   0  0  0  0  0  0  0  0  0  0  0  0
   -0.7850    2.5649   -0.4172 C   0  0  0  0  0  0  0  0  0  0  0  0
   -1.7190    1.1239   -0.2410 S   0  0  0  0  0  0  0  0  0  0  0  0
    0.6886    1.4135   -3.0480 C   0  0  0  0  0  0  0  0  0  0  0  0
   -0.6194    1.7827   -3.7459 C   0  0  0  0  0  0  0  0  0  0  0  0
    4.0095    0.9779   -3.1319 C   0  0  0  0  0  0  0  0  0  0  0  0
    5.1142    0.8750   -2.0800 C   0  0  0  0  0  0  0  0  0  0  0  0
    9.3035    0.6368   -6.5531 C   0  0  0  0  0  0  0  0  0  0  0  0
   10.0073    0.8278   -7.7375 C   0  0  0  0  0  0  0  0  0  0  0  0
    9.6714    1.8208   -8.5799 F   0  0  0  0  0  0  0  0  0  0  0  0
   11.0468   -0.0133   -8.1225 C   0  0  0  0  0  0  0  0  0  0  0  0
   11.6945    0.2633   -9.2664 F   0  0  0  0  0  0  0  0  0  0  0  0
   11.4565   -1.1029   -7.3603 C   0  0  0  0  0  0  0  0  0  0  0  0
   10.6780   -1.3998   -6.2077 C   0  0  0  0  0  0  0  0  0  0  0  0
   10.8961   -2.5517   -5.5404 N   0  0  0  0  0  0  0  0  0  0  0  0
   10.1620   -2.8163   -4.4887 C   0  0  0  0  0  0  0  0  0  0  0  0
   10.2860   -3.9527   -3.8256 O   0  0  0  0  0  0  0  0  0  0  0  0
   11.2688   -4.8878   -4.2704 C   0  0  0  0  0  0  0  0  0  0  0  0
   11.0303   -6.1993   -3.5449 C   0  0  0  0  0  0  0  0  0  0  0  0
    9.1677   -1.8893   -4.0182 C   0  0  0  0  0  0  0  0  0  0  0  0
    8.9286   -0.8060   -4.6911 N   0  0  0  0  0  0  0  0  0  0  0  0
    9.6309   -0.5357   -5.8115 C   0  0  0  0  0  0  0  0  0  0  0  0
    8.3960   -2.1684   -2.7786 C   0  0  0  0  0  0  0  0  0  0  0  0
   12.5676   -1.9031   -7.7894 C   0  0  0  0  0  0  0  0  0  0  0  0
   13.4066   -2.5972   -6.9798 C   0  0  0  0  0  0  0  0  0  0  0  0
   14.4327   -3.4026   -7.5285 C   0  0  0  0  0  0  0  0  0  0  0  0
   15.2525   -4.0723   -7.9679 N   0  0  0  0  0  0  0  0  0  0  0  0
   13.4353   -2.5325   -5.5694 C   0  0  0  0  0  0  0  0  0  0  0  0
   13.5981   -2.4770   -4.4341 N   0  0  0  0  0  0  0  0  0  0  0  0
   -8.1505   -3.0649    3.8231 H   0  0  0  0  0  0  0  0  0  0  0  0
   -8.6598   -5.6786    8.4877 H   0  0  0  0  0  0  0  0  0  0  0  0
   -8.1320   -5.1040   10.8546 H   0  0  0  0  0  0  0  0  0  0  0  0
   -7.2302   -1.0726    9.7297 H   0  0  0  0  0  0  0  0  0  0  0  0
   -5.4785   -3.5908    4.7492 H   0  0  0  0  0  0  0  0  0  0  0  0
   -3.7987   -5.3638    4.6597 H   0  0  0  0  0  0  0  0  0  0  0  0
   -0.2511   -4.8882    5.2318 H   0  0  0  0  0  0  0  0  0  0  0  0
   -1.1088   -5.7301    6.5179 H   0  0  0  0  0  0  0  0  0  0  0  0
   -1.5080   -6.0699    4.8336 H   0  0  0  0  0  0  0  0  0  0  0  0
   -0.9442   -2.7619    6.4694 H   0  0  0  0  0  0  0  0  0  0  0  0
   -2.6183   -0.9741    6.5489 H   0  0  0  0  0  0  0  0  0  0  0  0
   -5.5314    1.5144    5.3853 H   0  0  0  0  0  0  0  0  0  0  0  0
   -5.4244    3.1813    7.1595 H   0  0  0  0  0  0  0  0  0  0  0  0
   -5.9578    2.9668   10.1663 H   0  0  0  0  0  0  0  0  0  0  0  0
   -4.5645    3.7603    9.4341 H   0  0  0  0  0  0  0  0  0  0  0  0
   -4.3281    2.4790   10.6357 H   0  0  0  0  0  0  0  0  0  0  0  0
   -4.5394    0.1306   10.0039 H   0  0  0  0  0  0  0  0  0  0  0  0
   -4.6549   -1.5584    8.2293 H   0  0  0  0  0  0  0  0  0  0  0  0
   -7.2113    1.1197   -1.7686 H   0  0  0  0  0  0  0  0  0  0  0  0
   -8.5662   -0.6215   -2.8487 H   0  0  0  0  0  0  0  0  0  0  0  0
   -9.2478   -3.4782   -1.9864 H   0  0  0  0  0  0  0  0  0  0  0  0
   -8.6818   -3.0055   -3.5855 H   0  0  0  0  0  0  0  0  0  0  0  0
   -7.8192   -4.2519   -2.6699 H   0  0  0  0  0  0  0  0  0  0  0  0
   -6.2316   -3.6335   -0.9339 H   0  0  0  0  0  0  0  0  0  0  0  0
   -4.8545   -1.9006    0.1221 H   0  0  0  0  0  0  0  0  0  0  0  0
   -5.2028    3.2347    0.7724 H   0  0  0  0  0  0  0  0  0  0  0  0
   -4.3857    5.2011   -0.4489 H   0  0  0  0  0  0  0  0  0  0  0  0
   -3.2849    5.1285   -4.0204 H   0  0  0  0  0  0  0  0  0  0  0  0
   -2.3890    5.5639   -2.5621 H   0  0  0  0  0  0  0  0  0  0  0  0
   -4.0162    6.1866   -2.8046 H   0  0  0  0  0  0  0  0  0  0  0  0
   -3.6574    2.7725   -3.8767 H   0  0  0  0  0  0  0  0  0  0  0  0
   -4.4192    0.7920   -2.6394 H   0  0  0  0  0  0  0  0  0  0  0  0
   -2.8488    4.9971    2.1064 H   0  0  0  0  0  0  0  0  0  0  0  0
   -3.6992    3.6078    2.8095 H   0  0  0  0  0  0  0  0  0  0  0  0
   -1.6404    2.9909    4.0720 H   0  0  0  0  0  0  0  0  0  0  0  0
   -0.7910    4.3719    3.3660 H   0  0  0  0  0  0  0  0  0  0  0  0
   -2.1521    4.6361    4.4600 H   0  0  0  0  0  0  0  0  0  0  0  0
    8.8724    4.8751   -6.3496 H   0  0  0  0  0  0  0  0  0  0  0  0
    9.5281    3.7450   -7.5303 H   0  0  0  0  0  0  0  0  0  0  0  0
   11.2696    4.4435   -5.9089 H   0  0  0  0  0  0  0  0  0  0  0  0
   10.9560    2.7149   -5.7351 H   0  0  0  0  0  0  0  0  0  0  0  0
   10.2836    3.8540   -4.5681 H   0  0  0  0  0  0  0  0  0  0  0  0
    0.5481    0.4973   -2.4645 H   0  0  0  0  0  0  0  0  0  0  0  0
    1.4540    1.2546   -3.8073 H   0  0  0  0  0  0  0  0  0  0  0  0
   -1.4232    1.9039   -3.0252 H   0  0  0  0  0  0  0  0  0  0  0  0
   -0.8945    0.9953   -4.4424 H   0  0  0  0  0  0  0  0  0  0  0  0
   -0.4998    2.7130   -4.2972 H   0  0  0  0  0  0  0  0  0  0  0  0
    4.2002    0.2675   -3.9419 H   0  0  0  0  0  0  0  0  0  0  0  0
    3.0591    0.7437   -2.6585 H   0  0  0  0  0  0  0  0  0  0  0  0
    5.1023   -0.1168   -1.6363 H   0  0  0  0  0  0  0  0  0  0  0  0
    4.9527    1.6110   -1.2952 H   0  0  0  0  0  0  0  0  0  0  0  0
    6.0906    1.0463   -2.5245 H   0  0  0  0  0  0  0  0  0  0  0  0
   11.1842   -5.0074   -5.3561 H   0  0  0  0  0  0  0  0  0  0  0  0
   12.2612   -4.4842   -4.0430 H   0  0  0  0  0  0  0  0  0  0  0  0
   11.7784   -6.9242   -3.8511 H   0  0  0  0  0  0  0  0  0  0  0  0
   11.1009   -6.0488   -2.4713 H   0  0  0  0  0  0  0  0  0  0  0  0
   10.0423   -6.5878   -3.7784 H   0  0  0  0  0  0  0  0  0  0  0  0
    9.0732   -2.2124   -1.9273 H   0  0  0  0  0  0  0  0  0  0  0  0
    7.6590   -1.3861   -2.6253 H   0  0  0  0  0  0  0  0  0  0  0  0
    7.9059   -3.1369   -2.8581 H   0  0  0  0  0  0  0  0  0  0  0  0
   12.7653   -1.9217   -8.8547 H   0  0  0  0  0  0  0  0  0  0  0  0
  1  2  2  0  0  0  0
  2  3  1  0  0  0  0
  3  4  2  0  0  0  0
  3  5  1  0  0  0  0
  5  6  2  0  0  0  0
  6  7  1  0  0  0  0
  7  8  2  0  0  0  0
  8  9  1  0  0  0  0
  8 10  1  0  0  0  0
 10 11  2  0  0  0  0
 11 12  1  0  0  0  0
 12 13  2  0  0  0  0
 13 14  1  0  0  0  0
 14 15  3  0  0  0  0
 13 16  1  0  0  0  0
 16 17  3  0  0  0  0
  1 18  1  0  0  0  0
 18 19  2  0  0  0  0
 19 20  1  0  0  0  0
 20 21  1  0  0  0  0
 21 22  2  0  0  0  0
 22 23  1  0  0  0  0
 23 24  2  0  0  0  0
 24 25  1  0  0  0  0
 24 26  1  0  0  0  0
 26 27  2  0  0  0  0
 20 28  1  0  0  0  0
 28 29  2  0  0  0  0
 29 30  1  0  0  0  0
 30 31  2  0  0  0  0
 31 32  1  0  0  0  0
 31 33  1  0  0  0  0
 33 34  2  0  0  0  0
 19 35  1  0  0  0  0
 35 36  1  0  0  0  0
 36 37  1  0  0  0  0
 37 38  2  0  0  0  0
 38 39  1  0  0  0  0
 39 40  1  0  0  0  0
 40 41  2  0  0  0  0
 41 42  1  0  0  0  0
 42 43  2  0  0  0  0
 43 44  1  0  0  0  0
 43 45  1  0  0  0  0
 45 46  2  0  0  0  0
 39 47  1  0  0  0  0
 47 48  2  0  0  0  0
 48 49  1  0  0  0  0
 49 50  2  0  0  0  0
 50 51  1  0  0  0  0
 50 52  1  0  0  0  0
 52 53  2  0  0  0  0
 38 54  1  0  0  0  0
 54 55  1  0  0  0  0
 37 56  1  0  0  0  0
 56 57  2  0  0  0  0
 57 58  1  0  0  0  0
 58 59  1  0  0  0  0
 57 60  1  0  0  0  0
 60 61  1  0  0  0  0
 61 62  1  0  0  0  0
 62 63  1  0  0  0  0
 63 64  1  0  0  0  0
 64 65  1  0  0  0  0
 65 66  2  0  0  0  0
 66 67  1  0  0  0  0
 67 68  1  0  0  0  0
 65 69  1  0  0  0  0
 69 70  1  0  0  0  0
 70 71  1  0  0  0  0
 71 72  1  0  0  0  0
 72 73  1  0  0  0  0
 73 74  1  0  0  0  0
 74 75  1  0  0  0  0
 73 76  2  0  0  0  0
 76 77  1  0  0  0  0
 77 78  1  0  0  0  0
 78 79  1  0  0  0  0
 79 80  1  0  0  0  0
 80 81  1  0  0  0  0
 81 82  1  0  0  0  0
 82 83  1  0  0  0  0
 83 84  1  0  0  0  0
 84 85  1  0  0  0  0
 85 86  1  0  0  0  0
 83 87  1  0  0  0  0
 87 88  1  0  0  0  0
 80 89  1  0  0  0  0
 89 90  1  0  0  0  0
 76 91  1  0  0  0  0
 91 92  2  0  0  0  0
 92 93  1  0  0  0  0
 92 94  1  0  0  0  0
 94 95  1  0  0  0  0
 94 96  2  0  0  0  0
 96 97  1  0  0  0  0
 97 98  2  0  0  0  0
 98 99  1  0  0  0  0
 99100  1  0  0  0  0
100101  1  0  0  0  0
101102  1  0  0  0  0
 99103  2  0  0  0  0
103104  1  0  0  0  0
104105  2  0  0  0  0
103106  1  0  0  0  0
 96107  1  0  0  0  0
107108  2  0  0  0  0
108109  1  0  0  0  0
109110  3  0  0  0  0
108111  1  0  0  0  0
111112  3  0  0  0  0
 12  2  1  0  0  0  0
 55 18  1  0  0  0  0
 86 56  1  0  0  0  0
105 91  1  0  0  0  0
 11  5  1  0  0  0  0
 27 21  1  0  0  0  0
 34 28  1  0  0  0  0
 54 35  2  0  0  0  0
 85 60  2  0  0  0  0
105 97  1  0  0  0  0
 46 40  1  0  0  0  0
 53 47  1  0  0  0  0
 84 62  2  0  0  0  0
 82 63  2  0  0  0  0
 68 64  2  0  0  0  0
 81 69  2  0  0  0  0
 79 70  2  0  0  0  0
 78 72  2  0  0  0  0
  1113  1  0  0  0  0
  6114  1  0  0  0  0
  7115  1  0  0  0  0
 10116  1  0  0  0  0
 22117  1  0  0  0  0
 23118  1  0  0  0  0
 25119  1  0  0  0  0
 25120  1  0  0  0  0
 25121  1  0  0  0  0
 26122  1  0  0  0  0
 27123  1  0  0  0  0
 29124  1  0  0  0  0
 30125  1  0  0  0  0
 32126  1  0  0  0  0
 32127  1  0  0  0  0
 32128  1  0  0  0  0
 33129  1  0  0  0  0
 34130  1  0  0  0  0
 41131  1  0  0  0  0
 42132  1  0  0  0  0
 44133  1  0  0  0  0
 44134  1  0  0  0  0
 44135  1  0  0  0  0
 45136  1  0  0  0  0
 46137  1  0  0  0  0
 48138  1  0  0  0  0
 49139  1  0  0  0  0
 51140  1  0  0  0  0
 51141  1  0  0  0  0
 51142  1  0  0  0  0
 52143  1  0  0  0  0
 53144  1  0  0  0  0
 58145  1  0  0  0  0
 58146  1  0  0  0  0
 59147  1  0  0  0  0
 59148  1  0  0  0  0
 59149  1  0  0  0  0
 74150  1  0  0  0  0
 74151  1  0  0  0  0
 75152  1  0  0  0  0
 75153  1  0  0  0  0
 75154  1  0  0  0  0
 87155  1  0  0  0  0
 87156  1  0  0  0  0
 88157  1  0  0  0  0
 88158  1  0  0  0  0
 88159  1  0  0  0  0
 89160  1  0  0  0  0
 89161  1  0  0  0  0
 90162  1  0  0  0  0
 90163  1  0  0  0  0
 90164  1  0  0  0  0
101165  1  0  0  0  0
101166  1  0  0  0  0
102167  1  0  0  0  0
102168  1  0  0  0  0
102169  1  0  0  0  0
106170  1  0  0  0  0
106171  1  0  0  0  0
106172  1  0  0  0  0
107173  1  0  0  0  0
M  END
