173

C         -7.73020       -2.31470        4.48570
C         -8.00200       -2.46850        5.80890
C         -8.45000       -3.78640        6.33860
O         -8.84040       -4.73380        5.69620
C         -8.23780       -3.69750        7.79830
C         -8.35090       -4.68200        8.76230
C         -8.05670       -4.35950       10.07780
C         -7.65540       -3.06820       10.40350
Cl        -7.27200       -2.69770       12.04120
C         -7.55010       -2.06260        9.44820
C         -7.84830       -2.38860        8.13760
C         -7.83890       -1.57190        6.92780
C         -7.94480       -0.20720        6.88740
C         -7.99470        0.60750        8.03540
N         -8.06120        1.30850        8.94170
C         -8.13550        0.51040        5.68910
N         -8.32570        1.12130        4.73600
C         -6.84140       -1.38530        3.88740
C         -5.67030       -0.85410        4.41690
N         -5.15850       -1.14590        5.70060
C         -4.17290       -2.16410        5.67580
C         -4.48640       -3.40530        5.13130
C         -3.53380       -4.40550        5.08260
C         -2.24940       -4.19810        5.56680
C         -1.21980       -5.28530        5.52860
C         -1.94190       -2.95090        6.09990
C         -2.88230       -1.94230        6.14980
C         -5.07930       -0.14470        6.67650
C         -5.30580        1.20020        6.39260
C         -5.24490        2.14400        7.40090
C         -4.96430        1.78490        8.71170
C         -4.94270        2.80910        9.80150
C         -4.74910        0.43860        8.98960
C         -4.81170       -0.51490        7.99600
C         -4.93630       -0.17220        3.43020
S         -3.45640        0.71490        3.45980
C         -3.63270        1.08350        1.75170
C         -4.78860        0.55800        1.19730
N         -5.19320        0.72860       -0.11120
C         -5.95530       -0.27250       -0.73510
C         -6.99920        0.07620       -1.58820
C         -7.75630       -0.90580       -2.19260
C         -7.50330       -2.25400       -1.96210
C         -8.35730       -3.31020       -2.59300
C         -6.45420       -2.59240       -1.11800
C         -5.68140       -1.61930       -0.51400
C         -4.82290        1.87340       -0.83640
C         -4.83840        3.13060       -0.23840
C         -4.38590        4.23480       -0.93150
C         -3.92750        4.12370       -2.23910
C         -3.37710        5.31880       -2.95400
C         -3.97720        2.87680       -2.84960
C         -4.41210        1.76060       -2.16130
C         -5.52760       -0.15880        2.17270
S         -7.01540       -1.02980        2.17810
C         -2.60720        1.84890        1.09530
C         -2.19240        3.12330        1.38350
C         -2.72660        3.98000        2.48480
C         -1.76380        3.99540        3.67280
C         -1.17210        3.53580        0.50350
S         -0.28560        5.03110        0.34370
C          0.65260        4.31700       -0.92320
C          1.75150        4.63470       -1.74580
C          2.45960        5.83610       -1.99600
C          3.51860        5.82960       -2.98310
N          4.07660        7.00340       -3.20190
Se         3.30690        8.20370       -2.16510
N          2.21730        7.01330       -1.45420
C          3.92050        4.59100       -3.54320
C          5.04180        4.21150       -4.30580
S          6.40840        4.93710       -5.07980
C          7.01850        3.33900       -5.45510
C          8.20230        2.90130       -6.07060
C          9.27060        3.86660       -6.47920
C         10.52490        3.70710       -5.61850
C          8.27030        1.51830       -6.07720
S          6.88360        0.76770       -5.30220
C          6.18090        2.31230       -5.01110
C          5.04870        2.81330       -4.36060
N          3.95430        2.30800       -3.70250
C          3.24830        3.38830       -3.21080
C          2.05620        3.44920       -2.45810
N          1.12290        2.47430       -2.16260
C          0.28050        3.00070       -1.21560
C         -0.78500        2.56490       -0.41720
S         -1.71900        1.12390       -0.24100
C          0.68860        1.41350       -3.04800
C         -0.61940        1.78270       -3.74590
C          4.00950        0.97790       -3.13190
C          5.11420        0.87500       -2.08000
C          9.30350        0.63680       -6.55310
C         10.00730        0.82780       -7.73750
F          9.67140        1.82080       -8.57990
C         11.04680       -0.01330       -8.12250
F         11.69450        0.26330       -9.26640
C         11.45650       -1.10290       -7.36030
C         10.67800       -1.39980       -6.20770
N         10.89610       -2.55170       -5.54040
C         10.16200       -2.81630       -4.48870
O         10.28600       -3.95270       -3.82560
C         11.26880       -4.88780       -4.27040
C         11.03030       -6.19930       -3.54490
C          9.16770       -1.88930       -4.01820
N          8.92860       -0.80600       -4.69110
C          9.63090       -0.53570       -5.81150
C          8.39600       -2.16840       -2.77860
C         12.56760       -1.90310       -7.78940
C         13.40660       -2.59720       -6.97980
C         14.43270       -3.40260       -7.52850
N         15.25250       -4.07230       -7.96790
C         13.43530       -2.53250       -5.56940
N         13.59810       -2.47700       -4.43410
H         -8.15050       -3.06490        3.82310
H         -8.65980       -5.67860        8.48770
H         -8.13200       -5.10400       10.85460
H         -7.23020       -1.07260        9.72970
H         -5.47850       -3.59080        4.74920
H         -3.79870       -5.36380        4.65970
H         -0.25110       -4.88820        5.23180
H         -1.10880       -5.73010        6.51790
H         -1.50800       -6.06990        4.83360
H         -0.94420       -2.76190        6.46940
H         -2.61830       -0.97410        6.54890
H         -5.53140        1.51440        5.38530
H         -5.42440        3.18130        7.15950
H         -5.95780        2.96680       10.16630
H         -4.56450        3.76030        9.43410
H         -4.32810        2.47900       10.63570
H         -4.53940        0.13060       10.00390
H         -4.65490       -1.55840        8.22930
H         -7.21130        1.11970       -1.76860
H         -8.56620       -0.62150       -2.84870
H         -9.24780       -3.47820       -1.98640
H         -8.68180       -3.00550       -3.58550
H         -7.81920       -4.25190       -2.66990
H         -6.23160       -3.63350       -0.93390
H         -4.85450       -1.90060        0.12210
H         -5.20280        3.23470        0.77240
H         -4.38570        5.20110       -0.44890
H         -3.28490        5.12850       -4.02040
H         -2.38900        5.56390       -2.56210
H         -4.01620        6.18660       -2.80460
H         -3.65740        2.77250       -3.87670
H         -4.41920        0.79200       -2.63940
H         -2.84880        4.99710        2.10640
H         -3.69920        3.60780        2.80950
H         -1.64040        2.99090        4.07200
H         -0.79100        4.37190        3.36600
H         -2.15210        4.63610        4.46000
H          8.87240        4.87510       -6.34960
H          9.52810        3.74500       -7.53030
H         11.26960        4.44350       -5.90890
H         10.95600        2.71490       -5.73510
H         10.28360        3.85400       -4.56810
H          0.54810        0.49730       -2.46450
H          1.45400        1.25460       -3.80730
H         -1.42320        1.90390       -3.02520
H         -0.89450        0.99530       -4.44240
H         -0.49980        2.71300       -4.29720
H          4.20020        0.26750       -3.94190
H          3.05910        0.74370       -2.65850
H          5.10230       -0.11680       -1.63630
H          4.95270        1.61100       -1.29520
H          6.09060        1.04630       -2.52450
H         11.18420       -5.00740       -5.35610
H         12.26120       -4.48420       -4.04300
H         11.77840       -6.92420       -3.85110
H         11.10090       -6.04880       -2.47130
H         10.04230       -6.58780       -3.77840
H          9.07320       -2.21240       -1.92730
H          7.65900       -1.38610       -2.62530
H          7.90590       -3.13690       -2.85810
H         12.76530       -1.92170       -8.85470
