
  xtb     02082222513D
 energy: -341.164873796818 gnorm: 0.000675121102 xtb: 6.4.1 (unknown)
201222  0     0  0            999 V2000
   -4.4474    2.5547   -1.1370 C   0  0  0  0  0  0  0  0  0  0  0  0
   -4.6220    1.3304   -1.7434 C   0  0  0  0  0  0  0  0  0  0  0  0
   -3.6142    0.2734   -1.8822 C   0  0  0  0  0  0  0  0  0  0  0  0
   -2.4109    0.3527   -1.7026 O   0  0  0  0  0  0  0  0  0  0  0  0
   -4.3514   -0.9416   -2.2734 C   0  0  0  0  0  0  0  0  0  0  0  0
   -3.8702   -2.2176   -2.4953 C   0  0  0  0  0  0  0  0  0  0  0  0
   -4.7627   -3.2147   -2.8579 C   0  0  0  0  0  0  0  0  0  0  0  0
   -6.1117   -2.9073   -2.9947 C   0  0  0  0  0  0  0  0  0  0  0  0
   -7.2093   -4.1550   -3.4503 Cl  0  0  0  0  0  0  0  0  0  0  0  0
   -6.6106   -1.6241   -2.7793 C   0  0  0  0  0  0  0  0  0  0  0  0
   -5.7164   -0.6342   -2.4109 C   0  0  0  0  0  0  0  0  0  0  0  0
   -5.9054    0.7904   -2.1282 C   0  0  0  0  0  0  0  0  0  0  0  0
   -7.0972    1.4671   -2.2127 C   0  0  0  0  0  0  0  0  0  0  0  0
   -7.2512    2.8619   -2.0945 C   0  0  0  0  0  0  0  0  0  0  0  0
   -7.4601    3.9917   -2.0514 N   0  0  0  0  0  0  0  0  0  0  0  0
   -8.3439    0.8527   -2.4422 C   0  0  0  0  0  0  0  0  0  0  0  0
   -9.3984    0.4190   -2.5808 N   0  0  0  0  0  0  0  0  0  0  0  0
   -3.3093    3.1213   -0.5613 C   0  0  0  0  0  0  0  0  0  0  0  0
   -3.3340    4.2293    0.3249 C   0  0  0  0  0  0  0  0  0  0  0  0
   -4.4539    4.8604    0.7979 N   0  0  0  0  0  0  0  0  0  0  0  0
   -4.3468    6.2167    1.1623 C   0  0  0  0  0  0  0  0  0  0  0  0
   -4.9268    6.6838    2.3385 C   0  0  0  0  0  0  0  0  0  0  0  0
   -4.7971    8.0112    2.6909 C   0  0  0  0  0  0  0  0  0  0  0  0
   -4.0897    8.9032    1.8910 C   0  0  0  0  0  0  0  0  0  0  0  0
   -3.9578   10.3398    2.2917 C   0  0  0  0  0  0  0  0  0  0  0  0
   -3.5265    8.4301    0.7133 C   0  0  0  0  0  0  0  0  0  0  0  0
   -3.6537    7.1053    0.3453 C   0  0  0  0  0  0  0  0  0  0  0  0
   -5.6678    4.1880    1.0399 C   0  0  0  0  0  0  0  0  0  0  0  0
   -5.6740    2.8978    1.5661 C   0  0  0  0  0  0  0  0  0  0  0  0
   -6.8694    2.2318    1.7448 C   0  0  0  0  0  0  0  0  0  0  0  0
   -8.0833    2.8367    1.4352 C   0  0  0  0  0  0  0  0  0  0  0  0
   -9.3740    2.0922    1.5774 C   0  0  0  0  0  0  0  0  0  0  0  0
   -8.0673    4.1440    0.9645 C   0  0  0  0  0  0  0  0  0  0  0  0
   -6.8778    4.8157    0.7605 C   0  0  0  0  0  0  0  0  0  0  0  0
   -2.0309    4.5750    0.7274 C   0  0  0  0  0  0  0  0  0  0  0  0
   -1.3785    5.6510    1.9328 S   0  0  0  0  0  0  0  0  0  0  0  0
    0.2190    4.9720    1.6915 C   0  0  0  0  0  0  0  0  0  0  0  0
    0.2465    4.0423    0.6646 C   0  0  0  0  0  0  0  0  0  0  0  0
    1.4127    3.4116    0.2461 N   0  0  0  0  0  0  0  0  0  0  0  0
    2.5204    4.2006   -0.1066 C   0  0  0  0  0  0  0  0  0  0  0  0
    3.8162    3.7636    0.1585 C   0  0  0  0  0  0  0  0  0  0  0  0
    4.8988    4.5315   -0.2164 C   0  0  0  0  0  0  0  0  0  0  0  0
    4.7257    5.7541   -0.8555 C   0  0  0  0  0  0  0  0  0  0  0  0
    5.9106    6.5682   -1.2739 C   0  0  0  0  0  0  0  0  0  0  0  0
    3.4313    6.1873   -1.1078 C   0  0  0  0  0  0  0  0  0  0  0  0
    2.3396    5.4262   -0.7402 C   0  0  0  0  0  0  0  0  0  0  0  0
    1.4428    2.0259    0.0608 C   0  0  0  0  0  0  0  0  0  0  0  0
    2.2602    1.4610   -0.9176 C   0  0  0  0  0  0  0  0  0  0  0  0
    2.3498    0.0927   -1.0441 C   0  0  0  0  0  0  0  0  0  0  0  0
    1.6186   -0.7577   -0.2219 C   0  0  0  0  0  0  0  0  0  0  0  0
    1.7437   -2.2404   -0.3834 C   0  0  0  0  0  0  0  0  0  0  0  0
    0.7713   -0.1905    0.7182 C   0  0  0  0  0  0  0  0  0  0  0  0
    0.6817    1.1817    0.8653 C   0  0  0  0  0  0  0  0  0  0  0  0
   -1.0422    3.7953    0.1405 C   0  0  0  0  0  0  0  0  0  0  0  0
   -1.6678    2.5410   -0.8571 S   0  0  0  0  0  0  0  0  0  0  0  0
    1.3183    4.9468    2.6450 C   0  0  0  0  0  0  0  0  0  0  0  0
    2.5829    5.5022    2.6432 C   0  0  0  0  0  0  0  0  0  0  0  0
    2.8691    6.8079    2.0630 C   0  0  0  0  0  0  0  0  0  0  0  0
    4.1738    7.2617    1.8780 C   0  0  0  0  0  0  0  0  0  0  0  0
    4.4046    8.5043    1.3216 C   0  0  0  0  0  0  0  0  0  0  0  0
    3.3486    9.3106    0.9333 C   0  0  0  0  0  0  0  0  0  0  0  0
    2.0400    8.8894    1.1298 C   0  0  0  0  0  0  0  0  0  0  0  0
    0.8703    9.7313    0.7040 C   0  0  0  0  0  0  0  0  0  0  0  0
    0.2083    9.1434   -0.5431 C   0  0  0  0  0  0  0  0  0  0  0  0
    1.8169    7.6501    1.7054 C   0  0  0  0  0  0  0  0  0  0  0  0
    3.5266    4.6046    3.2304 C   0  0  0  0  0  0  0  0  0  0  0  0
    5.2791    4.4552    3.1444 S   0  0  0  0  0  0  0  0  0  0  0  0
    5.1689    2.7601    3.5292 C   0  0  0  0  0  0  0  0  0  0  0  0
    5.8838    1.5627    3.3118 C   0  0  0  0  0  0  0  0  0  0  0  0
    7.1075    1.2842    2.6558 C   0  0  0  0  0  0  0  0  0  0  0  0
    7.3315   -0.0332    2.1034 C   0  0  0  0  0  0  0  0  0  0  0  0
    8.4532   -0.0985    1.4069 N   0  0  0  0  0  0  0  0  0  0  0  0
    9.1768    1.3495    1.4457 S   0  0  0  0  0  0  0  0  0  0  0  0
    8.0765    2.1279    2.3443 N   0  0  0  0  0  0  0  0  0  0  0  0
    6.3811   -1.0572    2.3297 C   0  0  0  0  0  0  0  0  0  0  0  0
    6.1609   -2.3409    1.7816 C   0  0  0  0  0  0  0  0  0  0  0  0
    6.7384   -3.3487    0.4890 S   0  0  0  0  0  0  0  0  0  0  0  0
    5.3310   -4.3794    0.6781 C   0  0  0  0  0  0  0  0  0  0  0  0
    4.7519   -5.3649   -0.1448 C   0  0  0  0  0  0  0  0  0  0  0  0
    5.4017   -5.8476   -1.3661 C   0  0  0  0  0  0  0  0  0  0  0  0
    6.7231   -6.2804   -1.3124 C   0  0  0  0  0  0  0  0  0  0  0  0
    7.3468   -6.7310   -2.4609 C   0  0  0  0  0  0  0  0  0  0  0  0
    6.6647   -6.7474   -3.6644 C   0  0  0  0  0  0  0  0  0  0  0  0
    5.3508   -6.3001   -3.7390 C   0  0  0  0  0  0  0  0  0  0  0  0
    4.6228   -6.2667   -5.0518 C   0  0  0  0  0  0  0  0  0  0  0  0
    4.8414   -4.9235   -5.7507 C   0  0  0  0  0  0  0  0  0  0  0  0
    4.7332   -5.8427   -2.5859 C   0  0  0  0  0  0  0  0  0  0  0  0
    3.4785   -5.6996    0.2923 C   0  0  0  0  0  0  0  0  0  0  0  0
    3.0240   -4.8489    1.7589 S   0  0  0  0  0  0  0  0  0  0  0  0
    4.5168   -3.9903    1.7445 C   0  0  0  0  0  0  0  0  0  0  0  0
    5.0002   -2.8439    2.3773 C   0  0  0  0  0  0  0  0  0  0  0  0
    4.5067   -1.9547    3.2994 N   0  0  0  0  0  0  0  0  0  0  0  0
    5.2971   -0.8212    3.2132 C   0  0  0  0  0  0  0  0  0  0  0  0
    4.9777    0.5023    3.5842 C   0  0  0  0  0  0  0  0  0  0  0  0
    3.7598    1.0285    3.9540 N   0  0  0  0  0  0  0  0  0  0  0  0
    3.8692    2.3884    3.8804 C   0  0  0  0  0  0  0  0  0  0  0  0
    2.9525    3.4308    3.7050 C   0  0  0  0  0  0  0  0  0  0  0  0
    1.2400    3.4414    3.5629 S   0  0  0  0  0  0  0  0  0  0  0  0
    2.4591    0.4008    3.9693 C   0  0  0  0  0  0  0  0  0  0  0  0
    1.8371    0.4189    5.3631 C   0  0  0  0  0  0  0  0  0  0  0  0
    3.8245   -2.4383    4.4833 C   0  0  0  0  0  0  0  0  0  0  0  0
    4.6539   -3.5026    5.2008 C   0  0  0  0  0  0  0  0  0  0  0  0
    2.4720   -6.4906   -0.3548 C   0  0  0  0  0  0  0  0  0  0  0  0
    1.1211   -6.0776   -0.2814 C   0  0  0  0  0  0  0  0  0  0  0  0
    0.5460   -5.0491    0.3598 N   0  0  0  0  0  0  0  0  0  0  0  0
   -0.6970   -5.0815   -0.0275 N   0  0  0  0  0  0  0  0  0  0  0  0
   -1.6524   -4.1013    0.4062 C   0  0  0  0  0  0  0  0  0  0  0  0
   -1.7707   -4.1019    1.9247 C   0  0  0  0  0  0  0  0  0  0  0  0
   -1.0248   -6.0289   -0.8611 N   0  0  0  0  0  0  0  0  0  0  0  0
    0.1136   -6.7039   -1.0630 C   0  0  0  0  0  0  0  0  0  0  0  0
    0.3922   -7.8078   -1.9119 C   0  0  0  0  0  0  0  0  0  0  0  0
    1.7218   -8.2414   -1.8953 C   0  0  0  0  0  0  0  0  0  0  0  0
    2.7127   -7.6063   -1.1557 C   0  0  0  0  0  0  0  0  0  0  0  0
   -0.6967   -8.2650   -2.7006 C   0  0  0  0  0  0  0  0  0  0  0  0
   -0.8628   -9.2771   -3.6054 C   0  0  0  0  0  0  0  0  0  0  0  0
    0.0522  -10.3845   -3.9651 C   0  0  0  0  0  0  0  0  0  0  0  0
    1.2044  -10.5666   -3.6293 O   0  0  0  0  0  0  0  0  0  0  0  0
   -0.7343  -11.2824   -4.8350 C   0  0  0  0  0  0  0  0  0  0  0  0
   -0.3514  -12.4854   -5.3969 C   0  0  0  0  0  0  0  0  0  0  0  0
   -1.2676  -13.1757   -6.1736 C   0  0  0  0  0  0  0  0  0  0  0  0
   -2.5402  -12.6507   -6.3688 C   0  0  0  0  0  0  0  0  0  0  0  0
   -3.6699  -13.5275   -7.3305 Cl  0  0  0  0  0  0  0  0  0  0  0  0
   -2.9361  -11.4384   -5.8126 C   0  0  0  0  0  0  0  0  0  0  0  0
   -2.0173  -10.7492   -5.0385 C   0  0  0  0  0  0  0  0  0  0  0  0
   -2.1086   -9.4727   -4.3310 C   0  0  0  0  0  0  0  0  0  0  0  0
   -3.1673   -8.6056   -4.4160 C   0  0  0  0  0  0  0  0  0  0  0  0
   -3.2666   -7.3203   -3.8415 C   0  0  0  0  0  0  0  0  0  0  0  0
   -3.4643   -6.2550   -3.4571 N   0  0  0  0  0  0  0  0  0  0  0  0
   -4.3429   -8.8677   -5.1535 C   0  0  0  0  0  0  0  0  0  0  0  0
   -5.3261   -9.0104   -5.7286 N   0  0  0  0  0  0  0  0  0  0  0  0
   -5.3428    3.1515   -1.0235 H   0  0  0  0  0  0  0  0  0  0  0  0
   -2.8163   -2.4253   -2.3930 H   0  0  0  0  0  0  0  0  0  0  0  0
   -4.4181   -4.2211   -3.0404 H   0  0  0  0  0  0  0  0  0  0  0  0
   -7.6637   -1.4312   -2.9012 H   0  0  0  0  0  0  0  0  0  0  0  0
   -5.4682    5.9987    2.9739 H   0  0  0  0  0  0  0  0  0  0  0  0
   -5.2444    8.3622    3.6095 H   0  0  0  0  0  0  0  0  0  0  0  0
   -3.2446   10.8581    1.6561 H   0  0  0  0  0  0  0  0  0  0  0  0
   -3.6296   10.4195    3.3266 H   0  0  0  0  0  0  0  0  0  0  0  0
   -4.9211   10.8429    2.2094 H   0  0  0  0  0  0  0  0  0  0  0  0
   -2.9843    9.1070    0.0700 H   0  0  0  0  0  0  0  0  0  0  0  0
   -3.2211    6.7535   -0.5800 H   0  0  0  0  0  0  0  0  0  0  0  0
   -4.7393    2.4158    1.8138 H   0  0  0  0  0  0  0  0  0  0  0  0
   -6.8599    1.2245    2.1363 H   0  0  0  0  0  0  0  0  0  0  0  0
   -9.2754    1.2675    2.2792 H   0  0  0  0  0  0  0  0  0  0  0  0
  -10.1677    2.7542    1.9157 H   0  0  0  0  0  0  0  0  0  0  0  0
   -9.6726    1.6820    0.6115 H   0  0  0  0  0  0  0  0  0  0  0  0
   -8.9981    4.6357    0.7268 H   0  0  0  0  0  0  0  0  0  0  0  0
   -6.8797    5.8190    0.3638 H   0  0  0  0  0  0  0  0  0  0  0  0
    3.9688    2.8177    0.6593 H   0  0  0  0  0  0  0  0  0  0  0  0
    5.8967    4.1800    0.0027 H   0  0  0  0  0  0  0  0  0  0  0  0
    6.3034    6.1991   -2.2221 H   0  0  0  0  0  0  0  0  0  0  0  0
    5.6356    7.6120   -1.4029 H   0  0  0  0  0  0  0  0  0  0  0  0
    6.7045    6.4981   -0.5338 H   0  0  0  0  0  0  0  0  0  0  0  0
    3.2720    7.1353   -1.6004 H   0  0  0  0  0  0  0  0  0  0  0  0
    1.3398    5.7759   -0.9511 H   0  0  0  0  0  0  0  0  0  0  0  0
    2.8254    2.1024   -1.5765 H   0  0  0  0  0  0  0  0  0  0  0  0
    2.9966   -0.3278   -1.8006 H   0  0  0  0  0  0  0  0  0  0  0  0
    2.7877   -2.5242   -0.5099 H   0  0  0  0  0  0  0  0  0  0  0  0
    1.2066   -2.5667   -1.2749 H   0  0  0  0  0  0  0  0  0  0  0  0
    1.3395   -2.7730    0.4731 H   0  0  0  0  0  0  0  0  0  0  0  0
    0.1771   -0.8282    1.3581 H   0  0  0  0  0  0  0  0  0  0  0  0
    0.0241    1.6025    1.6127 H   0  0  0  0  0  0  0  0  0  0  0  0
    5.0099    6.6446    2.1626 H   0  0  0  0  0  0  0  0  0  0  0  0
    5.4200    8.8462    1.1863 H   0  0  0  0  0  0  0  0  0  0  0  0
    3.5412   10.2768    0.4889 H   0  0  0  0  0  0  0  0  0  0  0  0
    0.1351    9.7725    1.5115 H   0  0  0  0  0  0  0  0  0  0  0  0
    1.2037   10.7490    0.4928 H   0  0  0  0  0  0  0  0  0  0  0  0
    0.9318    9.0573   -1.3509 H   0  0  0  0  0  0  0  0  0  0  0  0
   -0.6069    9.7809   -0.8782 H   0  0  0  0  0  0  0  0  0  0  0  0
   -0.1894    8.1537   -0.3306 H   0  0  0  0  0  0  0  0  0  0  0  0
    0.7997    7.3424    1.8905 H   0  0  0  0  0  0  0  0  0  0  0  0
    7.2498   -6.2762   -0.3698 H   0  0  0  0  0  0  0  0  0  0  0  0
    8.3698   -7.0739   -2.4155 H   0  0  0  0  0  0  0  0  0  0  0  0
    7.1555   -7.1082   -4.5566 H   0  0  0  0  0  0  0  0  0  0  0  0
    3.5543   -6.4183   -4.8845 H   0  0  0  0  0  0  0  0  0  0  0  0
    4.9850   -7.0710   -5.6949 H   0  0  0  0  0  0  0  0  0  0  0  0
    5.9011   -4.7606   -5.9342 H   0  0  0  0  0  0  0  0  0  0  0  0
    4.3157   -4.8998   -6.7023 H   0  0  0  0  0  0  0  0  0  0  0  0
    4.4734   -4.1097   -5.1300 H   0  0  0  0  0  0  0  0  0  0  0  0
    3.7185   -5.4736   -2.6344 H   0  0  0  0  0  0  0  0  0  0  0  0
    2.5433   -0.6081    3.5734 H   0  0  0  0  0  0  0  0  0  0  0  0
    1.8117    0.9599    3.2857 H   0  0  0  0  0  0  0  0  0  0  0  0
    0.8804   -0.0948    5.3448 H   0  0  0  0  0  0  0  0  0  0  0  0
    1.6712    1.4445    5.6827 H   0  0  0  0  0  0  0  0  0  0  0  0
    2.4803   -0.0645    6.0952 H   0  0  0  0  0  0  0  0  0  0  0  0
    3.6684   -1.6011    5.1608 H   0  0  0  0  0  0  0  0  0  0  0  0
    2.8590   -2.8642    4.1902 H   0  0  0  0  0  0  0  0  0  0  0  0
    5.6332   -3.1063    5.4610 H   0  0  0  0  0  0  0  0  0  0  0  0
    4.7882   -4.3773    4.5701 H   0  0  0  0  0  0  0  0  0  0  0  0
    4.1467   -3.8073    6.1122 H   0  0  0  0  0  0  0  0  0  0  0  0
   -2.5992   -4.3557   -0.0730 H   0  0  0  0  0  0  0  0  0  0  0  0
   -1.3203   -3.1176    0.0585 H   0  0  0  0  0  0  0  0  0  0  0  0
   -2.4514   -3.3167    2.2406 H   0  0  0  0  0  0  0  0  0  0  0  0
   -0.7944   -3.9280    2.3707 H   0  0  0  0  0  0  0  0  0  0  0  0
   -2.1504   -5.0572    2.2787 H   0  0  0  0  0  0  0  0  0  0  0  0
    1.9989   -9.0909   -2.4975 H   0  0  0  0  0  0  0  0  0  0  0  0
    3.7211   -7.9858   -1.2186 H   0  0  0  0  0  0  0  0  0  0  0  0
   -1.5762   -7.6538   -2.5273 H   0  0  0  0  0  0  0  0  0  0  0  0
    0.6422  -12.8698   -5.2262 H   0  0  0  0  0  0  0  0  0  0  0  0
   -1.0053  -14.1182   -6.6274 H   0  0  0  0  0  0  0  0  0  0  0  0
   -3.9332  -11.0707   -5.9884 H   0  0  0  0  0  0  0  0  0  0  0  0
  1  2  2  0  0  0  0
  2  3  1  0  0  0  0
  3  4  2  0  0  0  0
  3  5  1  0  0  0  0
  5  6  2  0  0  0  0
  6  7  1  0  0  0  0
  7  8  2  0  0  0  0
  8  9  1  0  0  0  0
  8 10  1  0  0  0  0
 10 11  2  0  0  0  0
 11 12  1  0  0  0  0
 12 13  2  0  0  0  0
 13 14  1  0  0  0  0
 14 15  3  0  0  0  0
 13 16  1  0  0  0  0
 16 17  3  0  0  0  0
  1 18  1  0  0  0  0
 18 19  2  0  0  0  0
 19 20  1  0  0  0  0
 20 21  1  0  0  0  0
 21 22  2  0  0  0  0
 22 23  1  0  0  0  0
 23 24  2  0  0  0  0
 24 25  1  0  0  0  0
 24 26  1  0  0  0  0
 26 27  2  0  0  0  0
 20 28  1  0  0  0  0
 28 29  2  0  0  0  0
 29 30  1  0  0  0  0
 30 31  2  0  0  0  0
 31 32  1  0  0  0  0
 31 33  1  0  0  0  0
 33 34  2  0  0  0  0
 19 35  1  0  0  0  0
 35 36  1  0  0  0  0
 36 37  1  0  0  0  0
 37 38  2  0  0  0  0
 38 39  1  0  0  0  0
 39 40  1  0  0  0  0
 40 41  2  0  0  0  0
 41 42  1  0  0  0  0
 42 43  2  0  0  0  0
 43 44  1  0  0  0  0
 43 45  1  0  0  0  0
 45 46  2  0  0  0  0
 39 47  1  0  0  0  0
 47 48  2  0  0  0  0
 48 49  1  0  0  0  0
 49 50  2  0  0  0  0
 50 51  1  0  0  0  0
 50 52  1  0  0  0  0
 52 53  2  0  0  0  0
 38 54  1  0  0  0  0
 54 55  1  0  0  0  0
 37 56  1  0  0  0  0
 56 57  2  0  0  0  0
 57 58  1  0  0  0  0
 58 59  2  0  0  0  0
 59 60  1  0  0  0  0
 60 61  2  0  0  0  0
 61 62  1  0  0  0  0
 62 63  1  0  0  0  0
 63 64  1  0  0  0  0
 62 65  2  0  0  0  0
 57 66  1  0  0  0  0
 66 67  1  0  0  0  0
 67 68  1  0  0  0  0
 68 69  1  0  0  0  0
 69 70  1  0  0  0  0
 70 71  1  0  0  0  0
 71 72  2  0  0  0  0
 72 73  1  0  0  0  0
 73 74  1  0  0  0  0
 71 75  1  0  0  0  0
 75 76  1  0  0  0  0
 76 77  1  0  0  0  0
 77 78  1  0  0  0  0
 78 79  1  0  0  0  0
 79 80  1  0  0  0  0
 80 81  2  0  0  0  0
 81 82  1  0  0  0  0
 82 83  2  0  0  0  0
 83 84  1  0  0  0  0
 84 85  1  0  0  0  0
 85 86  1  0  0  0  0
 84 87  2  0  0  0  0
 79 88  2  0  0  0  0
 88 89  1  0  0  0  0
 89 90  1  0  0  0  0
 90 91  1  0  0  0  0
 91 92  1  0  0  0  0
 92 93  1  0  0  0  0
 93 94  1  0  0  0  0
 94 95  1  0  0  0  0
 95 96  1  0  0  0  0
 96 97  1  0  0  0  0
 97 98  1  0  0  0  0
 95 99  1  0  0  0  0
 99100  1  0  0  0  0
 92101  1  0  0  0  0
101102  1  0  0  0  0
 88103  1  0  0  0  0
103104  1  0  0  0  0
104105  2  0  0  0  0
105106  1  0  0  0  0
106107  1  0  0  0  0
107108  1  0  0  0  0
106109  1  0  0  0  0
109110  2  0  0  0  0
110111  1  0  0  0  0
111112  2  0  0  0  0
112113  1  0  0  0  0
111114  1  0  0  0  0
114115  2  0  0  0  0
115116  1  0  0  0  0
116117  2  0  0  0  0
116118  1  0  0  0  0
118119  2  0  0  0  0
119120  1  0  0  0  0
120121  2  0  0  0  0
121122  1  0  0  0  0
121123  1  0  0  0  0
123124  2  0  0  0  0
124125  1  0  0  0  0
125126  2  0  0  0  0
126127  1  0  0  0  0
127128  3  0  0  0  0
126129  1  0  0  0  0
129130  3  0  0  0  0
 12  2  1  0  0  0  0
 55 18  1  0  0  0  0
 98 56  1  0  0  0  0
113103  2  0  0  0  0
125115  1  0  0  0  0
 11  5  1  0  0  0  0
 27 21  1  0  0  0  0
 34 28  1  0  0  0  0
 54 35  2  0  0  0  0
 65 58  1  0  0  0  0
 97 66  2  0  0  0  0
110104  1  0  0  0  0
124118  1  0  0  0  0
 46 40  1  0  0  0  0
 53 47  1  0  0  0  0
 96 68  2  0  0  0  0
 94 69  2  0  0  0  0
 74 70  2  0  0  0  0
 93 75  2  0  0  0  0
 91 76  2  0  0  0  0
 90 78  2  0  0  0  0
 87 80  1  0  0  0  0
  1131  1  0  0  0  0
  6132  1  0  0  0  0
  7133  1  0  0  0  0
 10134  1  0  0  0  0
 22135  1  0  0  0  0
 23136  1  0  0  0  0
 25137  1  0  0  0  0
 25138  1  0  0  0  0
 25139  1  0  0  0  0
 26140  1  0  0  0  0
 27141  1  0  0  0  0
 29142  1  0  0  0  0
 30143  1  0  0  0  0
 32144  1  0  0  0  0
 32145  1  0  0  0  0
 32146  1  0  0  0  0
 33147  1  0  0  0  0
 34148  1  0  0  0  0
 41149  1  0  0  0  0
 42150  1  0  0  0  0
 44151  1  0  0  0  0
 44152  1  0  0  0  0
 44153  1  0  0  0  0
 45154  1  0  0  0  0
 46155  1  0  0  0  0
 48156  1  0  0  0  0
 49157  1  0  0  0  0
 51158  1  0  0  0  0
 51159  1  0  0  0  0
 51160  1  0  0  0  0
 52161  1  0  0  0  0
 53162  1  0  0  0  0
 59163  1  0  0  0  0
 60164  1  0  0  0  0
 61165  1  0  0  0  0
 63166  1  0  0  0  0
 63167  1  0  0  0  0
 64168  1  0  0  0  0
 64169  1  0  0  0  0
 64170  1  0  0  0  0
 65171  1  0  0  0  0
 81172  1  0  0  0  0
 82173  1  0  0  0  0
 83174  1  0  0  0  0
 85175  1  0  0  0  0
 85176  1  0  0  0  0
 86177  1  0  0  0  0
 86178  1  0  0  0  0
 86179  1  0  0  0  0
 87180  1  0  0  0  0
 99181  1  0  0  0  0
 99182  1  0  0  0  0
100183  1  0  0  0  0
100184  1  0  0  0  0
100185  1  0  0  0  0
101186  1  0  0  0  0
101187  1  0  0  0  0
102188  1  0  0  0  0
102189  1  0  0  0  0
102190  1  0  0  0  0
107191  1  0  0  0  0
107192  1  0  0  0  0
108193  1  0  0  0  0
108194  1  0  0  0  0
108195  1  0  0  0  0
112196  1  0  0  0  0
113197  1  0  0  0  0
114198  1  0  0  0  0
119199  1  0  0  0  0
120200  1  0  0  0  0
123201  1  0  0  0  0
M  END
