249

C         -3.09000        2.06000       12.69030
C         -2.78630        0.98450       13.49040
C         -3.34440        0.90940       14.85910
O         -3.94470        1.77530       15.45720
C         -3.07120       -0.47380       15.31010
C         -3.46610       -1.10830       16.47090
C         -3.09940       -2.43170       16.66260
C         -2.33830       -3.08290       15.70030
Cl        -1.90550       -4.73410       15.95030
C         -1.91930       -2.45190       14.53360
C         -2.30480       -1.13870       14.33820
C         -2.04300       -0.21330       13.23540
C         -1.07960       -0.36730       12.26250
C         -0.40630       -1.57190       11.99810
N          0.13500       -2.54150       11.70240
C         -0.62850        0.70220       11.47300
N         -0.20610        1.56000       10.83450
C         -3.11930        2.18380       11.29630
C         -3.19020        1.24240       10.24800
N         -3.35620       -0.11560       10.36430
C         -4.09680       -0.72440       11.38900
C         -5.13180       -0.06460       12.04720
C         -5.81930       -0.69160       13.06740
C         -5.51710       -1.99370       13.44820
C         -6.26010       -2.66150       14.56160
C         -4.51890       -2.66530       12.75170
C         -3.81030       -2.04340       11.74500
C         -2.99450       -0.93330        9.26130
C         -1.71510       -0.86290        8.71820
C         -1.37060       -1.67760        7.65880
C         -2.28290       -2.57470        7.11480
C         -1.89000       -3.44290        5.96050
C         -3.55830       -2.63310        7.66160
C         -3.91640       -1.82370        8.72200
C         -3.15180        1.89850        8.99600
S         -3.18190        1.35230        7.35340
C         -3.13460        3.01050        6.77850
C         -3.03980        3.93010        7.80570
N         -2.83260        5.28670        7.63410
C         -1.97570        5.73850        6.62250
C         -0.88190        4.97850        6.21520
C         -0.07750        5.41140        5.17890
C         -0.32790        6.61060        4.52630
C          0.51880        7.06860        3.37770
C         -1.39420        7.38600        4.96880
C         -2.20440        6.96410        6.00220
C         -3.42460        6.17790        8.54140
C         -4.71570        5.94020        9.00480
C         -5.29940        6.80510        9.90870
C         -4.62130        7.92570       10.37060
C         -5.25090        8.84810       11.36900
C         -3.33260        8.15500        9.90220
C         -2.73410        7.29500        9.00380
C         -3.09080        3.28330        9.06480
S         -3.10920        3.84580       10.68800
C         -3.18190        3.26870        5.36500
C         -4.09350        4.04290        4.67660
C         -5.27420        4.59800        5.36060
C         -5.98880        3.70610        6.16520
C         -7.08600        4.11230        6.89540
C         -7.48220        5.43870        6.84720
C         -6.79270        6.32200        6.04230
C         -5.70180        5.92520        5.27410
C         -5.06350        6.95510        4.38580
C         -6.02360        7.39450        3.27750
C         -3.80510        4.04070        3.29160
S         -4.59480        4.72440        1.88800
C         -3.41640        3.97620        0.86610
C         -3.09110        3.86800       -0.49980
C         -3.62160        4.48210       -1.65530
C         -3.02370        4.20110       -2.93300
N         -3.58890        4.88460       -3.91540
S         -4.77240        5.79750       -3.29280
N         -4.61090        5.35710       -1.74310
C         -2.01530        3.21530       -3.01600
C         -1.43170        2.56380       -4.11700
S         -1.45170        2.63290       -5.84810
C         -0.43310        1.21530       -5.89450
C          0.10620        0.46230       -6.96070
C         -0.12840        0.78550       -8.37510
C         -0.62250       -0.14160       -9.30030
C         -1.13560       -1.49540       -8.89500
C         -2.49910       -1.35420       -8.21500
C         -0.76270        0.25730      -10.62390
C         -0.44570        1.53850      -11.03580
C         -0.02760        2.47010      -10.10300
C          0.11630        2.09430       -8.78210
C          0.87010       -0.58130       -6.48730
S          0.85620       -0.69850       -4.73410
C         -0.10740        0.72900       -4.62930
C         -0.66370        1.51340       -3.60980
N         -0.71330        1.51630       -2.24190
C         -1.52860        2.56070       -1.85170
C         -1.96970        3.00030       -0.57870
N         -1.58270        2.64580        0.70490
C         -2.47360        3.23000        1.57070
C         -2.69390        3.26700        2.95300
S         -1.97860        2.52350        4.33230
C         -0.24700        2.35530        1.18100
C          0.45450        3.62550        1.66260
C         -0.21980        0.38500       -1.49160
C          1.30680        0.38520       -1.40140
C          1.70520       -1.47280       -7.23830
C          2.68070       -1.11960       -8.15690
N          3.11580        0.17020       -8.40040
C          3.49670        0.51680       -9.70650
C          2.78250        0.02560      -10.79520
C          3.16640        0.35180      -12.08070
C          4.26050        1.17400      -12.31590
C          4.68970        1.50820      -13.71160
C          4.96630        1.66160      -11.22150
C          4.59800        1.33790       -9.93170
C          3.18040        1.09850       -7.35290
C          3.46460        0.68540       -6.05280
C          3.40730        1.58270       -5.00510
C          3.08310        2.91570       -5.21780
C          2.92310        3.86450       -4.06980
C          2.88890        3.33890       -6.52720
C          2.94300        2.45160       -7.58350
C          3.24200       -2.27350       -8.75610
S          4.48990       -2.52200       -9.91720
C          4.28740       -4.27990       -9.79630
C          3.34220       -4.63350       -8.80540
N          3.08210       -5.88090       -8.32100
C          4.00570       -6.93310       -8.36320
C          5.36640       -6.71420       -8.14880
C          6.25880       -7.76130       -8.23520
C          5.83070       -9.05330       -8.53490
C          6.82060      -10.16690       -8.66860
C          4.46950       -9.27120       -8.69860
C          3.56340       -8.23070       -8.61310
C          1.82960       -6.12740       -7.71310
C          1.76950       -6.76450       -6.47920
C          0.54450       -6.99220       -5.88240
C         -0.63680       -6.59380       -6.49630
C         -1.96120       -6.80890       -5.83170
C         -0.56320       -5.97410       -7.73930
C          0.65310       -5.74220       -8.34870
C          2.74280       -3.47270       -8.26670
S          1.57370       -3.21020       -7.01680
C          5.07340       -5.06320      -10.63760
C          4.80100       -6.36530      -11.01820
C          3.44330       -6.91670      -11.11030
O          2.39350       -6.35810      -10.84910
C          3.60300       -8.26000      -11.71270
C          2.63660       -9.19630      -12.01700
C          3.03710      -10.41160      -12.55360
C          4.38450      -10.64820      -12.77890
Br         4.91060      -12.32500      -13.50760
C          5.37000       -9.71060      -12.49030
C          4.96600       -8.50470      -11.94840
C          5.73190       -7.33750      -11.50730
C          7.10080       -7.26340      -11.41410
C          7.78770       -6.17580      -10.83990
N          8.40870       -5.33900      -10.35680
C          7.97610       -8.29570      -11.79600
N          8.73340       -9.11390      -12.07420
H         -3.41640        2.94280       13.23310
H         -4.04950       -0.57860       17.20790
H         -3.39820       -2.96120       17.55350
H         -1.32930       -2.98910       13.80900
H         -5.40320        0.93900       11.75750
H         -6.60590       -0.15560       13.57740
H         -5.64840       -3.43180       15.02480
H         -7.16640       -3.13190       14.17870
H         -6.55100       -1.93670       15.31810
H         -4.27780       -3.68430       13.01500
H         -3.01890       -2.57360       11.23570
H         -0.99400       -0.17140        9.12460
H         -0.37280       -1.61820        7.25070
H         -2.66850       -4.16590        5.73220
H         -0.96820       -3.97730        6.18360
H         -1.71440       -2.83140        5.07580
H         -4.28620       -3.31790        7.25160
H         -4.91270       -1.87660        9.13610
H         -0.65450        4.04960        6.71680
H          0.76480        4.80350        4.88030
H          0.84420        8.09640        3.52850
H          1.39630        6.43700        3.26360
H         -0.05380        7.03520        2.45030
H         -1.59690        8.33280        4.48920
H         -3.02430        7.57810        6.33930
H         -5.26160        5.08250        8.64160
H         -6.30320        6.60730       10.25590
H         -6.33290        8.85830       11.25960
H         -5.01810        8.51460       12.38080
H         -4.87370        9.86160       11.25440
H         -2.78400        9.01680       10.25420
H         -1.72720        7.48030        8.66020
H         -5.68250        2.67060        6.19850
H         -7.62380        3.39980        7.50360
H         -8.32490        5.77890        7.43030
H         -7.10250        7.35630        6.00560
H         -4.14270        6.56930        3.95080
H         -4.80970        7.83350        4.98380
H         -5.51780        8.06740        2.58970
H         -6.88380        7.91090        3.69610
H         -6.38340        6.53640        2.71650
H         -1.24020       -2.12250       -9.78280
H         -0.45410       -1.99700       -8.21210
H         -3.20820       -0.86820       -8.88160
H         -2.41250       -0.75310       -7.31250
H         -2.88840       -2.33270       -7.94340
H         -1.13720       -0.45510      -11.34580
H         -0.55020        1.81440      -12.07440
H          0.18270        3.48620      -10.40080
H          0.42870        2.81750       -8.04530
H         -0.32680        1.64090        2.00660
H          0.33820        1.91930        0.38000
H          1.46220        3.38300        1.98950
H          0.51330        4.35140        0.85380
H         -0.08230        4.07360        2.49410
H         -0.68800        0.37830       -0.50680
H         -0.53460       -0.52490       -2.01550
H          1.73490        0.21690       -2.38560
H          1.68710        1.33420       -1.02900
H          1.63760       -0.41100       -0.74040
H          1.91950       -0.60160      -10.62760
H          2.60020       -0.03620      -12.91490
H          5.47750        0.82520      -14.03150
H          5.08370        2.52070      -13.76450
H          3.85900        1.41460      -14.40690
H          5.82460        2.29780      -11.38290
H          5.16340        1.71410       -9.09190
H          3.72240       -0.34610       -5.86140
H          3.61420        1.23560       -4.00240
H          3.48230        3.52340       -3.20140
H          1.86970        3.93240       -3.79170
H          3.26180        4.86240       -4.33900
H          2.67240        4.37950       -6.72250
H          2.78160        2.79600       -8.59330
H          5.72300       -5.72100       -7.92010
H          7.31070       -7.57360       -8.07640
H          6.33500      -11.08290       -8.99550
H          7.59510       -9.90640       -9.38920
H          7.31040      -10.35490       -7.71360
H          4.10960      -10.26710       -8.91310
H          2.50870       -8.41330       -8.75500
H          2.68290       -7.07290       -5.99180
H          0.50760       -7.48210       -4.92040
H         -2.71970       -7.08620       -6.56050
H         -1.89690       -7.58630       -5.07470
H         -2.28500       -5.88770       -5.34650
H         -1.47270       -5.67410       -8.23890
H          0.70920       -5.28830       -9.32560
H          5.95040       -4.57810      -11.04930
H          1.59490       -8.98570      -11.83060
H          2.31080      -11.17240      -12.79440
H          6.40540       -9.93350      -12.69050
