
  xtb     02082214073D
 energy: -322.755196865109 gnorm: 0.000952758890 xtb: 6.4.1 (unknown)
186206  0     0  0            999 V2000
   -1.1372   -3.5540   -8.4589 C   0  0  0  0  0  0  0  0  0  0  0  0
   -2.3173   -3.4948   -9.1771 C   0  0  0  0  0  0  0  0  0  0  0  0
   -3.6335   -3.8189   -8.6097 C   0  0  0  0  0  0  0  0  0  0  0  0
   -3.8897   -4.1392   -7.4633 O   0  0  0  0  0  0  0  0  0  0  0  0
   -4.5717   -3.8018   -9.7540 C   0  0  0  0  0  0  0  0  0  0  0  0
   -5.9294   -4.0458   -9.7705 C   0  0  0  0  0  0  0  0  0  0  0  0
   -6.6072   -3.9481  -10.9772 C   0  0  0  0  0  0  0  0  0  0  0  0
   -5.9122   -3.6218  -12.1336 C   0  0  0  0  0  0  0  0  0  0  0  0
   -6.7710   -3.5070  -13.6251 Cl  0  0  0  0  0  0  0  0  0  0  0  0
   -4.5404   -3.3829  -12.1324 C   0  0  0  0  0  0  0  0  0  0  0  0
   -3.8712   -3.4728  -10.9262 C   0  0  0  0  0  0  0  0  0  0  0  0
   -2.4645   -3.2578  -10.5824 C   0  0  0  0  0  0  0  0  0  0  0  0
   -1.5006   -2.7510  -11.4202 C   0  0  0  0  0  0  0  0  0  0  0  0
   -0.1948   -2.4225  -11.0064 C   0  0  0  0  0  0  0  0  0  0  0  0
    0.8730   -2.1017  -10.7300 N   0  0  0  0  0  0  0  0  0  0  0  0
   -1.7218   -2.4176  -12.7685 C   0  0  0  0  0  0  0  0  0  0  0  0
   -1.8478   -2.1110  -13.8688 N   0  0  0  0  0  0  0  0  0  0  0  0
   -1.0112   -3.3866   -7.0813 C   0  0  0  0  0  0  0  0  0  0  0  0
   -1.8329   -2.7181   -6.1450 C   0  0  0  0  0  0  0  0  0  0  0  0
   -2.8891   -1.9023   -6.4224 N   0  0  0  0  0  0  0  0  0  0  0  0
   -3.8717   -1.6847   -5.4318 C   0  0  0  0  0  0  0  0  0  0  0  0
   -4.4239   -2.7588   -4.7405 C   0  0  0  0  0  0  0  0  0  0  0  0
   -5.3795   -2.5325   -3.7711 C   0  0  0  0  0  0  0  0  0  0  0  0
   -5.8076   -1.2433   -3.4716 C   0  0  0  0  0  0  0  0  0  0  0  0
   -6.8256   -1.0129   -2.3978 C   0  0  0  0  0  0  0  0  0  0  0  0
   -5.2612   -0.1814   -4.1815 C   0  0  0  0  0  0  0  0  0  0  0  0
   -4.3025   -0.3926   -5.1537 C   0  0  0  0  0  0  0  0  0  0  0  0
   -3.0328   -1.2313   -7.6453 C   0  0  0  0  0  0  0  0  0  0  0  0
   -1.9341   -0.6708   -8.2960 C   0  0  0  0  0  0  0  0  0  0  0  0
   -2.0951   -0.0454   -9.5137 C   0  0  0  0  0  0  0  0  0  0  0  0
   -3.3464    0.0429  -10.1208 C   0  0  0  0  0  0  0  0  0  0  0  0
   -3.4914    0.6771  -11.4677 C   0  0  0  0  0  0  0  0  0  0  0  0
   -4.4412   -0.4799   -9.4461 C   0  0  0  0  0  0  0  0  0  0  0  0
   -4.2945   -1.1066   -8.2225 C   0  0  0  0  0  0  0  0  0  0  0  0
   -1.3291   -2.8962   -4.8363 C   0  0  0  0  0  0  0  0  0  0  0  0
   -1.8240   -2.3192   -3.2798 S   0  0  0  0  0  0  0  0  0  0  0  0
   -0.4326   -3.0855   -2.5346 C   0  0  0  0  0  0  0  0  0  0  0  0
    0.4104   -3.6921   -3.4574 C   0  0  0  0  0  0  0  0  0  0  0  0
    1.6390   -4.2557   -3.1713 N   0  0  0  0  0  0  0  0  0  0  0  0
    2.0749   -5.3685   -3.9081 C   0  0  0  0  0  0  0  0  0  0  0  0
    3.4180   -5.5031   -4.2506 C   0  0  0  0  0  0  0  0  0  0  0  0
    3.8418   -6.5984   -4.9744 C   0  0  0  0  0  0  0  0  0  0  0  0
    2.9474   -7.5814   -5.3837 C   0  0  0  0  0  0  0  0  0  0  0  0
    3.4166   -8.7511   -6.1933 C   0  0  0  0  0  0  0  0  0  0  0  0
    1.6097   -7.4364   -5.0416 C   0  0  0  0  0  0  0  0  0  0  0  0
    1.1732   -6.3487   -4.3114 C   0  0  0  0  0  0  0  0  0  0  0  0
    2.4377   -3.7301   -2.1443 C   0  0  0  0  0  0  0  0  0  0  0  0
    3.1777   -4.5754   -1.3210 C   0  0  0  0  0  0  0  0  0  0  0  0
    3.8753   -4.0631   -0.2465 C   0  0  0  0  0  0  0  0  0  0  0  0
    3.8629   -2.7021    0.0390 C   0  0  0  0  0  0  0  0  0  0  0  0
    4.5562   -2.1752    1.2576 C   0  0  0  0  0  0  0  0  0  0  0  0
    3.1796   -1.8586   -0.8261 C   0  0  0  0  0  0  0  0  0  0  0  0
    2.4838   -2.3583   -1.9100 C   0  0  0  0  0  0  0  0  0  0  0  0
   -0.1320   -3.5959   -4.7615 C   0  0  0  0  0  0  0  0  0  0  0  0
    0.4303   -4.0798   -6.3172 S   0  0  0  0  0  0  0  0  0  0  0  0
   -0.2241   -2.9953   -1.1208 C   0  0  0  0  0  0  0  0  0  0  0  0
    0.1587   -4.0081   -0.2626 C   0  0  0  0  0  0  0  0  0  0  0  0
    0.0844   -5.4280   -0.5992 C   0  0  0  0  0  0  0  0  0  0  0  0
    0.9735   -6.3462   -0.0470 C   0  0  0  0  0  0  0  0  0  0  0  0
    0.8839   -7.6838   -0.3825 C   0  0  0  0  0  0  0  0  0  0  0  0
   -0.0961   -8.1252   -1.2531 C   0  0  0  0  0  0  0  0  0  0  0  0
   -1.0160   -7.2306   -1.7863 C   0  0  0  0  0  0  0  0  0  0  0  0
   -2.1305   -7.7102   -2.6722 C   0  0  0  0  0  0  0  0  0  0  0  0
   -3.3394   -8.1225   -1.8303 C   0  0  0  0  0  0  0  0  0  0  0  0
   -0.9179   -5.8906   -1.4491 C   0  0  0  0  0  0  0  0  0  0  0  0
    0.5260   -3.4870    0.9981 C   0  0  0  0  0  0  0  0  0  0  0  0
    1.1517   -4.2203    2.4535 S   0  0  0  0  0  0  0  0  0  0  0  0
    1.1790   -2.6617    3.2061 C   0  0  0  0  0  0  0  0  0  0  0  0
    1.4779   -2.0822    4.4502 C   0  0  0  0  0  0  0  0  0  0  0  0
    1.8501   -2.6706    5.6782 C   0  0  0  0  0  0  0  0  0  0  0  0
    1.9329   -1.8425    6.8462 C   0  0  0  0  0  0  0  0  0  0  0  0
    2.2270   -2.5330    7.9368 N   0  0  0  0  0  0  0  0  0  0  0  0
    2.3937   -4.0905    7.5271 S   0  0  0  0  0  0  0  0  0  0  0  0
    2.0940   -3.9448    5.9434 N   0  0  0  0  0  0  0  0  0  0  0  0
    1.7600   -0.4487    6.7054 C   0  0  0  0  0  0  0  0  0  0  0  0
    1.9069    0.5953    7.6306 C   0  0  0  0  0  0  0  0  0  0  0  0
    2.2443    0.8130    9.3125 S   0  0  0  0  0  0  0  0  0  0  0  0
    2.2014    2.5426    9.0702 C   0  0  0  0  0  0  0  0  0  0  0  0
    2.3991    3.6263    9.9428 C   0  0  0  0  0  0  0  0  0  0  0  0
    2.8109    3.4895   11.3397 C   0  0  0  0  0  0  0  0  0  0  0  0
    2.1819    2.5699   12.1742 C   0  0  0  0  0  0  0  0  0  0  0  0
    2.5895    2.4477   13.4893 C   0  0  0  0  0  0  0  0  0  0  0  0
    3.6209    3.2309   13.9779 C   0  0  0  0  0  0  0  0  0  0  0  0
    4.2739    4.1387   13.1520 C   0  0  0  0  0  0  0  0  0  0  0  0
    5.3650    5.0258   13.6742 C   0  0  0  0  0  0  0  0  0  0  0  0
    4.8134    6.4200   13.9802 C   0  0  0  0  0  0  0  0  0  0  0  0
    3.8646    4.2545   11.8329 C   0  0  0  0  0  0  0  0  0  0  0  0
    2.2568    4.8351    9.2754 C   0  0  0  0  0  0  0  0  0  0  0  0
    1.9401    4.6278    7.5602 S   0  0  0  0  0  0  0  0  0  0  0  0
    1.9433    2.9100    7.7439 C   0  0  0  0  0  0  0  0  0  0  0  0
    1.7663    1.7927    6.9218 C   0  0  0  0  0  0  0  0  0  0  0  0
    1.5234    1.5259    5.5996 N   0  0  0  0  0  0  0  0  0  0  0  0
    1.4878    0.1523    5.4426 C   0  0  0  0  0  0  0  0  0  0  0  0
    1.2267   -0.6867    4.3281 C   0  0  0  0  0  0  0  0  0  0  0  0
    0.7664   -0.4351    3.0410 N   0  0  0  0  0  0  0  0  0  0  0  0
    0.7298   -1.6344    2.3770 C   0  0  0  0  0  0  0  0  0  0  0  0
    0.3602   -2.1069    1.1107 C   0  0  0  0  0  0  0  0  0  0  0  0
   -0.2412   -1.4171   -0.3522 S   0  0  0  0  0  0  0  0  0  0  0  0
   -0.1067    0.6202    2.5733 C   0  0  0  0  0  0  0  0  0  0  0  0
   -1.4853    0.5150    3.2223 C   0  0  0  0  0  0  0  0  0  0  0  0
    1.6805    2.5761    4.6196 C   0  0  0  0  0  0  0  0  0  0  0  0
    0.4493    3.4769    4.5349 C   0  0  0  0  0  0  0  0  0  0  0  0
    2.2781    6.1412    9.8267 C   0  0  0  0  0  0  0  0  0  0  0  0
    1.9744    6.5320   11.1282 C   0  0  0  0  0  0  0  0  0  0  0  0
    2.0535    7.8278   11.3760 N   0  0  0  0  0  0  0  0  0  0  0  0
    2.4525    8.5283   10.3538 C   0  0  0  0  0  0  0  0  0  0  0  0
    2.6779    7.5408    8.8925 S   0  0  0  0  0  0  0  0  0  0  0  0
    2.5896    9.9328   10.3612 C   0  0  0  0  0  0  0  0  0  0  0  0
    3.3243   10.7153    9.5240 C   0  0  0  0  0  0  0  0  0  0  0  0
    2.9798   12.1633    9.3823 C   0  0  0  0  0  0  0  0  0  0  0  0
    2.2362   12.8011   10.0876 O   0  0  0  0  0  0  0  0  0  0  0  0
    3.7001   12.5891    8.1740 C   0  0  0  0  0  0  0  0  0  0  0  0
    4.5265   11.5168    7.7001 C   0  0  0  0  0  0  0  0  0  0  0  0
    5.2279   11.8330    6.5805 C   0  0  0  0  0  0  0  0  0  0  0  0
    4.8908   13.4483    6.0693 S   0  0  0  0  0  0  0  0  0  0  0  0
    3.7887   13.7078    7.4024 C   0  0  0  0  0  0  0  0  0  0  0  0
    2.9943   15.1896    7.6119 Cl  0  0  0  0  0  0  0  0  0  0  0  0
    4.4027   10.3926    8.6102 C   0  0  0  0  0  0  0  0  0  0  0  0
    5.3227    9.3812    8.7164 C   0  0  0  0  0  0  0  0  0  0  0  0
    5.3682    8.4374    9.7609 C   0  0  0  0  0  0  0  0  0  0  0  0
    5.4785    7.6726   10.6105 N   0  0  0  0  0  0  0  0  0  0  0  0
    6.3784    9.2505    7.7922 C   0  0  0  0  0  0  0  0  0  0  0  0
    7.2265    9.1215    7.0299 N   0  0  0  0  0  0  0  0  0  0  0  0
   -0.2225   -3.7912   -8.9890 H   0  0  0  0  0  0  0  0  0  0  0  0
   -6.4479   -4.2990   -8.8585 H   0  0  0  0  0  0  0  0  0  0  0  0
   -7.6704   -4.1231  -11.0259 H   0  0  0  0  0  0  0  0  0  0  0  0
   -4.0360   -3.1422  -13.0537 H   0  0  0  0  0  0  0  0  0  0  0  0
   -4.1168   -3.7605   -4.9971 H   0  0  0  0  0  0  0  0  0  0  0  0
   -5.8078   -3.3707   -3.2412 H   0  0  0  0  0  0  0  0  0  0  0  0
   -7.2682   -0.0240   -2.4846 H   0  0  0  0  0  0  0  0  0  0  0  0
   -7.6155   -1.7594   -2.4480 H   0  0  0  0  0  0  0  0  0  0  0  0
   -6.3547   -1.0914   -1.4175 H   0  0  0  0  0  0  0  0  0  0  0  0
   -5.5857    0.8268   -3.9690 H   0  0  0  0  0  0  0  0  0  0  0  0
   -3.8810    0.4400   -5.6978 H   0  0  0  0  0  0  0  0  0  0  0  0
   -0.9541   -0.7295   -7.8467 H   0  0  0  0  0  0  0  0  0  0  0  0
   -1.2329    0.3774  -10.0085 H   0  0  0  0  0  0  0  0  0  0  0  0
   -2.9565    1.6241  -11.5063 H   0  0  0  0  0  0  0  0  0  0  0  0
   -4.5373    0.8506  -11.7065 H   0  0  0  0  0  0  0  0  0  0  0  0
   -3.0685    0.0295  -12.2365 H   0  0  0  0  0  0  0  0  0  0  0  0
   -5.4244   -0.4106   -9.8882 H   0  0  0  0  0  0  0  0  0  0  0  0
   -5.1542   -1.5137   -7.7120 H   0  0  0  0  0  0  0  0  0  0  0  0
    4.1233   -4.7432   -3.9482 H   0  0  0  0  0  0  0  0  0  0  0  0
    4.8865   -6.6887   -5.2346 H   0  0  0  0  0  0  0  0  0  0  0  0
    2.7239   -9.5850   -6.1100 H   0  0  0  0  0  0  0  0  0  0  0  0
    4.4027   -9.0763   -5.8689 H   0  0  0  0  0  0  0  0  0  0  0  0
    3.4857   -8.4715   -7.2450 H   0  0  0  0  0  0  0  0  0  0  0  0
    0.8957   -8.1882   -5.3450 H   0  0  0  0  0  0  0  0  0  0  0  0
    0.1328   -6.2618   -4.0397 H   0  0  0  0  0  0  0  0  0  0  0  0
    3.1797   -5.6367   -1.5183 H   0  0  0  0  0  0  0  0  0  0  0  0
    4.4238   -4.7343    0.3983 H   0  0  0  0  0  0  0  0  0  0  0  0
    5.5642   -2.5785    1.3327 H   0  0  0  0  0  0  0  0  0  0  0  0
    4.6125   -1.0895    1.2361 H   0  0  0  0  0  0  0  0  0  0  0  0
    4.0124   -2.4734    2.1550 H   0  0  0  0  0  0  0  0  0  0  0  0
    3.1837   -0.7923   -0.6490 H   0  0  0  0  0  0  0  0  0  0  0  0
    1.9607   -1.6839   -2.5726 H   0  0  0  0  0  0  0  0  0  0  0  0
    1.7421   -6.0089    0.6301 H   0  0  0  0  0  0  0  0  0  0  0  0
    1.5856   -8.3880    0.0395 H   0  0  0  0  0  0  0  0  0  0  0  0
   -0.1554   -9.1717   -1.5147 H   0  0  0  0  0  0  0  0  0  0  0  0
   -2.4288   -6.9165   -3.3612 H   0  0  0  0  0  0  0  0  0  0  0  0
   -1.7926   -8.5653   -3.2611 H   0  0  0  0  0  0  0  0  0  0  0  0
   -3.6961   -7.2787   -1.2437 H   0  0  0  0  0  0  0  0  0  0  0  0
   -4.1481   -8.4689   -2.4696 H   0  0  0  0  0  0  0  0  0  0  0  0
   -3.0686   -8.9235   -1.1462 H   0  0  0  0  0  0  0  0  0  0  0  0
   -1.6447   -5.1939   -1.8424 H   0  0  0  0  0  0  0  0  0  0  0  0
    1.3677    1.9700   11.7964 H   0  0  0  0  0  0  0  0  0  0  0  0
    2.0964    1.7389   14.1378 H   0  0  0  0  0  0  0  0  0  0  0  0
    3.9275    3.1326   15.0092 H   0  0  0  0  0  0  0  0  0  0  0  0
    6.1555    5.1165   12.9272 H   0  0  0  0  0  0  0  0  0  0  0  0
    5.7930    4.5944   14.5812 H   0  0  0  0  0  0  0  0  0  0  0  0
    5.5954    7.0509   14.3951 H   0  0  0  0  0  0  0  0  0  0  0  0
    4.4406    6.8877   13.0726 H   0  0  0  0  0  0  0  0  0  0  0  0
    3.9980    6.3584   14.6980 H   0  0  0  0  0  0  0  0  0  0  0  0
    4.3788    4.9445   11.1795 H   0  0  0  0  0  0  0  0  0  0  0  0
    0.3232    1.6001    2.7557 H   0  0  0  0  0  0  0  0  0  0  0  0
   -0.1991    0.4922    1.4917 H   0  0  0  0  0  0  0  0  0  0  0  0
   -1.4067    0.6028    4.3042 H   0  0  0  0  0  0  0  0  0  0  0  0
   -2.1343    1.3023    2.8482 H   0  0  0  0  0  0  0  0  0  0  0  0
   -1.9371   -0.4465    2.9893 H   0  0  0  0  0  0  0  0  0  0  0  0
    2.5370    3.1877    4.9262 H   0  0  0  0  0  0  0  0  0  0  0  0
    1.9315    2.1256    3.6586 H   0  0  0  0  0  0  0  0  0  0  0  0
    0.3198    4.0157    5.4697 H   0  0  0  0  0  0  0  0  0  0  0  0
    0.5797    4.2040    3.7380 H   0  0  0  0  0  0  0  0  0  0  0  0
   -0.4539    2.9032    4.3474 H   0  0  0  0  0  0  0  0  0  0  0  0
    1.6703    5.8593   11.9084 H   0  0  0  0  0  0  0  0  0  0  0  0
    1.9786   10.4506   11.0934 H   0  0  0  0  0  0  0  0  0  0  0  0
    5.9101   11.2322    6.0125 H   0  0  0  0  0  0  0  0  0  0  0  0
  1  2  2  0  0  0  0
  2  3  1  0  0  0  0
  3  4  2  0  0  0  0
  3  5  1  0  0  0  0
  5  6  2  0  0  0  0
  6  7  1  0  0  0  0
  7  8  2  0  0  0  0
  8  9  1  0  0  0  0
  8 10  1  0  0  0  0
 10 11  2  0  0  0  0
 11 12  1  0  0  0  0
 12 13  2  0  0  0  0
 13 14  1  0  0  0  0
 14 15  3  0  0  0  0
 13 16  1  0  0  0  0
 16 17  3  0  0  0  0
  1 18  1  0  0  0  0
 18 19  2  0  0  0  0
 19 20  1  0  0  0  0
 20 21  1  0  0  0  0
 21 22  2  0  0  0  0
 22 23  1  0  0  0  0
 23 24  2  0  0  0  0
 24 25  1  0  0  0  0
 24 26  1  0  0  0  0
 26 27  2  0  0  0  0
 20 28  1  0  0  0  0
 28 29  2  0  0  0  0
 29 30  1  0  0  0  0
 30 31  2  0  0  0  0
 31 32  1  0  0  0  0
 31 33  1  0  0  0  0
 33 34  2  0  0  0  0
 19 35  1  0  0  0  0
 35 36  1  0  0  0  0
 36 37  1  0  0  0  0
 37 38  2  0  0  0  0
 38 39  1  0  0  0  0
 39 40  1  0  0  0  0
 40 41  2  0  0  0  0
 41 42  1  0  0  0  0
 42 43  2  0  0  0  0
 43 44  1  0  0  0  0
 43 45  1  0  0  0  0
 45 46  2  0  0  0  0
 39 47  1  0  0  0  0
 47 48  2  0  0  0  0
 48 49  1  0  0  0  0
 49 50  2  0  0  0  0
 50 51  1  0  0  0  0
 50 52  1  0  0  0  0
 52 53  2  0  0  0  0
 38 54  1  0  0  0  0
 54 55  1  0  0  0  0
 37 56  1  0  0  0  0
 56 57  2  0  0  0  0
 57 58  1  0  0  0  0
 58 59  2  0  0  0  0
 59 60  1  0  0  0  0
 60 61  2  0  0  0  0
 61 62  1  0  0  0  0
 62 63  1  0  0  0  0
 63 64  1  0  0  0  0
 62 65  2  0  0  0  0
 57 66  1  0  0  0  0
 66 67  1  0  0  0  0
 67 68  1  0  0  0  0
 68 69  1  0  0  0  0
 69 70  1  0  0  0  0
 70 71  1  0  0  0  0
 71 72  2  0  0  0  0
 72 73  1  0  0  0  0
 73 74  1  0  0  0  0
 71 75  1  0  0  0  0
 75 76  1  0  0  0  0
 76 77  1  0  0  0  0
 77 78  1  0  0  0  0
 78 79  1  0  0  0  0
 79 80  1  0  0  0  0
 80 81  2  0  0  0  0
 81 82  1  0  0  0  0
 82 83  2  0  0  0  0
 83 84  1  0  0  0  0
 84 85  1  0  0  0  0
 85 86  1  0  0  0  0
 84 87  2  0  0  0  0
 79 88  2  0  0  0  0
 88 89  1  0  0  0  0
 89 90  1  0  0  0  0
 90 91  1  0  0  0  0
 91 92  1  0  0  0  0
 92 93  1  0  0  0  0
 93 94  1  0  0  0  0
 94 95  1  0  0  0  0
 95 96  1  0  0  0  0
 96 97  1  0  0  0  0
 97 98  1  0  0  0  0
 95 99  1  0  0  0  0
 99100  1  0  0  0  0
 92101  1  0  0  0  0
101102  1  0  0  0  0
 88103  1  0  0  0  0
103104  2  0  0  0  0
104105  1  0  0  0  0
105106  2  0  0  0  0
106107  1  0  0  0  0
106108  1  0  0  0  0
108109  2  0  0  0  0
109110  1  0  0  0  0
110111  2  0  0  0  0
110112  1  0  0  0  0
112113  1  0  0  0  0
113114  2  0  0  0  0
114115  1  0  0  0  0
115116  1  0  0  0  0
116117  1  0  0  0  0
113118  1  0  0  0  0
118119  2  0  0  0  0
119120  1  0  0  0  0
120121  3  0  0  0  0
119122  1  0  0  0  0
122123  3  0  0  0  0
 12  2  1  0  0  0  0
 55 18  1  0  0  0  0
 98 56  1  0  0  0  0
107103  1  0  0  0  0
118109  1  0  0  0  0
 11  5  1  0  0  0  0
 27 21  1  0  0  0  0
 34 28  1  0  0  0  0
 54 35  2  0  0  0  0
 65 58  1  0  0  0  0
 97 66  2  0  0  0  0
116112  2  0  0  0  0
 46 40  1  0  0  0  0
 53 47  1  0  0  0  0
 96 68  2  0  0  0  0
 94 69  2  0  0  0  0
 74 70  2  0  0  0  0
 93 75  2  0  0  0  0
 91 76  2  0  0  0  0
 90 78  2  0  0  0  0
 87 80  1  0  0  0  0
  1124  1  0  0  0  0
  6125  1  0  0  0  0
  7126  1  0  0  0  0
 10127  1  0  0  0  0
 22128  1  0  0  0  0
 23129  1  0  0  0  0
 25130  1  0  0  0  0
 25131  1  0  0  0  0
 25132  1  0  0  0  0
 26133  1  0  0  0  0
 27134  1  0  0  0  0
 29135  1  0  0  0  0
 30136  1  0  0  0  0
 32137  1  0  0  0  0
 32138  1  0  0  0  0
 32139  1  0  0  0  0
 33140  1  0  0  0  0
 34141  1  0  0  0  0
 41142  1  0  0  0  0
 42143  1  0  0  0  0
 44144  1  0  0  0  0
 44145  1  0  0  0  0
 44146  1  0  0  0  0
 45147  1  0  0  0  0
 46148  1  0  0  0  0
 48149  1  0  0  0  0
 49150  1  0  0  0  0
 51151  1  0  0  0  0
 51152  1  0  0  0  0
 51153  1  0  0  0  0
 52154  1  0  0  0  0
 53155  1  0  0  0  0
 59156  1  0  0  0  0
 60157  1  0  0  0  0
 61158  1  0  0  0  0
 63159  1  0  0  0  0
 63160  1  0  0  0  0
 64161  1  0  0  0  0
 64162  1  0  0  0  0
 64163  1  0  0  0  0
 65164  1  0  0  0  0
 81165  1  0  0  0  0
 82166  1  0  0  0  0
 83167  1  0  0  0  0
 85168  1  0  0  0  0
 85169  1  0  0  0  0
 86170  1  0  0  0  0
 86171  1  0  0  0  0
 86172  1  0  0  0  0
 87173  1  0  0  0  0
 99174  1  0  0  0  0
 99175  1  0  0  0  0
100176  1  0  0  0  0
100177  1  0  0  0  0
100178  1  0  0  0  0
101179  1  0  0  0  0
101180  1  0  0  0  0
102181  1  0  0  0  0
102182  1  0  0  0  0
102183  1  0  0  0  0
104184  1  0  0  0  0
108185  1  0  0  0  0
114186  1  0  0  0  0
M  END
