249

C        -12.03780       -0.53140       -4.77370
C        -13.10050       -0.11360       -5.52200
C        -13.91480       -1.12600       -6.24490
O        -13.80510       -2.32980       -6.17360
C        -14.84440       -0.34790       -7.08900
C        -15.73580       -0.78930       -8.04840
C        -16.49650        0.14840       -8.72910
C        -16.35340        1.49910       -8.43390
Cl       -17.29180        2.65350       -9.30450
C        -15.47150        1.95640       -7.46070
C        -14.70870        1.01830       -6.78960
C        -13.70380        1.17650       -5.73660
C        -13.58590        2.27430       -4.92410
C        -14.38630        3.42750       -5.04680
N        -15.03600        4.37390       -5.08130
C        -12.72390        2.34080       -3.81250
N        -12.06060        2.44280       -2.88080
C        -10.87210        0.14730       -4.35180
C        -10.00880        0.98030       -5.06700
N        -10.13610        1.35960       -6.39860
C         -9.04220        1.08580       -7.23510
C         -8.36760       -0.12780       -7.10780
C         -7.28490       -0.40880       -7.91390
C         -6.84690        0.49850       -8.87310
C         -5.67740        0.17030       -9.74970
C         -7.53060        1.70000       -9.00010
C         -8.61170        1.99860       -8.19350
C        -11.04780        2.35850       -6.79300
C        -11.78140        2.19840       -7.96320
C        -12.64740        3.19240       -8.37620
C        -12.80130        4.36070       -7.63850
C        -13.75620        5.43200       -8.06150
C        -12.05490        4.51300       -6.47430
C        -11.18350        3.52680       -6.05060
C         -8.82110        1.20740       -4.33950
S         -7.42300        2.16430       -4.65790
C         -6.76970        1.76930       -3.07670
C         -7.62280        0.95880       -2.33580
N         -7.43290        0.55770       -1.02570
C         -7.94690       -0.68940       -0.63130
C         -8.59600       -0.83140        0.59200
C         -9.10770       -2.05730        0.96480
C         -8.99530       -3.16710        0.13430
C         -9.58640       -4.48430        0.53270
C         -8.34280       -3.01700       -1.08240
C         -7.81880       -1.79750       -1.46430
C         -6.78860        1.37720       -0.09070
C         -5.98560        0.80660        0.89520
C         -5.26870        1.60840        1.75990
C         -5.31620        2.99340        1.66290
C         -4.46160        3.86490        2.53150
C         -6.16340        3.55350        0.71440
C         -6.89960        2.76530       -0.14710
C         -8.77730        0.62420       -3.08520
S        -10.19260       -0.31850       -2.79290
C         -5.50120        2.28640       -2.65270
C         -5.05720        3.59180       -2.64760
C         -5.76110        4.71930       -3.26860
C         -6.19900        5.79010       -2.49740
C         -6.89280        6.82590       -3.09350
C         -7.15860        6.79990       -4.45220
C         -6.70530        5.75100       -5.24050
C         -6.95140        5.72360       -6.72160
C         -5.76210        6.31920       -7.47690
C         -5.98790        4.72710       -4.63930
C         -3.85330        3.72150       -1.92710
S         -2.87840        5.10680       -1.50620
C         -1.77730        4.05010       -0.68600
C         -0.58130        4.11620        0.05030
C          0.18000        5.21410        0.50670
C          1.33150        4.96880        1.32950
N          1.92150        6.08770        1.72020
S          1.09990        7.34210        1.10740
N         -0.03930        6.50570        0.31740
C          1.73560        3.63590        1.56010
C          2.88810        3.10580        2.16530
S          4.31100        3.64910        2.98860
C          4.91330        2.01000        3.00040
C          6.12660        1.42850        3.43360
C          7.17870        2.10900        4.18470
C          7.43400        3.46540        4.00070
C          8.44710        4.08200        4.71000
C          9.20550        3.36550        5.61790
C          8.94260        2.01990        5.84410
C          9.71100        1.25090        6.88100
C          9.04620        1.39330        8.25140
C          7.92700        1.40760        5.12830
C          6.17100        0.08600        3.11010
S          4.67910       -0.49410        2.38820
C          4.03140        1.10490        2.41080
C          2.86680        1.72860        1.94450
N          1.72820        1.37670        1.27100
C          1.00840        2.53540        1.02900
C         -0.22970        2.77880        0.38070
N         -1.22230        1.93290       -0.09050
C         -2.14940        2.70550       -0.73790
C         -3.34860        2.51820       -1.43740
S         -4.36710        1.19230       -1.86490
C         -1.58860        0.61170        0.37220
C         -1.63070        0.54510        1.89570
C          1.64220        0.08770        0.62240
C          1.71040        0.21380       -0.89680
C          7.31780       -0.77210        3.10800
C          8.55240       -0.48730        2.53730
N          8.87250        0.66540        1.84480
C          7.90680        1.32330        1.06840
C          6.95580        0.60250        0.35140
C          5.95070        1.26060       -0.33190
C          5.87280        2.64620       -0.33710
C          4.75760        3.37070       -1.02650
C          6.86550        3.35970        0.32690
C          7.87050        2.71520        1.01730
C         10.17830        1.17400        1.92980
C         10.78360        1.75040        0.81580
C         12.06740        2.24710        0.90450
C         12.78650        2.17750        2.09290
C         14.18980        2.69640        2.16550
C         12.17690        1.59680        3.19650
C         10.88950        1.10260        3.12360
C          9.43850       -1.57750        2.70440
S         11.04830       -1.88520        2.17200
C         10.99960       -3.51220        2.87720
C          9.72640       -3.80940        3.42330
N          9.28510       -5.01740        3.87070
C          8.22530       -5.05060        4.80680
C          7.13910       -5.89240        4.60010
C          6.10800       -5.92260        5.51970
C          6.13730       -5.12270        6.65490
C          5.01250       -5.13790        7.64290
C          7.23670       -4.29360        6.85530
C          8.27340       -4.25330        5.94620
C          9.78560       -6.24230        3.41160
C         10.14740       -6.42680        2.07730
C         10.63300       -7.64570        1.65380
C         10.78010       -8.71390        2.53740
C         11.31930      -10.02370        2.05940
C         10.40020       -8.52690        3.85960
C          9.90480       -7.31280        4.29660
C          8.88460       -2.67700        3.34670
S          7.22580       -2.39660        3.76300
C         12.16680       -4.26160        2.78300
C         12.50600       -5.35510        3.56310
C         12.00200       -5.56280        4.91820
O         11.25820       -4.83840        5.55190
C         12.71970       -6.75870        5.42870
C         12.61630       -7.36550        6.66440
Cl        11.44330       -6.86570        7.80170
C         13.48950       -8.41990        6.96410
Cl        13.36560       -9.23350        8.46480
C         14.48050       -8.78030        6.05550
Cl        15.60110      -10.00400        6.47890
C         14.58390       -8.15400        4.80210
Cl        15.92840       -8.54140        3.80890
C         13.64970       -7.18680        4.46140
C         13.42970       -6.40510        3.24360
C         13.78040       -6.74800        1.95870
C         14.31380       -7.97610        1.52840
N         14.63010       -8.97450        1.05520
C         13.42600       -5.96840        0.83720
N         13.16400       -5.39710       -0.12420
H        -12.06100       -1.58940       -4.52030
H        -15.83050       -1.84350       -8.25730
H        -17.19850       -0.15990       -9.48770
H        -15.38780        3.01100       -7.26030
H         -8.70100       -0.84860       -6.37530
H         -6.77160       -1.35300       -7.80220
H         -5.94950       -0.60720      -10.46380
H         -5.34940        1.04520      -10.30510
H         -4.84470       -0.20160       -9.15540
H         -7.20700        2.42350       -9.73460
H         -9.11830        2.94660       -8.29730
H        -11.66230        1.29440       -8.54230
H        -13.21670        3.05440       -9.28410
H        -14.47120        5.62550       -7.26180
H        -13.22330        6.36090       -8.25970
H        -14.29750        5.14290       -8.95870
H        -12.15840        5.41700       -5.89240
H        -10.59660        3.66210       -5.15370
H         -8.69940        0.02530        1.24120
H         -9.61360       -2.15300        1.91460
H         -9.56000       -4.61160        1.61250
H        -10.62810       -4.53410        0.21410
H         -9.05200       -5.30810        0.06550
H         -8.23750       -3.86800       -1.73970
H         -7.29940       -1.69880       -2.40670
H         -5.90990       -0.26870        0.96150
H         -4.65180        1.14450        2.51600
H         -3.57050        4.17690        1.98310
H         -4.99860        4.76340        2.82730
H         -4.14270        3.33540        3.42660
H         -6.24780        4.62860        0.65180
H         -7.55730        3.22290       -0.87130
H         -6.00380        5.79890       -1.43630
H         -7.23850        7.65460       -2.49340
H         -7.71990        7.60430       -4.90570
H         -7.85190        6.29460       -6.95670
H         -7.10570        4.69140       -7.04540
H         -5.60060        7.35160       -7.17500
H         -4.85740        5.75510       -7.26200
H         -5.94090        6.29460       -8.54930
H         -5.58790        3.92850       -5.24810
H          6.85090        4.03050        3.29130
H          8.64720        5.13140        4.55090
H         10.00110        3.85330        6.16220
H         10.73470        1.62690        6.93610
H          9.74890        0.19310        6.61020
H          9.59860        0.83350        9.00240
H          9.01420        2.43880        8.54970
H          8.02610        1.01690        8.21670
H          7.70300        0.36730        5.31800
H         -2.58850        0.41360       -0.02250
H         -0.92140       -0.14590       -0.04450
H         -0.65440        0.73900        2.33240
H         -1.96830       -0.43820        2.21250
H         -2.32370        1.29260        2.27330
H          2.49830       -0.49320        0.97460
H          0.74240       -0.44390        0.93580
H          0.89880        0.82700       -1.27980
H          1.65270       -0.77120       -1.35260
H          2.65110        0.67610       -1.18650
H          6.99980       -0.47700        0.33820
H          5.21440        0.67840       -0.86830
H          4.12130        2.68240       -1.57760
H          5.15310        4.10960       -1.72130
H          4.14360        3.89930       -0.29710
H          6.83590        4.43950        0.31720
H          8.62440        3.28270        1.54150
H         10.24220        1.80260       -0.11720
H         12.52500        2.69010        0.03180
H         14.29050        3.62020        1.59980
H         14.87900        1.96680        1.73920
H         14.48440        2.87920        3.19590
H         12.71330        1.53350        4.13220
H         10.42570        0.67050        3.99680
H          7.10600       -6.51650        3.71890
H          5.26590       -6.57710        5.34840
H          4.42510       -4.22420        7.55160
H          4.35450       -5.98620        7.47340
H          5.39560       -5.18620        8.66030
H          7.28270       -3.67840        7.74200
H          9.14140       -3.63650        6.11770
H         10.03960       -5.61660        1.37180
H         10.90510       -7.77460        0.61640
H         12.32430       -9.90060        1.65670
H         10.69380      -10.42090        1.26110
H         11.35550      -10.74820        2.86860
H         10.49640       -9.34030        4.56380
H          9.61100       -7.18340        5.32720
H         12.88850       -3.90930        2.05630
