270

C          1.71070       -4.98940      -12.49340
C          2.85680       -4.67880      -13.20450
C          3.94760       -3.85470      -12.66770
O          3.99760       -3.30300      -11.58320
C          5.03510       -3.94050      -13.66830
C          6.28560       -3.35860      -13.64810
C          7.13550       -3.57320      -14.72380
C          6.71990       -4.36850      -15.78250
Cl         7.79110       -4.62630      -17.11000
C          5.46410       -4.96930      -15.81120
C          4.61850       -4.74610      -14.74090
C          3.25180       -5.19990      -14.47780
C          2.43780       -5.86070      -15.36710
C          1.08130       -6.14860      -15.12170
N         -0.03760       -6.37880      -14.99870
C          2.83230       -6.25390      -16.65800
N          3.09040       -6.58380      -17.72820
C          1.14140       -4.21710      -11.48580
C          1.23130       -2.83200      -11.20260
N          1.78150       -1.87300      -11.99940
C          2.20750       -0.65630      -11.42060
C          1.83840        0.55240      -12.00000
C          2.25240        1.74180      -11.43230
C          3.03770        1.75340      -10.28580
C          3.46140        3.04340       -9.65440
C          3.41310        0.53690       -9.72610
C          3.00790       -0.65950      -10.28280
C          1.92590       -2.01840      -13.38650
C          0.93540       -2.62360      -14.15930
C          1.11840       -2.78640      -15.51590
C          2.28520       -2.35570      -16.14450
C          2.48660       -2.59010      -17.60810
C          3.24620       -1.71410      -15.37550
C          3.07370       -1.54050      -14.01480
C          0.55030       -2.53230      -10.00360
S          0.28380       -1.07430       -9.09600
C         -0.67880       -1.94960       -7.92400
C         -0.82690       -3.28910       -8.26090
N         -1.56270       -4.18950       -7.47190
C         -2.96100       -4.23400       -7.61910
C         -3.60810       -3.58700       -8.66690
C         -4.98750       -3.59670       -8.74240
C         -5.75820       -4.25330       -7.79100
C         -7.25270       -4.26940       -7.90160
C         -5.10410       -4.89630       -6.74760
C         -3.72760       -4.87850       -6.64820
C         -0.84710       -5.33940       -7.06400
C          0.36050       -5.15820       -6.39770
C          1.09140       -6.24950       -5.97260
C          0.63850       -7.54340       -6.19820
C          1.43280       -8.73010       -5.74590
C         -0.56390       -7.71320       -6.87490
C         -1.30060       -6.62970       -7.31150
C         -0.11150       -3.61170       -9.42530
S          0.08330       -5.05890      -10.33760
C         -1.10470       -1.35860       -6.71400
C         -0.86500       -0.07070       -6.27840
C         -1.23940        0.14860       -4.95150
S         -1.03650        1.52220       -3.89150
C         -1.67660        0.59040       -2.57490
C         -1.85620        0.76730       -1.16500
C         -1.56280        1.84340       -0.33290
C         -1.77100        1.67280        1.01620
C         -1.52230        2.66790        2.13770
C         -0.08380        3.10530        2.31910
C          0.97810        2.44220        1.72400
C          2.28160        2.81420        2.00770
C          2.55710        3.83700        2.90450
C          3.96850        4.23800        3.22130
C          4.39040        5.44680        2.38450
C          1.48860        4.50850        3.48810
C          0.18670        4.15160        3.19600
C         -2.44380        3.85550        1.92340
C         -3.71230        3.89590        2.48390
C         -4.55050        4.96940        2.24500
C         -4.14930        6.02250        1.43480
C         -5.04200        7.21030        1.21850
C         -4.78800        8.27030        2.29230
C         -2.88160        5.97310        0.86920
C         -2.03950        4.90400        1.10640
C         -1.89420        1.83620        3.33720
C         -2.35080        0.59350        2.94920
C         -2.28960        0.45910        1.52470
C         -2.60000       -0.61170        0.69170
C         -2.37680       -0.44780       -0.65540
C         -2.59200       -1.45330       -1.77150
C         -4.05170       -1.72210       -2.09810
C         -5.08410       -0.94260       -1.60000
C         -6.38830       -1.16870       -2.00730
C         -6.68990       -2.16550       -2.92360
C         -8.09140       -2.37470       -3.42090
C         -8.27710       -1.70210       -4.78250
C         -5.65000       -2.94260       -3.42020
C         -4.35010       -2.72600       -3.01330
C         -1.84870       -2.75180       -1.52770
C         -0.58460       -2.96760       -2.06060
C          0.04450       -4.18870       -1.90640
C         -0.56240       -5.22050       -1.20440
C          0.08260       -6.57420       -1.13330
C         -0.28290       -7.39400       -2.37340
C         -1.80460       -4.98440       -0.62970
C         -2.44100       -3.76770       -0.78790
C         -2.04910       -0.68510       -2.94380
C         -1.81650       -0.94710       -4.29060
Se        -1.93440       -2.43440       -5.39410
S         -2.75990       -0.43920        4.27730
C         -2.25240        0.80110        5.38590
C         -2.07730        0.77460        6.77960
C         -1.45250        1.88500        7.26990
Se        -1.11440        3.18850        5.92460
C         -1.81090        1.95390        4.72580
C         -0.83030        2.09680        8.54680
C          0.53490        2.31050        8.66440
N          1.43000        2.17490        7.61330
C          1.29030        1.10060        6.71890
C          1.51760        1.27670        5.35550
C          1.28890        0.24010        4.47390
C          0.82950       -0.99490        4.91490
C          0.55190       -2.10140        3.94380
C          0.64470       -1.17540        6.27980
C          0.87410       -0.14800        7.17390
C          2.43410        3.13940        7.44250
C          2.18370        4.47540        7.74880
C          3.17050        5.42410        7.57520
C          4.42400        5.07610        7.08240
C          5.47170        6.12370        6.87310
C          4.66510        3.73990        6.78660
C          3.69030        2.77790        6.96710
C          0.88030        2.64330        9.99070
S          2.35160        3.13080       10.73960
C          1.50780        3.37900       12.27430
C          0.13550        3.06980       12.17820
N         -0.76690        3.22310       13.18620
C         -1.94660        2.45530       13.19190
C         -3.16760        3.04460       13.50500
C         -4.31680        2.28070       13.52470
C         -4.28180        0.92090       13.23600
C         -5.53740        0.10600       13.23050
C         -3.05560        0.34040       12.93420
C         -1.89750        1.09170       12.91500
C         -0.61020        4.20520       14.19150
C         -0.88510        3.88380       15.51590
C         -0.73630        4.84000       16.50140
C         -0.31460        6.12760       16.19210
C         -0.11500        7.14520       17.27150
C         -0.06290        6.44010       14.86060
C         -0.21440        5.49790       13.86320
C         -0.19430        2.65000       10.87010
S         -1.67270        2.21170       10.07240
C          2.20920        3.71350       13.43530
C          3.48080        4.22210       13.54030
C          4.23730        4.04380       14.79440
O          3.80840        3.65370       15.85770
C          5.63640        4.40970       14.45470
C          5.68370        4.88010       13.12870
C          6.89100        5.24440       12.55910
C          8.04290        5.14200       13.32630
C          7.99170        4.69630       14.63720
Br         9.59430        4.59350       15.63480
C          6.78050        4.31940       15.22870
Cl         6.71740        3.76500       16.84810
C          4.32040        4.90620       12.59650
C          3.90710        5.69540       11.54760
C          2.55360        5.96970       11.27300
N          1.46530        6.27930       11.07150
C          4.77890        6.42680       10.72390
N          5.44750        7.04170       10.01990
H          1.22350       -5.93670      -12.69260
H          6.58690       -2.74510      -12.81310
H          8.11740       -3.12730      -14.74550
H          5.18270       -5.58790      -16.64740
H          1.22560        0.55350      -12.88960
H          1.95590        2.67630      -11.88600
H          4.47950        2.97330       -9.27780
H          3.40230        3.86400      -10.36480
H          2.80940        3.27560       -8.81170
H          4.03780        0.52750       -8.84500
H          3.32670       -1.60290       -9.86820
H          0.02470       -2.96990      -13.69390
H          0.34530       -3.26430      -16.09970
H          3.39420       -2.10610      -17.95890
H          2.56490       -3.65790      -17.81320
H          1.64030       -2.20820      -18.17680
H          4.15310       -1.35700      -15.84140
H          3.83330       -1.04690      -13.42760
H         -3.03190       -3.07750       -9.42540
H         -5.47480       -3.08860       -9.56200
H         -7.70720       -4.64560       -6.98820
H         -7.63440       -3.26860       -8.09820
H         -7.56200       -4.91070       -8.72750
H         -5.68060       -5.41630       -5.99560
H         -3.23090       -5.36520       -5.82020
H          0.71300       -4.15340       -6.20790
H          2.02610       -6.09340       -5.45300
H          2.13600       -8.45360       -4.96470
H          1.99830       -9.14130       -6.58230
H          0.77740       -9.51210       -5.36990
H         -0.92590       -8.71200       -7.07070
H         -2.22600       -6.78070       -7.84690
H         -0.40150        0.67320       -6.90440
H         -1.16890        2.76300       -0.73770
H          0.78940        1.62880        1.03790
H          3.09820        2.28580        1.53590
H          4.64370        3.40430        3.01800
H          4.04590        4.48940        4.28120
H          4.33450        5.21260        1.32350
H          5.41120        5.73560        2.62350
H          3.73520        6.29170        2.58340
H          1.67990        5.30730        4.19050
H         -0.63590        4.70260        3.63890
H         -4.05050        3.08580        3.11380
H         -5.53340        4.98660        2.69430
H         -6.08810        6.90000        1.25960
H         -4.85190        7.64250        0.23400
H         -3.75270        8.60210        2.25850
H         -4.98260        7.86080        3.28100
H         -5.43450        9.13110        2.13870
H         -2.54980        6.78180        0.23340
H         -1.05390        4.88880        0.66390
H         -2.98810       -1.53340        1.09740
H         -4.87340       -0.15200       -0.89470
H         -7.18130       -0.55220       -1.60810
H         -8.29090       -3.44420       -3.51950
H         -8.80680       -1.95850       -2.70930
H         -7.56330       -2.10020       -5.50010
H         -9.28380       -1.87180       -5.15800
H         -8.11370       -0.63000       -4.69820
H         -5.85810       -3.72060       -4.13930
H         -3.55390       -3.35010       -3.40480
H         -0.08480       -2.18090       -2.60750
H          1.01830       -4.34470       -2.34830
H          1.16810       -6.46590       -1.08130
H         -0.25180       -7.10230       -0.23830
H          0.19680       -8.36950       -2.34060
H          0.03400       -6.87950       -3.27820
H         -1.35970       -7.53830       -2.42610
H         -2.28770       -5.76800       -0.06320
H         -3.42020       -3.61430       -0.35700
H         -2.33400       -0.07280        7.39170
H          1.85220        2.23550        4.98840
H          1.44700        0.40590        3.41870
H          0.26480       -1.70030        2.97400
H          1.44340       -2.71390        3.80430
H         -0.24580       -2.74480        4.30790
H          0.30480       -2.13230        6.64950
H          0.71300       -0.30420        8.23110
H          1.20800        4.76940        8.11120
H          2.96320        6.45620        7.81760
H          5.11370        6.88670        6.18280
H          5.70080        6.61480        7.81830
H          6.38400        5.68930        6.47180
H          5.63470        3.44320        6.41210
H          3.89530        1.74300        6.73620
H         -3.20760        4.10080       13.72570
H         -5.25980        2.74980       13.76410
H         -6.26680        0.51080       13.92790
H         -5.33100       -0.92860       13.49360
H         -5.98120        0.11810       12.23450
H         -3.00450       -0.71710       12.71990
H         -0.94780        0.62400       12.69920
H         -1.20470        2.88290       15.76720
H         -0.94240        4.57850       17.52880
H         -0.83240        7.00410       18.07670
H         -0.21450        8.15420       16.87890
H          0.88580        7.04280       17.69220
H          0.24930        7.43950       14.59560
H         -0.01790        5.75890       12.83410
H          1.74460        3.45150       14.37990
H          6.95480        5.58960       11.54050
H          8.99730        5.41420       12.90250
