208

C         -8.79120       -3.69360        4.02810
C         -9.38490       -3.23280        5.18570
C         -8.73320       -2.46950        6.25060
O         -7.54810       -2.21210        6.37570
C         -9.81350       -2.04250        7.16250
C         -9.73250       -1.28020        8.31070
C        -10.90050       -0.99760        9.00250
C        -12.11400       -1.48260        8.53180
Cl       -13.55650       -1.11860        9.40290
C        -12.20860       -2.25520        7.37750
C        -11.04160       -2.53430        6.68860
C        -10.79460       -3.31530        5.47350
C        -11.75230       -4.01230        4.77560
C        -11.50710       -4.88440        3.69840
N        -11.39370       -5.64230        2.84090
C        -13.12960       -3.97740        5.06990
N        -14.26660       -3.97960        5.23410
C         -7.46490       -3.65440        3.61290
C         -7.03570       -4.12780        2.34310
N         -7.85230       -4.50760        1.31310
C         -7.39960       -5.51080        0.43310
C         -6.81430       -6.66760        0.94220
C         -6.36890       -7.65160        0.08430
C         -6.49990       -7.51510       -1.29380
C         -5.99790       -8.58690       -2.21080
C         -7.09350       -6.36160       -1.79030
C         -7.53890       -5.36600       -0.94290
C         -9.06480       -3.85470        1.02300
C         -9.19490       -2.48030        1.21050
C        -10.39280       -1.85580        0.92900
C        -11.47910       -2.57190        0.43780
C        -12.78800       -1.89910        0.16280
C        -11.32790       -3.93660        0.22430
C        -10.14080       -4.57870        0.51610
C         -5.63390       -4.14920        2.26740
S         -4.50350       -4.54390        1.01010
C         -3.17100       -4.07220        2.05130
C         -3.59080       -3.57860        3.27900
N         -2.77140       -3.02770        4.24660
C         -3.12560       -3.18100        5.59740
C         -2.97990       -2.12350        6.48970
C         -3.35890       -2.27360        7.80830
C         -3.89460       -3.46900        8.27070
C         -4.34950       -3.61270        9.69050
C         -4.02570       -4.52260        7.37490
C         -3.64540       -4.38810        6.05530
C         -1.64550       -2.27180        3.89470
C         -1.65820       -1.44660        2.77320
C         -0.51060       -0.78420        2.38110
C          0.67170       -0.90940        3.09720
C          1.92910       -0.22730        2.65140
C          0.65670       -1.67780        4.25660
C         -0.48150       -2.34630        4.65740
C         -4.99940       -3.65690        3.40100
S         -6.10540       -3.14820        4.62400
C         -1.81070       -4.12550        1.60200
C         -0.73050       -4.61490        2.30990
C         -0.86080       -5.49040        3.47210
C         -1.91010       -6.40490        3.55500
C         -2.03160       -7.22140        4.66240
C         -1.11740       -7.13720        5.69840
C         -0.05330       -6.24850        5.62400
C          0.98170       -6.19010        6.70980
C          2.15510       -7.11270        6.37430
C          0.07160       -5.44260        4.50290
C          0.48600       -4.18100        1.73670
S          2.15940       -4.33920        2.21150
C          2.61850       -3.31120        0.89630
C          3.76680       -2.68920        0.37170
C          5.14050       -2.80330        0.67990
C          6.09470       -2.05150       -0.09080
N          7.34280       -2.29820        0.27320
S          7.32390       -3.37510        1.48250
N          5.71950       -3.56870        1.59120
C          5.62520       -1.11010       -1.03430
C          6.27540       -0.07910       -1.73160
S          7.87530        0.54130       -1.95940
C          7.20240        1.88340       -2.85590
C          7.77690        3.02810       -3.43260
C          9.19870        3.35490       -3.34990
C          9.61630        4.64370       -3.02440
C         10.96450        4.93400       -2.95280
C         11.90530        3.94610       -3.19030
C         11.50640        2.65140       -3.49570
C         12.51470        1.55640       -3.69030
C         12.70500        0.77950       -2.38580
C         10.15140        2.36700       -3.56870
C          6.80400        3.85110       -3.98330
S          5.18850        3.22420       -3.77290
C          5.80870        1.82990       -2.97100
C          5.28220        0.69610       -2.33950
N          4.04830        0.16110       -2.07860
C          4.23440       -0.95660       -1.29000
C          3.32250       -1.85950       -0.69220
N          1.95770       -2.03050       -0.85700
C          1.53660       -2.89700        0.11870
C          0.32080       -3.40420        0.59110
S         -1.34150       -3.22990        0.16550
C          1.19360       -1.90800       -2.07950
C          1.01680       -3.26540       -2.76000
C          2.85050        0.93770       -2.31050
C          2.46760        0.98130       -3.78960
C          7.02910        5.04890       -4.74220
C          6.26330        6.20310       -4.68100
C          5.11040        6.50850       -3.81090
O          4.52490        5.81080       -3.01710
N          4.78750        7.83340       -4.05880
C          3.72060        8.53170       -3.37740
C          4.22760        9.22350       -2.11670
C          5.60500        8.42670       -4.99680
O          5.53580        9.58950       -5.32010
C          6.54730        7.36750       -5.43490
C          7.59200        7.46130       -6.32970
C          8.41060        6.30180       -6.41540
C          8.12340        5.11350       -5.65790
N          8.96620        4.12860       -5.95100
S         10.03280        4.65030       -7.03130
N          9.46740        6.14470       -7.20740
C          7.91540        8.62870       -7.11780
C          7.00690        9.38310       -7.76590
C          5.54820        9.04810       -7.88730
O          5.04290        7.96070       -7.73260
C          4.91490       10.28700       -8.35330
C          3.55190       10.57250       -8.48640
O          2.68010        9.61420       -8.13950
C          1.29890        9.86830       -8.24590
C          3.20890       11.84390       -8.96030
C          4.18710       12.76880       -9.28310
C          5.53930       12.48820       -9.15070
C          5.90020       11.23620       -8.67920
C          7.21860       10.66870       -8.41300
C          8.41910       11.24810       -8.71300
C          9.68410       10.67240       -8.46100
N         10.74820       10.27710       -8.29100
C          8.56410       12.49950       -9.35110
N          8.76060       13.50440       -9.86950
H         -9.46200       -4.15190        3.31280
H         -8.77610       -0.91670        8.65340
H        -10.87710       -0.40430        9.90280
H        -13.17080       -2.61130        7.04870
H         -6.72170       -6.79050        2.01150
H         -5.91870       -8.54610        0.48930
H         -6.31110       -9.56900       -1.86170
H         -6.36640       -8.43910       -3.22250
H         -4.90820       -8.57510       -2.23700
H         -7.20510       -6.23540       -2.85730
H         -7.99230       -4.47080       -1.34180
H         -8.35740       -1.90850        1.58290
H        -10.48210       -0.79040        1.08560
H        -13.48260       -2.09130        0.98130
H        -12.66280       -0.82320        0.06820
H        -13.23640       -2.28560       -0.74990
H        -12.15790       -4.51150       -0.15730
H        -10.04630       -5.64230        0.36520
H         -2.57930       -1.18310        6.14070
H         -3.24930       -1.44040        8.48750
H         -5.42320       -3.43210        9.75110
H         -4.15740       -4.61760       10.06070
H         -3.84810       -2.89550       10.33590
H         -4.43190       -5.46420        7.71530
H         -3.74300       -5.21870        5.37250
H         -2.56910       -1.33410        2.20300
H         -0.53650       -0.16430        1.49580
H          2.13310        0.64030        3.27930
H          2.77970       -0.90220        2.72970
H          1.84530        0.10950        1.62050
H          1.56040       -1.76820        4.84200
H         -0.47760       -2.95030        5.55210
H         -2.61820       -6.48580        2.74350
H         -2.84540       -7.93020        4.71890
H         -1.22650       -7.77060        6.56680
H          0.53980       -6.49460        7.66060
H          1.34950       -5.16740        6.81510
H          2.61110       -6.81500        5.43290
H          2.90950       -7.06870        7.15620
H          1.81240       -8.14080        6.27940
H          0.89900       -4.75280        4.43860
H          8.88230        5.41060       -2.82080
H         11.28530        5.93580       -2.70630
H         12.95810        4.18270       -3.13380
H         12.17150        0.87210       -4.46870
H         13.47070        1.98060       -4.00290
H         13.05450        1.44400       -1.59870
H         13.43490       -0.01540       -2.51890
H         11.76300        0.33900       -2.06760
H          9.82930        1.36840       -3.82340
H          1.71750       -1.24720       -2.76150
H          0.21250       -1.48620       -1.83720
H          0.44830       -3.94530       -2.13180
H          1.98760       -3.71080       -2.96740
H          0.48310       -3.13560       -3.69760
H          3.04730        1.96270       -1.97570
H          2.04450        0.53520       -1.69610
H          3.20370        1.55130       -4.34900
H          2.41550       -0.01540       -4.22290
H          1.50120        1.46420       -3.90300
H          3.31400        9.26530       -4.07770
H          2.95800        7.79080       -3.12580
H          4.99670        9.94910       -2.37120
H          3.40820        9.73970       -1.62450
H          4.64410        8.49150       -1.42850
H          8.97020        8.86570       -7.16790
H          0.80880        8.95370       -7.91690
H          0.99200       10.69700       -7.60000
H          1.00820       10.08220       -9.27910
H          2.17310       12.12050       -9.07850
H          3.88520       13.73980       -9.64620
H          6.27350       13.23390       -9.40410
