
  xtb     02092202153D
 energy: -337.927713869234 gnorm: 0.000389384917 xtb: 6.4.1 (unknown)
197217  0     0  0            999 V2000
   -5.8035   -5.4973   -5.5393 C   0  0  0  0  0  0  0  0  0  0  0  0
   -6.9223   -5.6115   -6.3303 C   0  0  0  0  0  0  0  0  0  0  0  0
   -7.1634   -6.8689   -7.0720 C   0  0  0  0  0  0  0  0  0  0  0  0
   -6.5563   -7.9126   -6.9671 O   0  0  0  0  0  0  0  0  0  0  0  0
   -8.2592   -6.5555   -8.0158 C   0  0  0  0  0  0  0  0  0  0  0  0
   -8.8106   -7.3430   -9.0066 C   0  0  0  0  0  0  0  0  0  0  0  0
   -9.8308   -6.8159   -9.7839 C   0  0  0  0  0  0  0  0  0  0  0  0
  -10.2836   -5.5250   -9.5440 C   0  0  0  0  0  0  0  0  0  0  0  0
  -11.5461   -4.8832  -10.5290 Cl  0  0  0  0  0  0  0  0  0  0  0  0
   -9.7481   -4.7251   -8.5396 C   0  0  0  0  0  0  0  0  0  0  0  0
   -8.7167   -5.2478   -7.7817 C   0  0  0  0  0  0  0  0  0  0  0  0
   -7.9483   -4.6740   -6.6756 C   0  0  0  0  0  0  0  0  0  0  0  0
   -8.2937   -3.5555   -5.9479 C   0  0  0  0  0  0  0  0  0  0  0  0
   -7.7458   -3.2792   -4.6857 C   0  0  0  0  0  0  0  0  0  0  0  0
   -7.3481   -3.0466   -3.6324 N   0  0  0  0  0  0  0  0  0  0  0  0
   -9.2602   -2.6178   -6.3488 C   0  0  0  0  0  0  0  0  0  0  0  0
   -9.9979   -1.7925   -6.6572 N   0  0  0  0  0  0  0  0  0  0  0  0
   -5.0886   -4.3726   -5.1139 C   0  0  0  0  0  0  0  0  0  0  0  0
   -5.0233   -3.0395   -5.5738 C   0  0  0  0  0  0  0  0  0  0  0  0
   -5.5879   -2.5498   -6.7236 N   0  0  0  0  0  0  0  0  0  0  0  0
   -5.7601   -3.3332   -7.8780 C   0  0  0  0  0  0  0  0  0  0  0  0
   -4.9083   -4.3931   -8.1806 C   0  0  0  0  0  0  0  0  0  0  0  0
   -5.1275   -5.1633   -9.3043 C   0  0  0  0  0  0  0  0  0  0  0  0
   -6.1798   -4.8911  -10.1723 C   0  0  0  0  0  0  0  0  0  0  0  0
   -6.4162   -5.7489  -11.3748 C   0  0  0  0  0  0  0  0  0  0  0  0
   -6.9892   -3.7966   -9.8972 C   0  0  0  0  0  0  0  0  0  0  0  0
   -6.7946   -3.0325   -8.7640 C   0  0  0  0  0  0  0  0  0  0  0  0
   -5.7964   -1.1543   -6.8622 C   0  0  0  0  0  0  0  0  0  0  0  0
   -5.3514   -0.5009   -8.0086 C   0  0  0  0  0  0  0  0  0  0  0  0
   -5.6313    0.8362   -8.1948 C   0  0  0  0  0  0  0  0  0  0  0  0
   -6.3576    1.5558   -7.2509 C   0  0  0  0  0  0  0  0  0  0  0  0
   -6.7040    2.9899   -7.5071 C   0  0  0  0  0  0  0  0  0  0  0  0
   -6.7604    0.9057   -6.0929 C   0  0  0  0  0  0  0  0  0  0  0  0
   -6.4823   -0.4333   -5.8916 C   0  0  0  0  0  0  0  0  0  0  0  0
   -4.1810   -2.2695   -4.7392 C   0  0  0  0  0  0  0  0  0  0  0  0
   -3.7170   -0.6011   -4.7021 S   0  0  0  0  0  0  0  0  0  0  0  0
   -2.6626   -0.9024   -3.3302 C   0  0  0  0  0  0  0  0  0  0  0  0
   -2.7092   -2.2210   -2.8941 C   0  0  0  0  0  0  0  0  0  0  0  0
   -2.0688   -2.7519   -1.7861 N   0  0  0  0  0  0  0  0  0  0  0  0
   -1.6182   -4.0823   -1.8536 C   0  0  0  0  0  0  0  0  0  0  0  0
   -1.0054   -4.5604   -3.0085 C   0  0  0  0  0  0  0  0  0  0  0  0
   -0.5848   -5.8740   -3.0777 C   0  0  0  0  0  0  0  0  0  0  0  0
   -0.7514   -6.7374   -2.0027 C   0  0  0  0  0  0  0  0  0  0  0  0
   -0.3206   -8.1688   -2.0928 C   0  0  0  0  0  0  0  0  0  0  0  0
   -1.3507   -6.2463   -0.8479 C   0  0  0  0  0  0  0  0  0  0  0  0
   -1.7838   -4.9385   -0.7688 C   0  0  0  0  0  0  0  0  0  0  0  0
   -1.8641   -2.0056   -0.6200 C   0  0  0  0  0  0  0  0  0  0  0  0
   -0.6955   -2.1721    0.1220 C   0  0  0  0  0  0  0  0  0  0  0  0
   -0.4311   -1.3500    1.1997 C   0  0  0  0  0  0  0  0  0  0  0  0
   -1.3123   -0.3425    1.5686 C   0  0  0  0  0  0  0  0  0  0  0  0
   -1.0041    0.5966    2.6943 C   0  0  0  0  0  0  0  0  0  0  0  0
   -2.5039   -0.2230    0.8609 C   0  0  0  0  0  0  0  0  0  0  0  0
   -2.7877   -1.0447   -0.2108 C   0  0  0  0  0  0  0  0  0  0  0  0
   -3.5656   -2.9858   -3.7216 C   0  0  0  0  0  0  0  0  0  0  0  0
   -4.0023   -4.6484   -3.7471 S   0  0  0  0  0  0  0  0  0  0  0  0
   -1.9265    0.1684   -2.7328 C   0  0  0  0  0  0  0  0  0  0  0  0
   -2.3889    1.4162   -2.3779 C   0  0  0  0  0  0  0  0  0  0  0  0
   -3.7216    1.9603   -2.6951 C   0  0  0  0  0  0  0  0  0  0  0  0
   -4.7272    1.8801   -1.7398 C   0  0  0  0  0  0  0  0  0  0  0  0
   -5.9735    2.4245   -1.9840 C   0  0  0  0  0  0  0  0  0  0  0  0
   -6.2137    3.0716   -3.1833 C   0  0  0  0  0  0  0  0  0  0  0  0
   -5.2116    3.1587   -4.1316 C   0  0  0  0  0  0  0  0  0  0  0  0
   -3.9611    2.5992   -3.9118 C   0  0  0  0  0  0  0  0  0  0  0  0
   -2.8798    2.7519   -4.9426 C   0  0  0  0  0  0  0  0  0  0  0  0
   -2.0980    4.0461   -4.7099 C   0  0  0  0  0  0  0  0  0  0  0  0
   -1.4596    2.0924   -1.5656 C   0  0  0  0  0  0  0  0  0  0  0  0
   -1.5541    3.5857   -0.6638 S   0  0  0  0  0  0  0  0  0  0  0  0
   -0.0326    3.2055    0.0754 C   0  0  0  0  0  0  0  0  0  0  0  0
    0.8254    3.7065    1.0705 C   0  0  0  0  0  0  0  0  0  0  0  0
    0.8387    4.9177    1.7974 C   0  0  0  0  0  0  0  0  0  0  0  0
    1.9055    5.1606    2.7301 C   0  0  0  0  0  0  0  0  0  0  0  0
    1.8205    6.3545    3.2940 N   0  0  0  0  0  0  0  0  0  0  0  0
    0.5122    7.1082    2.7096 S   0  0  0  0  0  0  0  0  0  0  0  0
    0.0008    5.9388    1.7138 N   0  0  0  0  0  0  0  0  0  0  0  0
    2.8281    4.1246    3.0013 C   0  0  0  0  0  0  0  0  0  0  0  0
    3.7996    3.9771    4.0028 C   0  0  0  0  0  0  0  0  0  0  0  0
    4.4906    4.8993    5.2945 S   0  0  0  0  0  0  0  0  0  0  0  0
    5.3964    3.4835    5.7767 C   0  0  0  0  0  0  0  0  0  0  0  0
    6.2790    3.2503    6.8337 C   0  0  0  0  0  0  0  0  0  0  0  0
    6.6603    4.3052    7.7887 C   0  0  0  0  0  0  0  0  0  0  0  0
    6.1425    4.3400    9.0869 C   0  0  0  0  0  0  0  0  0  0  0  0
    5.1364    3.3265    9.5529 C   0  0  0  0  0  0  0  0  0  0  0  0
    3.7252    3.7428    9.1329 C   0  0  0  0  0  0  0  0  0  0  0  0
    6.5452    5.3643    9.9317 C   0  0  0  0  0  0  0  0  0  0  0  0
    7.4351    6.3363    9.5112 C   0  0  0  0  0  0  0  0  0  0  0  0
    7.9236    6.3094    8.2168 C   0  0  0  0  0  0  0  0  0  0  0  0
    7.5321    5.3006    7.3579 C   0  0  0  0  0  0  0  0  0  0  0  0
    6.7374    1.9324    6.8459 C   0  0  0  0  0  0  0  0  0  0  0  0
    6.0501    0.9966    5.5236 S   0  0  0  0  0  0  0  0  0  0  0  0
    5.1697    2.3681    4.9596 C   0  0  0  0  0  0  0  0  0  0  0  0
    4.2620    2.6560    3.9369 C   0  0  0  0  0  0  0  0  0  0  0  0
    3.6392    1.9949    2.9090 N   0  0  0  0  0  0  0  0  0  0  0  0
    2.7656    2.8828    2.3105 C   0  0  0  0  0  0  0  0  0  0  0  0
    1.8560    2.7408    1.2355 C   0  0  0  0  0  0  0  0  0  0  0  0
    1.6732    1.7282    0.3107 N   0  0  0  0  0  0  0  0  0  0  0  0
    0.5225    2.0047   -0.3770 C   0  0  0  0  0  0  0  0  0  0  0  0
   -0.2862    1.3763   -1.3295 C   0  0  0  0  0  0  0  0  0  0  0  0
   -0.2720   -0.1125   -2.1990 S   0  0  0  0  0  0  0  0  0  0  0  0
    2.6717    0.8562   -0.2661 C   0  0  0  0  0  0  0  0  0  0  0  0
    3.0948    1.3387   -1.6533 C   0  0  0  0  0  0  0  0  0  0  0  0
    3.6483    0.5485    2.8558 C   0  0  0  0  0  0  0  0  0  0  0  0
    4.9739   -0.0090    2.3393 C   0  0  0  0  0  0  0  0  0  0  0  0
    7.7083    1.4002    7.7279 C   0  0  0  0  0  0  0  0  0  0  0  0
    8.6377    2.5412    8.6671 S   0  0  0  0  0  0  0  0  0  0  0  0
    9.6327    1.3068    9.3982 C   0  0  0  0  0  0  0  0  0  0  0  0
    9.2339    0.0717    8.9156 C   0  0  0  0  0  0  0  0  0  0  0  0
    9.8075   -1.5165    9.2771 S   0  0  0  0  0  0  0  0  0  0  0  0
    8.5837   -2.1891    8.2313 C   0  0  0  0  0  0  0  0  0  0  0  0
    8.5091   -3.6438    8.0977 C   0  0  0  0  0  0  0  0  0  0  0  0
    7.7278   -4.2453    7.4029 O   0  0  0  0  0  0  0  0  0  0  0  0
    9.4379   -4.2194    8.8743 O   0  0  0  0  0  0  0  0  0  0  0  0
    9.5142   -5.6436    8.8456 C   0  0  0  0  0  0  0  0  0  0  0  0
   10.3430   -6.1320    7.6664 C   0  0  0  0  0  0  0  0  0  0  0  0
    7.7906   -1.2408    7.6364 C   0  0  0  0  0  0  0  0  0  0  0  0
    8.1499    0.0929    7.9934 C   0  0  0  0  0  0  0  0  0  0  0  0
    6.4903   -1.7032    6.6400 Cl  0  0  0  0  0  0  0  0  0  0  0  0
   10.6285    1.5928   10.3437 C   0  0  0  0  0  0  0  0  0  0  0  0
   10.9269    2.8207   10.8496 C   0  0  0  0  0  0  0  0  0  0  0  0
   10.1345    4.3232   10.4415 S   0  0  0  0  0  0  0  0  0  0  0  0
   11.1391    5.2139   11.5848 C   0  0  0  0  0  0  0  0  0  0  0  0
   10.9939    6.8178   11.8441 S   0  0  0  0  0  0  0  0  0  0  0  0
   12.0097    4.3821   12.2030 N   0  0  0  0  0  0  0  0  0  0  0  0
   12.9790    4.8582   13.1705 C   0  0  0  0  0  0  0  0  0  0  0  0
   14.2096    5.4333   12.4808 C   0  0  0  0  0  0  0  0  0  0  0  0
   11.9639    3.0388   11.8517 C   0  0  0  0  0  0  0  0  0  0  0  0
   12.6875    2.1970   12.3364 O   0  0  0  0  0  0  0  0  0  0  0  0
   -5.3739   -6.4490   -5.2382 H   0  0  0  0  0  0  0  0  0  0  0  0
   -8.4491   -8.3469   -9.1664 H   0  0  0  0  0  0  0  0  0  0  0  0
  -10.2788   -7.3997  -10.5724 H   0  0  0  0  0  0  0  0  0  0  0  0
  -10.1251   -3.7276   -8.3831 H   0  0  0  0  0  0  0  0  0  0  0  0
   -4.0722   -4.6145   -7.5350 H   0  0  0  0  0  0  0  0  0  0  0  0
   -4.4684   -5.9932   -9.5108 H   0  0  0  0  0  0  0  0  0  0  0  0
   -6.3112   -6.8006  -11.1171 H   0  0  0  0  0  0  0  0  0  0  0  0
   -7.4111   -5.5820  -11.7795 H   0  0  0  0  0  0  0  0  0  0  0  0
   -5.6858   -5.5201  -12.1512 H   0  0  0  0  0  0  0  0  0  0  0  0
   -7.7999   -3.5495  -10.5663 H   0  0  0  0  0  0  0  0  0  0  0  0
   -7.4529   -2.2020   -8.5546 H   0  0  0  0  0  0  0  0  0  0  0  0
   -4.7971   -1.0509   -8.7551 H   0  0  0  0  0  0  0  0  0  0  0  0
   -5.2897    1.3295   -9.0933 H   0  0  0  0  0  0  0  0  0  0  0  0
   -5.8014    3.5848   -7.6435 H   0  0  0  0  0  0  0  0  0  0  0  0
   -7.2815    3.4042   -6.6853 H   0  0  0  0  0  0  0  0  0  0  0  0
   -7.2931    3.0743   -8.4196 H   0  0  0  0  0  0  0  0  0  0  0  0
   -7.3151    1.4416   -5.3386 H   0  0  0  0  0  0  0  0  0  0  0  0
   -6.8169   -0.9211   -4.9897 H   0  0  0  0  0  0  0  0  0  0  0  0
   -0.8567   -3.8953   -3.8472 H   0  0  0  0  0  0  0  0  0  0  0  0
   -0.1140   -6.2325   -3.9816 H   0  0  0  0  0  0  0  0  0  0  0  0
   -0.0175   -8.5460   -1.1188 H   0  0  0  0  0  0  0  0  0  0  0  0
    0.5059   -8.2835   -2.7902 H   0  0  0  0  0  0  0  0  0  0  0  0
   -1.1489   -8.7827   -2.4481 H   0  0  0  0  0  0  0  0  0  0  0  0
   -1.4898   -6.9021   -0.0008 H   0  0  0  0  0  0  0  0  0  0  0  0
   -2.2574   -4.5721    0.1299 H   0  0  0  0  0  0  0  0  0  0  0  0
    0.0181   -2.9266   -0.1744 H   0  0  0  0  0  0  0  0  0  0  0  0
    0.4889   -1.4843    1.7519 H   0  0  0  0  0  0  0  0  0  0  0  0
   -1.7520    0.5074    3.4812 H   0  0  0  0  0  0  0  0  0  0  0  0
   -0.0262    0.3880    3.1223 H   0  0  0  0  0  0  0  0  0  0  0  0
   -1.0155    1.6283    2.3432 H   0  0  0  0  0  0  0  0  0  0  0  0
   -3.2160    0.5341    1.1571 H   0  0  0  0  0  0  0  0  0  0  0  0
   -3.7186   -0.9416   -0.7484 H   0  0  0  0  0  0  0  0  0  0  0  0
   -4.5235    1.3901   -0.7996 H   0  0  0  0  0  0  0  0  0  0  0  0
   -6.7501    2.3510   -1.2376 H   0  0  0  0  0  0  0  0  0  0  0  0
   -7.1808    3.5135   -3.3751 H   0  0  0  0  0  0  0  0  0  0  0  0
   -5.3938    3.6732   -5.0626 H   0  0  0  0  0  0  0  0  0  0  0  0
   -3.3294    2.7696   -5.9375 H   0  0  0  0  0  0  0  0  0  0  0  0
   -2.1953    1.9027   -4.8991 H   0  0  0  0  0  0  0  0  0  0  0  0
   -2.7631    4.9048   -4.7651 H   0  0  0  0  0  0  0  0  0  0  0  0
   -1.3183    4.1601   -5.4595 H   0  0  0  0  0  0  0  0  0  0  0  0
   -1.6352    4.0389   -3.7258 H   0  0  0  0  0  0  0  0  0  0  0  0
    5.3618    2.3436    9.1343 H   0  0  0  0  0  0  0  0  0  0  0  0
    5.1787    3.2475   10.6408 H   0  0  0  0  0  0  0  0  0  0  0  0
    3.6534    3.8125    8.0502 H   0  0  0  0  0  0  0  0  0  0  0  0
    2.9954    3.0165    9.4833 H   0  0  0  0  0  0  0  0  0  0  0  0
    3.4789    4.7151    9.5528 H   0  0  0  0  0  0  0  0  0  0  0  0
    6.1547    5.3960   10.9388 H   0  0  0  0  0  0  0  0  0  0  0  0
    7.7478    7.1130   10.1922 H   0  0  0  0  0  0  0  0  0  0  0  0
    8.6098    7.0703    7.8782 H   0  0  0  0  0  0  0  0  0  0  0  0
    7.9110    5.2664    6.3468 H   0  0  0  0  0  0  0  0  0  0  0  0
    3.5465    0.8516    0.3752 H   0  0  0  0  0  0  0  0  0  0  0  0
    2.2565   -0.1549   -0.3365 H   0  0  0  0  0  0  0  0  0  0  0  0
    3.8847    0.6977   -2.0349 H   0  0  0  0  0  0  0  0  0  0  0  0
    3.4673    2.3596   -1.5989 H   0  0  0  0  0  0  0  0  0  0  0  0
    2.2612    1.3077   -2.3488 H   0  0  0  0  0  0  0  0  0  0  0  0
    3.4925    0.1759    3.8753 H   0  0  0  0  0  0  0  0  0  0  0  0
    2.8073    0.2149    2.2471 H   0  0  0  0  0  0  0  0  0  0  0  0
    4.8940   -1.0856    2.2189 H   0  0  0  0  0  0  0  0  0  0  0  0
    5.7701    0.1975    3.0487 H   0  0  0  0  0  0  0  0  0  0  0  0
    5.2537    0.4306    1.3846 H   0  0  0  0  0  0  0  0  0  0  0  0
    8.4989   -6.0505    8.7899 H   0  0  0  0  0  0  0  0  0  0  0  0
    9.9766   -5.9195    9.7952 H   0  0  0  0  0  0  0  0  0  0  0  0
    9.8550   -5.8637    6.7324 H   0  0  0  0  0  0  0  0  0  0  0  0
   10.4414   -7.2126    7.7142 H   0  0  0  0  0  0  0  0  0  0  0  0
   11.3328   -5.6823    7.6915 H   0  0  0  0  0  0  0  0  0  0  0  0
   11.2084    0.7579   10.7180 H   0  0  0  0  0  0  0  0  0  0  0  0
   13.2521    3.9951   13.7822 H   0  0  0  0  0  0  0  0  0  0  0  0
   12.4966    5.6201   13.7874 H   0  0  0  0  0  0  0  0  0  0  0  0
   13.9320    6.2815   11.8596 H   0  0  0  0  0  0  0  0  0  0  0  0
   14.6817    4.6757   11.8598 H   0  0  0  0  0  0  0  0  0  0  0  0
   14.9223    5.7676   13.2289 H   0  0  0  0  0  0  0  0  0  0  0  0
  1  2  2  0  0  0  0
  2  3  1  0  0  0  0
  3  4  2  0  0  0  0
  3  5  1  0  0  0  0
  5  6  2  0  0  0  0
  6  7  1  0  0  0  0
  7  8  2  0  0  0  0
  8  9  1  0  0  0  0
  8 10  1  0  0  0  0
 10 11  2  0  0  0  0
 11 12  1  0  0  0  0
 12 13  2  0  0  0  0
 13 14  1  0  0  0  0
 14 15  3  0  0  0  0
 13 16  1  0  0  0  0
 16 17  3  0  0  0  0
  1 18  1  0  0  0  0
 18 19  2  0  0  0  0
 19 20  1  0  0  0  0
 20 21  1  0  0  0  0
 21 22  2  0  0  0  0
 22 23  1  0  0  0  0
 23 24  2  0  0  0  0
 24 25  1  0  0  0  0
 24 26  1  0  0  0  0
 26 27  2  0  0  0  0
 20 28  1  0  0  0  0
 28 29  2  0  0  0  0
 29 30  1  0  0  0  0
 30 31  2  0  0  0  0
 31 32  1  0  0  0  0
 31 33  1  0  0  0  0
 33 34  2  0  0  0  0
 19 35  1  0  0  0  0
 35 36  1  0  0  0  0
 36 37  1  0  0  0  0
 37 38  2  0  0  0  0
 38 39  1  0  0  0  0
 39 40  1  0  0  0  0
 40 41  2  0  0  0  0
 41 42  1  0  0  0  0
 42 43  2  0  0  0  0
 43 44  1  0  0  0  0
 43 45  1  0  0  0  0
 45 46  2  0  0  0  0
 39 47  1  0  0  0  0
 47 48  2  0  0  0  0
 48 49  1  0  0  0  0
 49 50  2  0  0  0  0
 50 51  1  0  0  0  0
 50 52  1  0  0  0  0
 52 53  2  0  0  0  0
 38 54  1  0  0  0  0
 54 55  1  0  0  0  0
 37 56  1  0  0  0  0
 56 57  2  0  0  0  0
 57 58  1  0  0  0  0
 58 59  2  0  0  0  0
 59 60  1  0  0  0  0
 60 61  2  0  0  0  0
 61 62  1  0  0  0  0
 62 63  2  0  0  0  0
 63 64  1  0  0  0  0
 64 65  1  0  0  0  0
 57 66  1  0  0  0  0
 66 67  1  0  0  0  0
 67 68  1  0  0  0  0
 68 69  1  0  0  0  0
 69 70  1  0  0  0  0
 70 71  1  0  0  0  0
 71 72  2  0  0  0  0
 72 73  1  0  0  0  0
 73 74  1  0  0  0  0
 71 75  1  0  0  0  0
 75 76  1  0  0  0  0
 76 77  1  0  0  0  0
 77 78  1  0  0  0  0
 78 79  1  0  0  0  0
 79 80  1  0  0  0  0
 80 81  2  0  0  0  0
 81 82  1  0  0  0  0
 82 83  1  0  0  0  0
 81 84  1  0  0  0  0
 84 85  2  0  0  0  0
 85 86  1  0  0  0  0
 86 87  2  0  0  0  0
 79 88  2  0  0  0  0
 88 89  1  0  0  0  0
 89 90  1  0  0  0  0
 90 91  1  0  0  0  0
 91 92  1  0  0  0  0
 92 93  1  0  0  0  0
 93 94  1  0  0  0  0
 94 95  1  0  0  0  0
 95 96  1  0  0  0  0
 96 97  1  0  0  0  0
 97 98  1  0  0  0  0
 95 99  1  0  0  0  0
 99100  1  0  0  0  0
 92101  1  0  0  0  0
101102  1  0  0  0  0
 88103  1  0  0  0  0
103104  1  0  0  0  0
104105  1  0  0  0  0
105106  2  0  0  0  0
106107  1  0  0  0  0
107108  1  0  0  0  0
108109  1  0  0  0  0
109110  2  0  0  0  0
109111  1  0  0  0  0
111112  1  0  0  0  0
112113  1  0  0  0  0
108114  2  0  0  0  0
114115  1  0  0  0  0
114116  1  0  0  0  0
105117  1  0  0  0  0
117118  2  0  0  0  0
118119  1  0  0  0  0
119120  1  0  0  0  0
120121  2  0  0  0  0
120122  1  0  0  0  0
122123  1  0  0  0  0
123124  1  0  0  0  0
122125  1  0  0  0  0
125126  2  0  0  0  0
 12  2  1  0  0  0  0
 55 18  1  0  0  0  0
 98 56  1  0  0  0  0
115103  2  0  0  0  0
125118  1  0  0  0  0
 11  5  1  0  0  0  0
 27 21  1  0  0  0  0
 34 28  1  0  0  0  0
 54 35  2  0  0  0  0
 63 58  1  0  0  0  0
 97 66  2  0  0  0  0
115106  1  0  0  0  0
 46 40  1  0  0  0  0
 53 47  1  0  0  0  0
 96 68  2  0  0  0  0
 94 69  2  0  0  0  0
 74 70  2  0  0  0  0
 93 75  2  0  0  0  0
 91 76  2  0  0  0  0
 90 78  2  0  0  0  0
 87 80  1  0  0  0  0
  1127  1  0  0  0  0
  6128  1  0  0  0  0
  7129  1  0  0  0  0
 10130  1  0  0  0  0
 22131  1  0  0  0  0
 23132  1  0  0  0  0
 25133  1  0  0  0  0
 25134  1  0  0  0  0
 25135  1  0  0  0  0
 26136  1  0  0  0  0
 27137  1  0  0  0  0
 29138  1  0  0  0  0
 30139  1  0  0  0  0
 32140  1  0  0  0  0
 32141  1  0  0  0  0
 32142  1  0  0  0  0
 33143  1  0  0  0  0
 34144  1  0  0  0  0
 41145  1  0  0  0  0
 42146  1  0  0  0  0
 44147  1  0  0  0  0
 44148  1  0  0  0  0
 44149  1  0  0  0  0
 45150  1  0  0  0  0
 46151  1  0  0  0  0
 48152  1  0  0  0  0
 49153  1  0  0  0  0
 51154  1  0  0  0  0
 51155  1  0  0  0  0
 51156  1  0  0  0  0
 52157  1  0  0  0  0
 53158  1  0  0  0  0
 59159  1  0  0  0  0
 60160  1  0  0  0  0
 61161  1  0  0  0  0
 62162  1  0  0  0  0
 64163  1  0  0  0  0
 64164  1  0  0  0  0
 65165  1  0  0  0  0
 65166  1  0  0  0  0
 65167  1  0  0  0  0
 82168  1  0  0  0  0
 82169  1  0  0  0  0
 83170  1  0  0  0  0
 83171  1  0  0  0  0
 83172  1  0  0  0  0
 84173  1  0  0  0  0
 85174  1  0  0  0  0
 86175  1  0  0  0  0
 87176  1  0  0  0  0
 99177  1  0  0  0  0
 99178  1  0  0  0  0
100179  1  0  0  0  0
100180  1  0  0  0  0
100181  1  0  0  0  0
101182  1  0  0  0  0
101183  1  0  0  0  0
102184  1  0  0  0  0
102185  1  0  0  0  0
102186  1  0  0  0  0
112187  1  0  0  0  0
112188  1  0  0  0  0
113189  1  0  0  0  0
113190  1  0  0  0  0
113191  1  0  0  0  0
117192  1  0  0  0  0
123193  1  0  0  0  0
123194  1  0  0  0  0
124195  1  0  0  0  0
124196  1  0  0  0  0
124197  1  0  0  0  0
M  END
