
  xtb     02072217363D
 energy: -420.992635139508 gnorm: 0.000337854815 xtb: 6.4.1 (unknown)
255281  0     0  0            999 V2000
   -0.2801    1.6215   11.9028 C   0  0  0  0  0  0  0  0  0  0  0  0
   -1.2791    0.8097   12.4058 C   0  0  0  0  0  0  0  0  0  0  0  0
   -2.1907    0.0234   11.5627 C   0  0  0  0  0  0  0  0  0  0  0  0
   -2.2350   -0.0096   10.3465 O   0  0  0  0  0  0  0  0  0  0  0  0
   -2.9586   -0.8269   12.4993 C   0  0  0  0  0  0  0  0  0  0  0  0
   -3.9424   -1.7546   12.2261 C   0  0  0  0  0  0  0  0  0  0  0  0
   -4.5402   -2.4205   13.2864 C   0  0  0  0  0  0  0  0  0  0  0  0
   -4.1336   -2.1522   14.5862 C   0  0  0  0  0  0  0  0  0  0  0  0
   -4.8872   -2.9912   15.8915 Cl  0  0  0  0  0  0  0  0  0  0  0  0
   -3.1346   -1.2263   14.8750 C   0  0  0  0  0  0  0  0  0  0  0  0
   -2.5484   -0.5592   13.8158 C   0  0  0  0  0  0  0  0  0  0  0  0
   -1.5122    0.4740   13.7791 C   0  0  0  0  0  0  0  0  0  0  0  0
   -0.9857    1.1249   14.8686 C   0  0  0  0  0  0  0  0  0  0  0  0
   -1.3301    0.8413   16.2024 C   0  0  0  0  0  0  0  0  0  0  0  0
   -1.5854    0.6702   17.3096 N   0  0  0  0  0  0  0  0  0  0  0  0
   -0.0978    2.2147   14.7772 C   0  0  0  0  0  0  0  0  0  0  0  0
    0.5990    3.1282   14.7741 N   0  0  0  0  0  0  0  0  0  0  0  0
   -0.2848    2.2442   10.6558 C   0  0  0  0  0  0  0  0  0  0  0  0
   -1.3472    2.6181    9.8014 C   0  0  0  0  0  0  0  0  0  0  0  0
   -2.6768    2.6139   10.0994 N   0  0  0  0  0  0  0  0  0  0  0  0
   -3.1724    2.6606   11.4102 C   0  0  0  0  0  0  0  0  0  0  0  0
   -2.5805    3.4664   12.3822 C   0  0  0  0  0  0  0  0  0  0  0  0
   -3.0610    3.4592   13.6742 C   0  0  0  0  0  0  0  0  0  0  0  0
   -4.1390    2.6551   14.0401 C   0  0  0  0  0  0  0  0  0  0  0  0
   -4.6112    2.6225   15.4591 C   0  0  0  0  0  0  0  0  0  0  0  0
   -4.7531    1.8937   13.0554 C   0  0  0  0  0  0  0  0  0  0  0  0
   -4.2836    1.8944   11.7550 C   0  0  0  0  0  0  0  0  0  0  0  0
   -3.6190    2.5656    9.0465 C   0  0  0  0  0  0  0  0  0  0  0  0
   -3.4947    1.6217    8.0321 C   0  0  0  0  0  0  0  0  0  0  0  0
   -4.4201    1.5895    7.0081 C   0  0  0  0  0  0  0  0  0  0  0  0
   -5.4833    2.4849    6.9729 C   0  0  0  0  0  0  0  0  0  0  0  0
   -6.4626    2.4607    5.8403 C   0  0  0  0  0  0  0  0  0  0  0  0
   -5.6062    3.4103    8.0026 C   0  0  0  0  0  0  0  0  0  0  0  0
   -4.6869    3.4556    9.0326 C   0  0  0  0  0  0  0  0  0  0  0  0
   -0.8365    3.1305    8.5855 C   0  0  0  0  0  0  0  0  0  0  0  0
   -1.5651    3.6908    7.1173 S   0  0  0  0  0  0  0  0  0  0  0  0
    0.0190    4.0405    6.4403 C   0  0  0  0  0  0  0  0  0  0  0  0
    1.0543    3.6831    7.2882 C   0  0  0  0  0  0  0  0  0  0  0  0
    2.4013    3.6781    6.9624 N   0  0  0  0  0  0  0  0  0  0  0  0
    2.8225    3.2443    5.7008 C   0  0  0  0  0  0  0  0  0  0  0  0
    2.0776    2.3103    4.9820 C   0  0  0  0  0  0  0  0  0  0  0  0
    2.4296    1.9777    3.6891 C   0  0  0  0  0  0  0  0  0  0  0  0
    3.5441    2.5393    3.0800 C   0  0  0  0  0  0  0  0  0  0  0  0
    3.8771    2.2393    1.6505 C   0  0  0  0  0  0  0  0  0  0  0  0
    4.3325    3.4004    3.8331 C   0  0  0  0  0  0  0  0  0  0  0  0
    3.9865    3.7479    5.1238 C   0  0  0  0  0  0  0  0  0  0  0  0
    3.3159    4.0627    7.9560 C   0  0  0  0  0  0  0  0  0  0  0  0
    3.0080    5.1241    8.8035 C   0  0  0  0  0  0  0  0  0  0  0  0
    3.8877    5.4941    9.7994 C   0  0  0  0  0  0  0  0  0  0  0  0
    5.0941    4.8264    9.9762 C   0  0  0  0  0  0  0  0  0  0  0  0
    6.0292    5.2279   11.0750 C   0  0  0  0  0  0  0  0  0  0  0  0
    5.3940    3.7715    9.1237 C   0  0  0  0  0  0  0  0  0  0  0  0
    4.5187    3.3851    8.1278 C   0  0  0  0  0  0  0  0  0  0  0  0
    0.5477    3.2090    8.5227 C   0  0  0  0  0  0  0  0  0  0  0  0
    1.2953    2.6778    9.9789 S   0  0  0  0  0  0  0  0  0  0  0  0
    0.1520    4.5111    5.0929 C   0  0  0  0  0  0  0  0  0  0  0  0
    0.9850    5.4976    4.6095 C   0  0  0  0  0  0  0  0  0  0  0  0
    1.7139    6.4751    5.4288 C   0  0  0  0  0  0  0  0  0  0  0  0
    3.0676    6.6631    5.1614 C   0  0  0  0  0  0  0  0  0  0  0  0
    3.8365    7.5194    5.9241 C   0  0  0  0  0  0  0  0  0  0  0  0
    3.2499    8.2254    6.9581 C   0  0  0  0  0  0  0  0  0  0  0  0
    1.8906    8.1025    7.1795 C   0  0  0  0  0  0  0  0  0  0  0  0
    1.0997    7.2441    6.4260 C   0  0  0  0  0  0  0  0  0  0  0  0
   -0.3908    7.2785    6.6233 C   0  0  0  0  0  0  0  0  0  0  0  0
   -1.0603    8.0208    5.4652 C   0  0  0  0  0  0  0  0  0  0  0  0
    1.0719    5.4312    3.1995 C   0  0  0  0  0  0  0  0  0  0  0  0
    2.0518    6.2736    2.0232 S   0  0  0  0  0  0  0  0  0  0  0  0
    1.4132    5.2502    0.7785 C   0  0  0  0  0  0  0  0  0  0  0  0
    1.5895    4.9926   -0.5963 C   0  0  0  0  0  0  0  0  0  0  0  0
    2.3268    5.6334   -1.6170 C   0  0  0  0  0  0  0  0  0  0  0  0
    2.2436    5.1295   -2.9640 C   0  0  0  0  0  0  0  0  0  0  0  0
    2.9402    5.8622   -3.8181 N   0  0  0  0  0  0  0  0  0  0  0  0
    3.6433    7.0735   -3.0068 S   0  0  0  0  0  0  0  0  0  0  0  0
    3.0890    6.7118   -1.5296 N   0  0  0  0  0  0  0  0  0  0  0  0
    1.5476    3.9238   -3.2102 C   0  0  0  0  0  0  0  0  0  0  0  0
    1.4791    3.0803   -4.3344 C   0  0  0  0  0  0  0  0  0  0  0  0
    1.9890    3.0402   -5.9899 S   0  0  0  0  0  0  0  0  0  0  0  0
    1.3544    1.4165   -6.1282 C   0  0  0  0  0  0  0  0  0  0  0  0
    1.2889    0.5023   -7.2040 C   0  0  0  0  0  0  0  0  0  0  0  0
    1.6780    0.8734   -8.5704 C   0  0  0  0  0  0  0  0  0  0  0  0
    2.9570    1.3410   -8.8843 C   0  0  0  0  0  0  0  0  0  0  0  0
    4.0844    1.3127   -7.8867 C   0  0  0  0  0  0  0  0  0  0  0  0
    5.3445    0.6286   -8.4146 C   0  0  0  0  0  0  0  0  0  0  0  0
    3.1721    1.8496  -10.1589 C   0  0  0  0  0  0  0  0  0  0  0  0
    2.1656    1.8847  -11.1054 C   0  0  0  0  0  0  0  0  0  0  0  0
    0.9118    1.3883  -10.7976 C   0  0  0  0  0  0  0  0  0  0  0  0
    0.6740    0.8836   -9.5358 C   0  0  0  0  0  0  0  0  0  0  0  0
    0.6532   -0.6634   -6.8252 C   0  0  0  0  0  0  0  0  0  0  0  0
    0.1277   -0.6310   -5.1411 S   0  0  0  0  0  0  0  0  0  0  0  0
    0.7671    0.9593   -4.9479 C   0  0  0  0  0  0  0  0  0  0  0  0
    0.8313    1.9117   -3.9251 C   0  0  0  0  0  0  0  0  0  0  0  0
    0.4532    2.0079   -2.6112 N   0  0  0  0  0  0  0  0  0  0  0  0
    0.8725    3.2484   -2.1594 C   0  0  0  0  0  0  0  0  0  0  0  0
    0.7663    3.8775   -0.8980 C   0  0  0  0  0  0  0  0  0  0  0  0
    0.0484    3.5200    0.2293 N   0  0  0  0  0  0  0  0  0  0  0  0
    0.4644    4.3389    1.2483 C   0  0  0  0  0  0  0  0  0  0  0  0
    0.2689    4.4449    2.6293 C   0  0  0  0  0  0  0  0  0  0  0  0
   -0.6364    3.5883    3.8195 S   0  0  0  0  0  0  0  0  0  0  0  0
   -1.2635    2.9105    0.2450 C   0  0  0  0  0  0  0  0  0  0  0  0
   -2.3520    3.9269    0.5869 C   0  0  0  0  0  0  0  0  0  0  0  0
    0.1823    0.8043   -1.8498 C   0  0  0  0  0  0  0  0  0  0  0  0
    1.2520    0.5397   -0.7953 C   0  0  0  0  0  0  0  0  0  0  0  0
    0.3978   -1.8882   -7.5141 C   0  0  0  0  0  0  0  0  0  0  0  0
    1.0793   -2.5316   -8.5297 C   0  0  0  0  0  0  0  0  0  0  0  0
    2.2315   -2.0589   -9.1914 N   0  0  0  0  0  0  0  0  0  0  0  0
    2.1346   -1.7188  -10.5430 C   0  0  0  0  0  0  0  0  0  0  0  0
    0.9261   -1.8148  -11.2314 C   0  0  0  0  0  0  0  0  0  0  0  0
    0.8384   -1.4343  -12.5551 C   0  0  0  0  0  0  0  0  0  0  0  0
    1.9401   -0.9388  -13.2390 C   0  0  0  0  0  0  0  0  0  0  0  0
    1.8243   -0.5169  -14.6724 C   0  0  0  0  0  0  0  0  0  0  0  0
    3.1353   -0.8223  -12.5434 C   0  0  0  0  0  0  0  0  0  0  0  0
    3.2360   -1.1973  -11.2194 C   0  0  0  0  0  0  0  0  0  0  0  0
    3.4337   -2.5538   -8.6381 C   0  0  0  0  0  0  0  0  0  0  0  0
    3.7022   -2.3416   -7.2893 C   0  0  0  0  0  0  0  0  0  0  0  0
    4.8682   -2.8215   -6.7231 C   0  0  0  0  0  0  0  0  0  0  0  0
    5.7932   -3.5289   -7.4779 C   0  0  0  0  0  0  0  0  0  0  0  0
    7.0724   -4.0279   -6.8786 C   0  0  0  0  0  0  0  0  0  0  0  0
    5.5036   -3.7647   -8.8176 C   0  0  0  0  0  0  0  0  0  0  0  0
    4.3392   -3.2973   -9.3921 C   0  0  0  0  0  0  0  0  0  0  0  0
    0.5469   -3.8202   -8.7620 C   0  0  0  0  0  0  0  0  0  0  0  0
    0.9536   -5.0823   -9.8612 S   0  0  0  0  0  0  0  0  0  0  0  0
   -0.2917   -6.1291   -9.1563 C   0  0  0  0  0  0  0  0  0  0  0  0
   -1.0554   -5.4537   -8.1751 C   0  0  0  0  0  0  0  0  0  0  0  0
   -2.2027   -5.8887   -7.5813 N   0  0  0  0  0  0  0  0  0  0  0  0
   -2.5784   -5.3328   -6.3372 C   0  0  0  0  0  0  0  0  0  0  0  0
   -1.6589   -5.2524   -5.2963 C   0  0  0  0  0  0  0  0  0  0  0  0
   -2.0309   -4.6839   -4.0944 C   0  0  0  0  0  0  0  0  0  0  0  0
   -3.3164   -4.1915   -3.9015 C   0  0  0  0  0  0  0  0  0  0  0  0
   -3.6972   -3.5362   -2.6098 C   0  0  0  0  0  0  0  0  0  0  0  0
   -4.2332   -4.3028   -4.9403 C   0  0  0  0  0  0  0  0  0  0  0  0
   -3.8749   -4.8673   -6.1489 C   0  0  0  0  0  0  0  0  0  0  0  0
   -3.0517   -6.8489   -8.1484 C   0  0  0  0  0  0  0  0  0  0  0  0
   -3.3143   -6.8700   -9.5178 C   0  0  0  0  0  0  0  0  0  0  0  0
   -4.1243   -7.8491  -10.0524 C   0  0  0  0  0  0  0  0  0  0  0  0
   -4.6951   -8.8340   -9.2484 C   0  0  0  0  0  0  0  0  0  0  0  0
   -5.5262   -9.9191   -9.8561 C   0  0  0  0  0  0  0  0  0  0  0  0
   -4.4641   -8.7795   -7.8807 C   0  0  0  0  0  0  0  0  0  0  0  0
   -3.6579   -7.8003   -7.3307 C   0  0  0  0  0  0  0  0  0  0  0  0
   -0.5250   -4.1645   -7.9494 C   0  0  0  0  0  0  0  0  0  0  0  0
   -0.9202   -2.8633   -6.8806 S   0  0  0  0  0  0  0  0  0  0  0  0
   -0.3726   -7.4324   -9.6419 C   0  0  0  0  0  0  0  0  0  0  0  0
   -0.9213   -8.5089   -8.9682 C   0  0  0  0  0  0  0  0  0  0  0  0
   -0.9572   -8.6124   -7.5029 C   0  0  0  0  0  0  0  0  0  0  0  0
   -0.5689   -7.7912   -6.6911 O   0  0  0  0  0  0  0  0  0  0  0  0
   -1.4491   -9.9751   -7.2124 C   0  0  0  0  0  0  0  0  0  0  0  0
   -1.6636  -10.5679   -6.0047 C   0  0  0  0  0  0  0  0  0  0  0  0
   -2.1722  -11.8870   -5.9655 C   0  0  0  0  0  0  0  0  0  0  0  0
   -2.4260  -12.5434   -4.7449 C   0  0  0  0  0  0  0  0  0  0  0  0
   -2.9178  -13.8195   -4.7186 C   0  0  0  0  0  0  0  0  0  0  0  0
   -3.1699  -14.4717   -5.9318 C   0  0  0  0  0  0  0  0  0  0  0  0
   -3.6564  -15.7277   -5.8876 F   0  0  0  0  0  0  0  0  0  0  0  0
   -2.9417  -13.8805   -7.1434 C   0  0  0  0  0  0  0  0  0  0  0  0
   -2.4355  -12.5675   -7.1884 C   0  0  0  0  0  0  0  0  0  0  0  0
   -2.1922  -11.9272   -8.4277 C   0  0  0  0  0  0  0  0  0  0  0  0
   -1.7115  -10.6476   -8.4382 C   0  0  0  0  0  0  0  0  0  0  0  0
   -1.4001   -9.7344   -9.5352 C   0  0  0  0  0  0  0  0  0  0  0  0
   -1.6839   -9.9480  -10.8642 C   0  0  0  0  0  0  0  0  0  0  0  0
   -2.2688  -11.1241  -11.3639 C   0  0  0  0  0  0  0  0  0  0  0  0
   -2.7628  -12.0558  -11.8216 N   0  0  0  0  0  0  0  0  0  0  0  0
   -1.5047   -8.9786  -11.8691 C   0  0  0  0  0  0  0  0  0  0  0  0
   -1.4175   -8.2215  -12.7291 N   0  0  0  0  0  0  0  0  0  0  0  0
    0.6177    1.7607   12.4932 H   0  0  0  0  0  0  0  0  0  0  0  0
   -4.2409   -1.9469   11.2070 H   0  0  0  0  0  0  0  0  0  0  0  0
   -5.3193   -3.1454   13.1107 H   0  0  0  0  0  0  0  0  0  0  0  0
   -2.8405   -1.0534   15.8972 H   0  0  0  0  0  0  0  0  0  0  0  0
   -1.7393    4.0923   12.1242 H   0  0  0  0  0  0  0  0  0  0  0  0
   -2.5853    4.0810   14.4185 H   0  0  0  0  0  0  0  0  0  0  0  0
   -5.4445    1.9347   15.5762 H   0  0  0  0  0  0  0  0  0  0  0  0
   -3.8057    2.3066   16.1216 H   0  0  0  0  0  0  0  0  0  0  0  0
   -4.9283    3.6146   15.7777 H   0  0  0  0  0  0  0  0  0  0  0  0
   -5.6013    1.2747   13.3090 H   0  0  0  0  0  0  0  0  0  0  0  0
   -4.7644    1.2880   11.0021 H   0  0  0  0  0  0  0  0  0  0  0  0
   -2.6895    0.9054    8.0782 H   0  0  0  0  0  0  0  0  0  0  0  0
   -4.3191    0.8524    6.2251 H   0  0  0  0  0  0  0  0  0  0  0  0
   -6.0719    3.0388    5.0023 H   0  0  0  0  0  0  0  0  0  0  0  0
   -6.6309    1.4431    5.4951 H   0  0  0  0  0  0  0  0  0  0  0  0
   -7.4135    2.8959    6.1373 H   0  0  0  0  0  0  0  0  0  0  0  0
   -6.4301    4.1089    7.9970 H   0  0  0  0  0  0  0  0  0  0  0  0
   -4.7888    4.1799    9.8276 H   0  0  0  0  0  0  0  0  0  0  0  0
    1.2154    1.8463    5.4383 H   0  0  0  0  0  0  0  0  0  0  0  0
    1.8223    1.2688    3.1438 H   0  0  0  0  0  0  0  0  0  0  0  0
    3.5304    1.2471    1.3698 H   0  0  0  0  0  0  0  0  0  0  0  0
    4.9494    2.3003    1.4808 H   0  0  0  0  0  0  0  0  0  0  0  0
    3.3938    2.9667    0.9951 H   0  0  0  0  0  0  0  0  0  0  0  0
    5.2251    3.8232    3.3947 H   0  0  0  0  0  0  0  0  0  0  0  0
    4.6062    4.4279    5.6878 H   0  0  0  0  0  0  0  0  0  0  0  0
    2.0804    5.6606    8.6677 H   0  0  0  0  0  0  0  0  0  0  0  0
    3.6359    6.3188   10.4500 H   0  0  0  0  0  0  0  0  0  0  0  0
    5.6306    4.9090   12.0381 H   0  0  0  0  0  0  0  0  0  0  0  0
    6.1456    6.3097   11.1055 H   0  0  0  0  0  0  0  0  0  0  0  0
    7.0070    4.7721   10.9418 H   0  0  0  0  0  0  0  0  0  0  0  0
    6.3233    3.2340    9.2464 H   0  0  0  0  0  0  0  0  0  0  0  0
    4.7591    2.5520    7.4840 H   0  0  0  0  0  0  0  0  0  0  0  0
    3.5180    6.1183    4.3472 H   0  0  0  0  0  0  0  0  0  0  0  0
    4.8879    7.6358    5.7087 H   0  0  0  0  0  0  0  0  0  0  0  0
    3.8404    8.8887    7.5721 H   0  0  0  0  0  0  0  0  0  0  0  0
    1.4245    8.6941    7.9552 H   0  0  0  0  0  0  0  0  0  0  0  0
   -0.8105    6.2770    6.6920 H   0  0  0  0  0  0  0  0  0  0  0  0
   -0.6165    7.7971    7.5573 H   0  0  0  0  0  0  0  0  0  0  0  0
   -2.1350    8.0749    5.6230 H   0  0  0  0  0  0  0  0  0  0  0  0
   -0.6675    9.0321    5.3857 H   0  0  0  0  0  0  0  0  0  0  0  0
   -0.8736    7.5076    4.5246 H   0  0  0  0  0  0  0  0  0  0  0  0
    3.7651    0.7909   -6.9839 H   0  0  0  0  0  0  0  0  0  0  0  0
    4.3306    2.3420   -7.6084 H   0  0  0  0  0  0  0  0  0  0  0  0
    6.1163    0.6388   -7.6480 H   0  0  0  0  0  0  0  0  0  0  0  0
    5.1356   -0.4070   -8.6699 H   0  0  0  0  0  0  0  0  0  0  0  0
    5.7333    1.1337   -9.2944 H   0  0  0  0  0  0  0  0  0  0  0  0
    4.1459    2.2413  -10.4117 H   0  0  0  0  0  0  0  0  0  0  0  0
    2.3599    2.2984  -12.0834 H   0  0  0  0  0  0  0  0  0  0  0  0
    0.1209    1.4032  -11.5317 H   0  0  0  0  0  0  0  0  0  0  0  0
   -0.3084    0.5174   -9.2734 H   0  0  0  0  0  0  0  0  0  0  0  0
   -1.4651    2.5227   -0.7511 H   0  0  0  0  0  0  0  0  0  0  0  0
   -1.2757    2.0935    0.9743 H   0  0  0  0  0  0  0  0  0  0  0  0
   -3.3272    3.4551    0.5013 H   0  0  0  0  0  0  0  0  0  0  0  0
   -2.2384    4.2981    1.6010 H   0  0  0  0  0  0  0  0  0  0  0  0
   -2.3091    4.7684   -0.1015 H   0  0  0  0  0  0  0  0  0  0  0  0
   -0.8058    0.8378   -1.3853 H   0  0  0  0  0  0  0  0  0  0  0  0
    0.1714   -0.0165   -2.5713 H   0  0  0  0  0  0  0  0  0  0  0  0
    1.2543    1.3172   -0.0369 H   0  0  0  0  0  0  0  0  0  0  0  0
    2.2350    0.5061   -1.2598 H   0  0  0  0  0  0  0  0  0  0  0  0
    1.0602   -0.4162   -0.3155 H   0  0  0  0  0  0  0  0  0  0  0  0
    0.0429   -2.1831  -10.7318 H   0  0  0  0  0  0  0  0  0  0  0  0
   -0.1087   -1.5268  -13.0677 H   0  0  0  0  0  0  0  0  0  0  0  0
    1.2559    0.4108  -14.7478 H   0  0  0  0  0  0  0  0  0  0  0  0
    2.8061   -0.3521  -15.1093 H   0  0  0  0  0  0  0  0  0  0  0  0
    1.3034   -1.2740  -15.2559 H   0  0  0  0  0  0  0  0  0  0  0  0
    4.0076   -0.4247  -13.0425 H   0  0  0  0  0  0  0  0  0  0  0  0
    4.1745   -1.0743  -10.7029 H   0  0  0  0  0  0  0  0  0  0  0  0
    2.9968   -1.7940   -6.6840 H   0  0  0  0  0  0  0  0  0  0  0  0
    5.0609   -2.6378   -5.6757 H   0  0  0  0  0  0  0  0  0  0  0  0
    7.9144   -3.4449   -7.2522 H   0  0  0  0  0  0  0  0  0  0  0  0
    7.0531   -3.9458   -5.7948 H   0  0  0  0  0  0  0  0  0  0  0  0
    7.2428   -5.0683   -7.1496 H   0  0  0  0  0  0  0  0  0  0  0  0
    6.1967   -4.3363   -9.4180 H   0  0  0  0  0  0  0  0  0  0  0  0
    4.1206   -3.5147  -10.4268 H   0  0  0  0  0  0  0  0  0  0  0  0
   -0.6708   -5.6615   -5.4371 H   0  0  0  0  0  0  0  0  0  0  0  0
   -1.3111   -4.6241   -3.2913 H   0  0  0  0  0  0  0  0  0  0  0  0
   -3.1505   -3.9724   -1.7770 H   0  0  0  0  0  0  0  0  0  0  0  0
   -4.7640   -3.6324   -2.4232 H   0  0  0  0  0  0  0  0  0  0  0  0
   -3.4553   -2.4735   -2.6520 H   0  0  0  0  0  0  0  0  0  0  0  0
   -5.2402   -3.9358   -4.8050 H   0  0  0  0  0  0  0  0  0  0  0  0
   -4.5923   -4.9441   -6.9529 H   0  0  0  0  0  0  0  0  0  0  0  0
   -2.8787   -6.1213  -10.1623 H   0  0  0  0  0  0  0  0  0  0  0  0
   -4.3118   -7.8570  -11.1162 H   0  0  0  0  0  0  0  0  0  0  0  0
   -4.9109  -10.5547  -10.4933 H   0  0  0  0  0  0  0  0  0  0  0  0
   -6.3133   -9.4958  -10.4778 H   0  0  0  0  0  0  0  0  0  0  0  0
   -5.9791  -10.5397   -9.0874 H   0  0  0  0  0  0  0  0  0  0  0  0
   -4.9069   -9.5227   -7.2334 H   0  0  0  0  0  0  0  0  0  0  0  0
   -3.4791   -7.7757   -6.2662 H   0  0  0  0  0  0  0  0  0  0  0  0
    0.0783   -7.6047  -10.6119 H   0  0  0  0  0  0  0  0  0  0  0  0
   -1.4571  -10.0378   -5.0867 H   0  0  0  0  0  0  0  0  0  0  0  0
   -2.2227  -12.0198   -3.8226 H   0  0  0  0  0  0  0  0  0  0  0  0
   -3.1153  -14.3360   -3.7926 H   0  0  0  0  0  0  0  0  0  0  0  0
   -3.1481  -14.4135   -8.0584 H   0  0  0  0  0  0  0  0  0  0  0  0
   -2.3904  -12.4718   -9.3370 H   0  0  0  0  0  0  0  0  0  0  0  0
  1  2  2  0  0  0  0
  2  3  1  0  0  0  0
  3  4  2  0  0  0  0
  3  5  1  0  0  0  0
  5  6  2  0  0  0  0
  6  7  1  0  0  0  0
  7  8  2  0  0  0  0
  8  9  1  0  0  0  0
  8 10  1  0  0  0  0
 10 11  2  0  0  0  0
 11 12  1  0  0  0  0
 12 13  2  0  0  0  0
 13 14  1  0  0  0  0
 14 15  3  0  0  0  0
 13 16  1  0  0  0  0
 16 17  3  0  0  0  0
  1 18  1  0  0  0  0
 18 19  2  0  0  0  0
 19 20  1  0  0  0  0
 20 21  1  0  0  0  0
 21 22  2  0  0  0  0
 22 23  1  0  0  0  0
 23 24  2  0  0  0  0
 24 25  1  0  0  0  0
 24 26  1  0  0  0  0
 26 27  2  0  0  0  0
 20 28  1  0  0  0  0
 28 29  2  0  0  0  0
 29 30  1  0  0  0  0
 30 31  2  0  0  0  0
 31 32  1  0  0  0  0
 31 33  1  0  0  0  0
 33 34  2  0  0  0  0
 19 35  1  0  0  0  0
 35 36  1  0  0  0  0
 36 37  1  0  0  0  0
 37 38  2  0  0  0  0
 38 39  1  0  0  0  0
 39 40  1  0  0  0  0
 40 41  2  0  0  0  0
 41 42  1  0  0  0  0
 42 43  2  0  0  0  0
 43 44  1  0  0  0  0
 43 45  1  0  0  0  0
 45 46  2  0  0  0  0
 39 47  1  0  0  0  0
 47 48  2  0  0  0  0
 48 49  1  0  0  0  0
 49 50  2  0  0  0  0
 50 51  1  0  0  0  0
 50 52  1  0  0  0  0
 52 53  2  0  0  0  0
 38 54  1  0  0  0  0
 54 55  1  0  0  0  0
 37 56  1  0  0  0  0
 56 57  2  0  0  0  0
 57 58  1  0  0  0  0
 58 59  2  0  0  0  0
 59 60  1  0  0  0  0
 60 61  2  0  0  0  0
 61 62  1  0  0  0  0
 62 63  2  0  0  0  0
 63 64  1  0  0  0  0
 64 65  1  0  0  0  0
 57 66  1  0  0  0  0
 66 67  1  0  0  0  0
 67 68  1  0  0  0  0
 68 69  1  0  0  0  0
 69 70  1  0  0  0  0
 70 71  1  0  0  0  0
 71 72  2  0  0  0  0
 72 73  1  0  0  0  0
 73 74  1  0  0  0  0
 71 75  1  0  0  0  0
 75 76  1  0  0  0  0
 76 77  1  0  0  0  0
 77 78  1  0  0  0  0
 78 79  1  0  0  0  0
 79 80  1  0  0  0  0
 80 81  2  0  0  0  0
 81 82  1  0  0  0  0
 82 83  1  0  0  0  0
 81 84  1  0  0  0  0
 84 85  2  0  0  0  0
 85 86  1  0  0  0  0
 86 87  2  0  0  0  0
 79 88  2  0  0  0  0
 88 89  1  0  0  0  0
 89 90  1  0  0  0  0
 90 91  1  0  0  0  0
 91 92  1  0  0  0  0
 92 93  1  0  0  0  0
 93 94  1  0  0  0  0
 94 95  1  0  0  0  0
 95 96  1  0  0  0  0
 96 97  1  0  0  0  0
 97 98  1  0  0  0  0
 95 99  1  0  0  0  0
 99100  1  0  0  0  0
 92101  1  0  0  0  0
101102  1  0  0  0  0
 88103  1  0  0  0  0
103104  2  0  0  0  0
104105  1  0  0  0  0
105106  1  0  0  0  0
106107  2  0  0  0  0
107108  1  0  0  0  0
108109  2  0  0  0  0
109110  1  0  0  0  0
109111  1  0  0  0  0
111112  2  0  0  0  0
105113  1  0  0  0  0
113114  2  0  0  0  0
114115  1  0  0  0  0
115116  2  0  0  0  0
116117  1  0  0  0  0
116118  1  0  0  0  0
118119  2  0  0  0  0
104120  1  0  0  0  0
120121  1  0  0  0  0
121122  1  0  0  0  0
122123  2  0  0  0  0
123124  1  0  0  0  0
124125  1  0  0  0  0
125126  2  0  0  0  0
126127  1  0  0  0  0
127128  2  0  0  0  0
128129  1  0  0  0  0
128130  1  0  0  0  0
130131  2  0  0  0  0
124132  1  0  0  0  0
132133  2  0  0  0  0
133134  1  0  0  0  0
134135  2  0  0  0  0
135136  1  0  0  0  0
135137  1  0  0  0  0
137138  2  0  0  0  0
123139  1  0  0  0  0
139140  1  0  0  0  0
122141  1  0  0  0  0
141142  2  0  0  0  0
142143  1  0  0  0  0
143144  2  0  0  0  0
143145  1  0  0  0  0
145146  2  0  0  0  0
146147  1  0  0  0  0
147148  2  0  0  0  0
148149  1  0  0  0  0
149150  2  0  0  0  0
150151  1  0  0  0  0
150152  1  0  0  0  0
152153  2  0  0  0  0
153154  1  0  0  0  0
154155  2  0  0  0  0
155156  1  0  0  0  0
156157  2  0  0  0  0
157158  1  0  0  0  0
158159  3  0  0  0  0
157160  1  0  0  0  0
160161  3  0  0  0  0
 12  2  1  0  0  0  0
 55 18  1  0  0  0  0
 98 56  1  0  0  0  0
140103  1  0  0  0  0
156142  1  0  0  0  0
 11  5  1  0  0  0  0
 27 21  1  0  0  0  0
 34 28  1  0  0  0  0
 54 35  2  0  0  0  0
 63 58  1  0  0  0  0
 97 66  2  0  0  0  0
112106  1  0  0  0  0
119113  1  0  0  0  0
139120  2  0  0  0  0
155145  1  0  0  0  0
 46 40  1  0  0  0  0
 53 47  1  0  0  0  0
 96 68  2  0  0  0  0
131125  1  0  0  0  0
138132  1  0  0  0  0
153147  1  0  0  0  0
 94 69  2  0  0  0  0
 74 70  2  0  0  0  0
 93 75  2  0  0  0  0
 91 76  2  0  0  0  0
 90 78  2  0  0  0  0
 87 80  1  0  0  0  0
  1162  1  0  0  0  0
  6163  1  0  0  0  0
  7164  1  0  0  0  0
 10165  1  0  0  0  0
 22166  1  0  0  0  0
 23167  1  0  0  0  0
 25168  1  0  0  0  0
 25169  1  0  0  0  0
 25170  1  0  0  0  0
 26171  1  0  0  0  0
 27172  1  0  0  0  0
 29173  1  0  0  0  0
 30174  1  0  0  0  0
 32175  1  0  0  0  0
 32176  1  0  0  0  0
 32177  1  0  0  0  0
 33178  1  0  0  0  0
 34179  1  0  0  0  0
 41180  1  0  0  0  0
 42181  1  0  0  0  0
 44182  1  0  0  0  0
 44183  1  0  0  0  0
 44184  1  0  0  0  0
 45185  1  0  0  0  0
 46186  1  0  0  0  0
 48187  1  0  0  0  0
 49188  1  0  0  0  0
 51189  1  0  0  0  0
 51190  1  0  0  0  0
 51191  1  0  0  0  0
 52192  1  0  0  0  0
 53193  1  0  0  0  0
 59194  1  0  0  0  0
 60195  1  0  0  0  0
 61196  1  0  0  0  0
 62197  1  0  0  0  0
 64198  1  0  0  0  0
 64199  1  0  0  0  0
 65200  1  0  0  0  0
 65201  1  0  0  0  0
 65202  1  0  0  0  0
 82203  1  0  0  0  0
 82204  1  0  0  0  0
 83205  1  0  0  0  0
 83206  1  0  0  0  0
 83207  1  0  0  0  0
 84208  1  0  0  0  0
 85209  1  0  0  0  0
 86210  1  0  0  0  0
 87211  1  0  0  0  0
 99212  1  0  0  0  0
 99213  1  0  0  0  0
100214  1  0  0  0  0
100215  1  0  0  0  0
100216  1  0  0  0  0
101217  1  0  0  0  0
101218  1  0  0  0  0
102219  1  0  0  0  0
102220  1  0  0  0  0
102221  1  0  0  0  0
107222  1  0  0  0  0
108223  1  0  0  0  0
110224  1  0  0  0  0
110225  1  0  0  0  0
110226  1  0  0  0  0
111227  1  0  0  0  0
112228  1  0  0  0  0
114229  1  0  0  0  0
115230  1  0  0  0  0
117231  1  0  0  0  0
117232  1  0  0  0  0
117233  1  0  0  0  0
118234  1  0  0  0  0
119235  1  0  0  0  0
126236  1  0  0  0  0
127237  1  0  0  0  0
129238  1  0  0  0  0
129239  1  0  0  0  0
129240  1  0  0  0  0
130241  1  0  0  0  0
131242  1  0  0  0  0
133243  1  0  0  0  0
134244  1  0  0  0  0
136245  1  0  0  0  0
136246  1  0  0  0  0
136247  1  0  0  0  0
137248  1  0  0  0  0
138249  1  0  0  0  0
141250  1  0  0  0  0
146251  1  0  0  0  0
148252  1  0  0  0  0
149253  1  0  0  0  0
152254  1  0  0  0  0
154255  1  0  0  0  0
M  END
