
  xtb     02072206363D
 energy: -421.003812062918 gnorm: 0.000494266224 xtb: 6.4.1 (unknown)
255281  0     0  0            999 V2000
  -10.8704   -3.2088   -5.7590 C   0  0  0  0  0  0  0  0  0  0  0  0
  -11.4942   -4.4354   -5.7780 C   0  0  0  0  0  0  0  0  0  0  0  0
  -12.5815   -4.6954   -6.7455 C   0  0  0  0  0  0  0  0  0  0  0  0
  -12.9256   -3.9956   -7.6733 O   0  0  0  0  0  0  0  0  0  0  0  0
  -13.2029   -5.9616   -6.2939 C   0  0  0  0  0  0  0  0  0  0  0  0
  -14.3232   -6.6068   -6.7778 C   0  0  0  0  0  0  0  0  0  0  0  0
  -14.7295   -7.7828   -6.1654 C   0  0  0  0  0  0  0  0  0  0  0  0
  -14.0022   -8.2906   -5.0969 C   0  0  0  0  0  0  0  0  0  0  0  0
  -14.5343   -9.7449   -4.3363 Cl  0  0  0  0  0  0  0  0  0  0  0  0
  -12.8614   -7.6614   -4.6096 C   0  0  0  0  0  0  0  0  0  0  0  0
  -12.4715   -6.4799   -5.2121 C   0  0  0  0  0  0  0  0  0  0  0  0
  -11.3463   -5.5855   -4.9379 C   0  0  0  0  0  0  0  0  0  0  0  0
  -10.2305   -5.8980   -4.1918 C   0  0  0  0  0  0  0  0  0  0  0  0
   -9.0375   -5.1612   -4.2687 C   0  0  0  0  0  0  0  0  0  0  0  0
   -8.0296   -4.6118   -4.3349 N   0  0  0  0  0  0  0  0  0  0  0  0
  -10.1365   -7.0106   -3.3389 C   0  0  0  0  0  0  0  0  0  0  0  0
  -10.0226   -7.8741   -2.5891 N   0  0  0  0  0  0  0  0  0  0  0  0
  -10.2041   -2.5498   -4.7223 C   0  0  0  0  0  0  0  0  0  0  0  0
  -10.2009   -2.7172   -3.3199 C   0  0  0  0  0  0  0  0  0  0  0  0
  -11.0020   -3.5428   -2.5740 N   0  0  0  0  0  0  0  0  0  0  0  0
  -12.3113   -3.9069   -2.9185 C   0  0  0  0  0  0  0  0  0  0  0  0
  -12.8439   -5.0846   -2.3906 C   0  0  0  0  0  0  0  0  0  0  0  0
  -14.1244   -5.4796   -2.7161 C   0  0  0  0  0  0  0  0  0  0  0  0
  -14.9091   -4.7282   -3.5837 C   0  0  0  0  0  0  0  0  0  0  0  0
  -16.2860   -5.1755   -3.9604 C   0  0  0  0  0  0  0  0  0  0  0  0
  -14.3868   -3.5380   -4.0760 C   0  0  0  0  0  0  0  0  0  0  0  0
  -13.1123   -3.1222   -3.7449 C   0  0  0  0  0  0  0  0  0  0  0  0
  -10.6021   -3.8191   -1.2364 C   0  0  0  0  0  0  0  0  0  0  0  0
  -11.4203   -3.4469   -0.1764 C   0  0  0  0  0  0  0  0  0  0  0  0
  -11.0338   -3.7162    1.1221 C   0  0  0  0  0  0  0  0  0  0  0  0
   -9.8366   -4.3661    1.3910 C   0  0  0  0  0  0  0  0  0  0  0  0
   -9.4116   -4.6763    2.7918 C   0  0  0  0  0  0  0  0  0  0  0  0
   -9.0272   -4.7346    0.3221 C   0  0  0  0  0  0  0  0  0  0  0  0
   -9.3969   -4.4642   -0.9795 C   0  0  0  0  0  0  0  0  0  0  0  0
   -9.2696   -1.8399   -2.7222 C   0  0  0  0  0  0  0  0  0  0  0  0
   -8.8031   -1.5302   -1.0834 S   0  0  0  0  0  0  0  0  0  0  0  0
   -7.7040   -0.2660   -1.6106 C   0  0  0  0  0  0  0  0  0  0  0  0
   -7.7321   -0.0745   -2.9867 C   0  0  0  0  0  0  0  0  0  0  0  0
   -7.0231    0.8885   -3.6848 N   0  0  0  0  0  0  0  0  0  0  0  0
   -6.8651    2.1794   -3.1709 C   0  0  0  0  0  0  0  0  0  0  0  0
   -7.8372    2.7432   -2.3462 C   0  0  0  0  0  0  0  0  0  0  0  0
   -7.6473    3.9929   -1.7953 C   0  0  0  0  0  0  0  0  0  0  0  0
   -6.4998    4.7308   -2.0664 C   0  0  0  0  0  0  0  0  0  0  0  0
   -6.3040    6.0813   -1.4483 C   0  0  0  0  0  0  0  0  0  0  0  0
   -5.5518    4.1791   -2.9177 C   0  0  0  0  0  0  0  0  0  0  0  0
   -5.7194    2.9185   -3.4571 C   0  0  0  0  0  0  0  0  0  0  0  0
   -6.5527    0.5611   -4.9687 C   0  0  0  0  0  0  0  0  0  0  0  0
   -6.0188   -0.7020   -5.2131 C   0  0  0  0  0  0  0  0  0  0  0  0
   -5.5806   -1.0361   -6.4782 C   0  0  0  0  0  0  0  0  0  0  0  0
   -5.6491   -0.1248   -7.5256 C   0  0  0  0  0  0  0  0  0  0  0  0
   -5.1878   -0.5065   -8.8986 C   0  0  0  0  0  0  0  0  0  0  0  0
   -6.1754    1.1354   -7.2700 C   0  0  0  0  0  0  0  0  0  0  0  0
   -6.6290    1.4788   -6.0118 C   0  0  0  0  0  0  0  0  0  0  0  0
   -8.6244   -0.9824   -3.6022 C   0  0  0  0  0  0  0  0  0  0  0  0
   -9.1508   -1.2173   -5.2235 S   0  0  0  0  0  0  0  0  0  0  0  0
   -6.8580    0.3492   -0.6420 C   0  0  0  0  0  0  0  0  0  0  0  0
   -7.1108    0.5378    0.7053 C   0  0  0  0  0  0  0  0  0  0  0  0
   -8.4015    0.3122    1.3591 C   0  0  0  0  0  0  0  0  0  0  0  0
   -9.5867    0.7765    0.7924 C   0  0  0  0  0  0  0  0  0  0  0  0
  -10.7871    0.5489    1.4318 C   0  0  0  0  0  0  0  0  0  0  0  0
  -10.8254   -0.1227    2.6433 C   0  0  0  0  0  0  0  0  0  0  0  0
   -9.6546   -0.5713    3.2370 C   0  0  0  0  0  0  0  0  0  0  0  0
   -9.6170   -1.2602    4.5760 C   0  0  0  0  0  0  0  0  0  0  0  0
  -10.9697   -1.6807    5.1361 C   0  0  0  0  0  0  0  0  0  0  0  0
   -8.4508   -0.3509    2.5781 C   0  0  0  0  0  0  0  0  0  0  0  0
   -5.9662    1.0084    1.3785 C   0  0  0  0  0  0  0  0  0  0  0  0
   -5.6627    1.4428    3.0441 S   0  0  0  0  0  0  0  0  0  0  0  0
   -4.0228    1.8154    2.6285 C   0  0  0  0  0  0  0  0  0  0  0  0
   -2.8327    2.2390    3.2498 C   0  0  0  0  0  0  0  0  0  0  0  0
   -2.5360    2.6851    4.5566 C   0  0  0  0  0  0  0  0  0  0  0  0
   -1.1988    3.1265    4.8566 C   0  0  0  0  0  0  0  0  0  0  0  0
   -1.0815    3.5705    6.0977 N   0  0  0  0  0  0  0  0  0  0  0  0
   -2.5204    3.4412    6.8296 S   0  0  0  0  0  0  0  0  0  0  0  0
   -3.3523    2.8121    5.5905 N   0  0  0  0  0  0  0  0  0  0  0  0
   -0.1847    2.9598    3.8864 C   0  0  0  0  0  0  0  0  0  0  0  0
    1.2150    3.0651    3.9618 C   0  0  0  0  0  0  0  0  0  0  0  0
    2.4391    3.5537    5.0851 S   0  0  0  0  0  0  0  0  0  0  0  0
    3.6628    3.0298    3.9516 C   0  0  0  0  0  0  0  0  0  0  0  0
    5.0730    3.0512    3.9869 C   0  0  0  0  0  0  0  0  0  0  0  0
    5.8302    3.6453    5.0887 C   0  0  0  0  0  0  0  0  0  0  0  0
    6.9045    4.4977    4.8458 C   0  0  0  0  0  0  0  0  0  0  0  0
    7.5501    5.1136    5.8990 C   0  0  0  0  0  0  0  0  0  0  0  0
    7.1318    4.8953    7.2004 C   0  0  0  0  0  0  0  0  0  0  0  0
    6.0667    4.0447    7.4631 C   0  0  0  0  0  0  0  0  0  0  0  0
    5.5568    3.8446    8.8617 C   0  0  0  0  0  0  0  0  0  0  0  0
    4.3265    4.7209    9.1061 C   0  0  0  0  0  0  0  0  0  0  0  0
    5.4271    3.4239    6.4008 C   0  0  0  0  0  0  0  0  0  0  0  0
    5.6108    2.5290    2.8249 C   0  0  0  0  0  0  0  0  0  0  0  0
    4.3705    2.0087    1.6863 S   0  0  0  0  0  0  0  0  0  0  0  0
    3.1286    2.5178    2.7700 C   0  0  0  0  0  0  0  0  0  0  0  0
    1.7282    2.5497    2.7692 C   0  0  0  0  0  0  0  0  0  0  0  0
    0.7072    2.1778    1.9337 N   0  0  0  0  0  0  0  0  0  0  0  0
   -0.4806    2.4350    2.6000 C   0  0  0  0  0  0  0  0  0  0  0  0
   -1.8345    2.2348    2.2407 C   0  0  0  0  0  0  0  0  0  0  0  0
   -2.4144    1.9006    1.0292 N   0  0  0  0  0  0  0  0  0  0  0  0
   -3.7374    1.6286    1.2735 C   0  0  0  0  0  0  0  0  0  0  0  0
   -4.8519    1.1774    0.5564 C   0  0  0  0  0  0  0  0  0  0  0  0
   -5.1999    0.7472   -1.0783 S   0  0  0  0  0  0  0  0  0  0  0  0
   -1.9864    2.3466   -0.2780 C   0  0  0  0  0  0  0  0  0  0  0  0
   -2.8038    3.5470   -0.7533 C   0  0  0  0  0  0  0  0  0  0  0  0
    0.9647    1.2410    0.8583 C   0  0  0  0  0  0  0  0  0  0  0  0
    0.3407   -0.1245    1.1273 C   0  0  0  0  0  0  0  0  0  0  0  0
    6.9717    2.2310    2.5263 C   0  0  0  0  0  0  0  0  0  0  0  0
    7.5781    2.1876    1.2760 C   0  0  0  0  0  0  0  0  0  0  0  0
    7.0017    2.6151    0.0928 N   0  0  0  0  0  0  0  0  0  0  0  0
    6.1902    3.7534    0.0520 C   0  0  0  0  0  0  0  0  0  0  0  0
    6.4142    4.8234    0.9156 C   0  0  0  0  0  0  0  0  0  0  0  0
    5.5615    5.9070    0.9207 C   0  0  0  0  0  0  0  0  0  0  0  0
    4.4740    5.9685    0.0559 C   0  0  0  0  0  0  0  0  0  0  0  0
    3.5399    7.1391    0.0969 C   0  0  0  0  0  0  0  0  0  0  0  0
    4.2795    4.9173   -0.8306 C   0  0  0  0  0  0  0  0  0  0  0  0
    5.1192    3.8209   -0.8365 C   0  0  0  0  0  0  0  0  0  0  0  0
    7.3523    1.9464   -1.0935 C   0  0  0  0  0  0  0  0  0  0  0  0
    7.6612    2.6582   -2.2472 C   0  0  0  0  0  0  0  0  0  0  0  0
    8.0553    1.9867   -3.3876 C   0  0  0  0  0  0  0  0  0  0  0  0
    8.1561    0.6019   -3.4069 C   0  0  0  0  0  0  0  0  0  0  0  0
    8.6397   -0.1255   -4.6230 C   0  0  0  0  0  0  0  0  0  0  0  0
    7.8229   -0.1020   -2.2560 C   0  0  0  0  0  0  0  0  0  0  0  0
    7.4203    0.5558   -1.1124 C   0  0  0  0  0  0  0  0  0  0  0  0
    8.8975    1.6831    1.3629 C   0  0  0  0  0  0  0  0  0  0  0  0
   10.0943    1.2917    0.1820 S   0  0  0  0  0  0  0  0  0  0  0  0
   11.1917    0.7588    1.4607 C   0  0  0  0  0  0  0  0  0  0  0  0
   10.5801    0.8156    2.7440 C   0  0  0  0  0  0  0  0  0  0  0  0
   11.1332    0.3614    3.9084 N   0  0  0  0  0  0  0  0  0  0  0  0
   11.9809   -0.7626    3.9634 C   0  0  0  0  0  0  0  0  0  0  0  0
   13.0384   -0.7868    4.8682 C   0  0  0  0  0  0  0  0  0  0  0  0
   13.8743   -1.8847    4.9229 C   0  0  0  0  0  0  0  0  0  0  0  0
   13.6873   -2.9732    4.0799 C   0  0  0  0  0  0  0  0  0  0  0  0
   14.6351   -4.1317    4.1104 C   0  0  0  0  0  0  0  0  0  0  0  0
   12.6128   -2.9485    3.1969 C   0  0  0  0  0  0  0  0  0  0  0  0
   11.7596   -1.8653    3.1415 C   0  0  0  0  0  0  0  0  0  0  0  0
   10.7278    0.9447    5.1257 C   0  0  0  0  0  0  0  0  0  0  0  0
   10.3989    0.1438    6.2150 C   0  0  0  0  0  0  0  0  0  0  0  0
   10.0050    0.7242    7.4029 C   0  0  0  0  0  0  0  0  0  0  0  0
    9.9289    2.1061    7.5373 C   0  0  0  0  0  0  0  0  0  0  0  0
    9.4755    2.7197    8.8244 C   0  0  0  0  0  0  0  0  0  0  0  0
   10.2659    2.8965    6.4462 C   0  0  0  0  0  0  0  0  0  0  0  0
   10.6633    2.3291    5.2518 C   0  0  0  0  0  0  0  0  0  0  0  0
    9.2928    1.3694    2.6585 C   0  0  0  0  0  0  0  0  0  0  0  0
    8.0455    1.7076    3.8187 S   0  0  0  0  0  0  0  0  0  0  0  0
   12.5230    0.4128    1.2650 C   0  0  0  0  0  0  0  0  0  0  0  0
   13.2345    0.2018    0.0999 C   0  0  0  0  0  0  0  0  0  0  0  0
   12.6865    0.1893   -1.2553 C   0  0  0  0  0  0  0  0  0  0  0  0
   11.5597    0.4894   -1.6157 O   0  0  0  0  0  0  0  0  0  0  0  0
   13.7731   -0.2907   -2.1305 C   0  0  0  0  0  0  0  0  0  0  0  0
   13.7604   -0.4932   -3.4787 C   0  0  0  0  0  0  0  0  0  0  0  0
   14.9297   -0.9694   -4.1146 C   0  0  0  0  0  0  0  0  0  0  0  0
   14.9727   -1.2002   -5.5039 C   0  0  0  0  0  0  0  0  0  0  0  0
   16.1097   -1.6626   -6.1072 C   0  0  0  0  0  0  0  0  0  0  0  0
   17.2419   -1.9056   -5.3196 C   0  0  0  0  0  0  0  0  0  0  0  0
   18.3531   -2.3613   -5.9304 F   0  0  0  0  0  0  0  0  0  0  0  0
   17.2541   -1.6977   -3.9683 C   0  0  0  0  0  0  0  0  0  0  0  0
   16.0920   -1.2223   -3.3309 C   0  0  0  0  0  0  0  0  0  0  0  0
   16.0748   -0.9963   -1.9334 C   0  0  0  0  0  0  0  0  0  0  0  0
   14.9301   -0.5383   -1.3400 C   0  0  0  0  0  0  0  0  0  0  0  0
   14.6166   -0.2033    0.0486 C   0  0  0  0  0  0  0  0  0  0  0  0
   15.5100   -0.2598    1.0940 C   0  0  0  0  0  0  0  0  0  0  0  0
   15.2684    0.1952    2.4029 C   0  0  0  0  0  0  0  0  0  0  0  0
   15.1716    0.5741    3.4848 N   0  0  0  0  0  0  0  0  0  0  0  0
   16.8194   -0.7652    0.9853 C   0  0  0  0  0  0  0  0  0  0  0  0
   17.8885   -1.1868    0.9754 N   0  0  0  0  0  0  0  0  0  0  0  0
  -10.9625   -2.6420   -6.6810 H   0  0  0  0  0  0  0  0  0  0  0  0
  -14.8671   -6.1970   -7.6146 H   0  0  0  0  0  0  0  0  0  0  0  0
  -15.6054   -8.3086   -6.5114 H   0  0  0  0  0  0  0  0  0  0  0  0
  -12.3218   -8.0853   -3.7784 H   0  0  0  0  0  0  0  0  0  0  0  0
  -12.2395   -5.6960   -1.7368 H   0  0  0  0  0  0  0  0  0  0  0  0
  -14.5144   -6.3982   -2.3038 H   0  0  0  0  0  0  0  0  0  0  0  0
  -16.3858   -6.2522   -3.8485 H   0  0  0  0  0  0  0  0  0  0  0  0
  -16.5091   -4.9037   -4.9895 H   0  0  0  0  0  0  0  0  0  0  0  0
  -17.0253   -4.6962   -3.3177 H   0  0  0  0  0  0  0  0  0  0  0  0
  -14.9851   -2.9246   -4.7333 H   0  0  0  0  0  0  0  0  0  0  0  0
  -12.7417   -2.1820   -4.1229 H   0  0  0  0  0  0  0  0  0  0  0  0
  -12.3540   -2.9418   -0.3763 H   0  0  0  0  0  0  0  0  0  0  0  0
  -11.6743   -3.4119    1.9364 H   0  0  0  0  0  0  0  0  0  0  0  0
  -10.1532   -4.3395    3.5103 H   0  0  0  0  0  0  0  0  0  0  0  0
   -8.4620   -4.1899    3.0106 H   0  0  0  0  0  0  0  0  0  0  0  0
   -9.2693   -5.7493    2.9135 H   0  0  0  0  0  0  0  0  0  0  0  0
   -8.0941   -5.2439    0.5109 H   0  0  0  0  0  0  0  0  0  0  0  0
   -8.7512   -4.7463   -1.7963 H   0  0  0  0  0  0  0  0  0  0  0  0
   -8.7461    2.1957   -2.1458 H   0  0  0  0  0  0  0  0  0  0  0  0
   -8.4061    4.4087   -1.1480 H   0  0  0  0  0  0  0  0  0  0  0  0
   -7.1338    6.7403   -1.7001 H   0  0  0  0  0  0  0  0  0  0  0  0
   -6.2651    5.9982   -0.3624 H   0  0  0  0  0  0  0  0  0  0  0  0
   -5.3800    6.5374   -1.7942 H   0  0  0  0  0  0  0  0  0  0  0  0
   -4.6587    4.7392   -3.1546 H   0  0  0  0  0  0  0  0  0  0  0  0
   -4.9588    2.4936   -4.0945 H   0  0  0  0  0  0  0  0  0  0  0  0
   -5.9503   -1.4195   -4.4088 H   0  0  0  0  0  0  0  0  0  0  0  0
   -5.1756   -2.0218   -6.6539 H   0  0  0  0  0  0  0  0  0  0  0  0
   -4.2889   -1.1175   -8.8485 H   0  0  0  0  0  0  0  0  0  0  0  0
   -4.9831    0.3753   -9.5008 H   0  0  0  0  0  0  0  0  0  0  0  0
   -5.9600   -1.0898   -9.4009 H   0  0  0  0  0  0  0  0  0  0  0  0
   -6.2431    1.8578   -8.0707 H   0  0  0  0  0  0  0  0  0  0  0  0
   -7.0498    2.4573   -5.8326 H   0  0  0  0  0  0  0  0  0  0  0  0
   -9.5574    1.3234   -0.1377 H   0  0  0  0  0  0  0  0  0  0  0  0
  -11.7061    0.9056    0.9894 H   0  0  0  0  0  0  0  0  0  0  0  0
  -11.7782   -0.2802    3.1230 H   0  0  0  0  0  0  0  0  0  0  0  0
   -9.1330   -0.5838    5.2879 H   0  0  0  0  0  0  0  0  0  0  0  0
   -8.9741   -2.1400    4.4909 H   0  0  0  0  0  0  0  0  0  0  0  0
  -10.8283   -2.2343    6.0620 H   0  0  0  0  0  0  0  0  0  0  0  0
  -11.4992   -2.3205    4.4333 H   0  0  0  0  0  0  0  0  0  0  0  0
  -11.5894   -0.8144    5.3545 H   0  0  0  0  0  0  0  0  0  0  0  0
   -7.5327   -0.7085    3.0219 H   0  0  0  0  0  0  0  0  0  0  0  0
    7.2110    4.6955    3.8305 H   0  0  0  0  0  0  0  0  0  0  0  0
    8.3736    5.7847    5.7022 H   0  0  0  0  0  0  0  0  0  0  0  0
    7.6306    5.3961    8.0177 H   0  0  0  0  0  0  0  0  0  0  0  0
    5.2852    2.7970    9.0099 H   0  0  0  0  0  0  0  0  0  0  0  0
    6.3327    4.1047    9.5850 H   0  0  0  0  0  0  0  0  0  0  0  0
    3.9516    4.5764   10.1166 H   0  0  0  0  0  0  0  0  0  0  0  0
    3.5366    4.4712    8.4017 H   0  0  0  0  0  0  0  0  0  0  0  0
    4.5803    5.7707    8.9764 H   0  0  0  0  0  0  0  0  0  0  0  0
    4.6030    2.7540    6.5973 H   0  0  0  0  0  0  0  0  0  0  0  0
   -0.9448    2.6504   -0.2119 H   0  0  0  0  0  0  0  0  0  0  0  0
   -2.0891    1.5203   -0.9887 H   0  0  0  0  0  0  0  0  0  0  0  0
   -2.4105    3.8966   -1.7039 H   0  0  0  0  0  0  0  0  0  0  0  0
   -3.8486    3.2839   -0.8914 H   0  0  0  0  0  0  0  0  0  0  0  0
   -2.7388    4.3559   -0.0283 H   0  0  0  0  0  0  0  0  0  0  0  0
    0.6226    1.6299   -0.1032 H   0  0  0  0  0  0  0  0  0  0  0  0
    2.0511    1.1402    0.7954 H   0  0  0  0  0  0  0  0  0  0  0  0
    0.6960   -0.5177    2.0770 H   0  0  0  0  0  0  0  0  0  0  0  0
   -0.7433   -0.0598    1.1633 H   0  0  0  0  0  0  0  0  0  0  0  0
    0.6223   -0.8150    0.3372 H   0  0  0  0  0  0  0  0  0  0  0  0
    7.2676    4.8001    1.5770 H   0  0  0  0  0  0  0  0  0  0  0  0
    5.7437    6.7230    1.6052 H   0  0  0  0  0  0  0  0  0  0  0  0
    4.0963    8.0748    0.0892 H   0  0  0  0  0  0  0  0  0  0  0  0
    2.9462    7.1137    1.0112 H   0  0  0  0  0  0  0  0  0  0  0  0
    2.8622    7.1274   -0.7531 H   0  0  0  0  0  0  0  0  0  0  0  0
    3.4480    4.9480   -1.5204 H   0  0  0  0  0  0  0  0  0  0  0  0
    4.9438    3.0008   -1.5168 H   0  0  0  0  0  0  0  0  0  0  0  0
    7.6058    3.7370   -2.2388 H   0  0  0  0  0  0  0  0  0  0  0  0
    8.3069    2.5529   -4.2729 H   0  0  0  0  0  0  0  0  0  0  0  0
    8.6440    0.5254   -5.4937 H   0  0  0  0  0  0  0  0  0  0  0  0
    8.0143   -0.9918   -4.8320 H   0  0  0  0  0  0  0  0  0  0  0  0
    9.6560   -0.4801   -4.4518 H   0  0  0  0  0  0  0  0  0  0  0  0
    7.8849   -1.1806   -2.2556 H   0  0  0  0  0  0  0  0  0  0  0  0
    7.1609   -0.0005   -0.2229 H   0  0  0  0  0  0  0  0  0  0  0  0
   13.2094    0.0610    5.5125 H   0  0  0  0  0  0  0  0  0  0  0  0
   14.6995   -1.8848    5.6185 H   0  0  0  0  0  0  0  0  0  0  0  0
   15.5363   -3.8874    3.5467 H   0  0  0  0  0  0  0  0  0  0  0  0
   14.9343   -4.3592    5.1312 H   0  0  0  0  0  0  0  0  0  0  0  0
   14.1860   -5.0169    3.6666 H   0  0  0  0  0  0  0  0  0  0  0  0
   12.4361   -3.7939    2.5474 H   0  0  0  0  0  0  0  0  0  0  0  0
   10.9251   -1.8639    2.4555 H   0  0  0  0  0  0  0  0  0  0  0  0
   10.4500   -0.9308    6.1209 H   0  0  0  0  0  0  0  0  0  0  0  0
    9.7470    0.0933    8.2410 H   0  0  0  0  0  0  0  0  0  0  0  0
    9.8325    2.1440    9.6755 H   0  0  0  0  0  0  0  0  0  0  0  0
    9.8318    3.7426    8.9137 H   0  0  0  0  0  0  0  0  0  0  0  0
    8.3861    2.7335    8.8574 H   0  0  0  0  0  0  0  0  0  0  0  0
   10.2230    3.9714    6.5339 H   0  0  0  0  0  0  0  0  0  0  0  0
   10.9370    2.9533    4.4139 H   0  0  0  0  0  0  0  0  0  0  0  0
   13.0800    0.2669    2.1813 H   0  0  0  0  0  0  0  0  0  0  0  0
   12.8704   -0.2906   -4.0557 H   0  0  0  0  0  0  0  0  0  0  0  0
   14.0869   -1.0049   -6.0897 H   0  0  0  0  0  0  0  0  0  0  0  0
   16.1587   -1.8447   -7.1691 H   0  0  0  0  0  0  0  0  0  0  0  0
   18.1453   -1.8955   -3.3934 H   0  0  0  0  0  0  0  0  0  0  0  0
   16.9723   -1.1949   -1.3701 H   0  0  0  0  0  0  0  0  0  0  0  0
  1  2  2  0  0  0  0
  2  3  1  0  0  0  0
  3  4  2  0  0  0  0
  3  5  1  0  0  0  0
  5  6  2  0  0  0  0
  6  7  1  0  0  0  0
  7  8  2  0  0  0  0
  8  9  1  0  0  0  0
  8 10  1  0  0  0  0
 10 11  2  0  0  0  0
 11 12  1  0  0  0  0
 12 13  2  0  0  0  0
 13 14  1  0  0  0  0
 14 15  3  0  0  0  0
 13 16  1  0  0  0  0
 16 17  3  0  0  0  0
  1 18  1  0  0  0  0
 18 19  2  0  0  0  0
 19 20  1  0  0  0  0
 20 21  1  0  0  0  0
 21 22  2  0  0  0  0
 22 23  1  0  0  0  0
 23 24  2  0  0  0  0
 24 25  1  0  0  0  0
 24 26  1  0  0  0  0
 26 27  2  0  0  0  0
 20 28  1  0  0  0  0
 28 29  2  0  0  0  0
 29 30  1  0  0  0  0
 30 31  2  0  0  0  0
 31 32  1  0  0  0  0
 31 33  1  0  0  0  0
 33 34  2  0  0  0  0
 19 35  1  0  0  0  0
 35 36  1  0  0  0  0
 36 37  1  0  0  0  0
 37 38  2  0  0  0  0
 38 39  1  0  0  0  0
 39 40  1  0  0  0  0
 40 41  2  0  0  0  0
 41 42  1  0  0  0  0
 42 43  2  0  0  0  0
 43 44  1  0  0  0  0
 43 45  1  0  0  0  0
 45 46  2  0  0  0  0
 39 47  1  0  0  0  0
 47 48  2  0  0  0  0
 48 49  1  0  0  0  0
 49 50  2  0  0  0  0
 50 51  1  0  0  0  0
 50 52  1  0  0  0  0
 52 53  2  0  0  0  0
 38 54  1  0  0  0  0
 54 55  1  0  0  0  0
 37 56  1  0  0  0  0
 56 57  2  0  0  0  0
 57 58  1  0  0  0  0
 58 59  2  0  0  0  0
 59 60  1  0  0  0  0
 60 61  2  0  0  0  0
 61 62  1  0  0  0  0
 62 63  1  0  0  0  0
 63 64  1  0  0  0  0
 62 65  2  0  0  0  0
 57 66  1  0  0  0  0
 66 67  1  0  0  0  0
 67 68  1  0  0  0  0
 68 69  1  0  0  0  0
 69 70  1  0  0  0  0
 70 71  1  0  0  0  0
 71 72  2  0  0  0  0
 72 73  1  0  0  0  0
 73 74  1  0  0  0  0
 71 75  1  0  0  0  0
 75 76  1  0  0  0  0
 76 77  1  0  0  0  0
 77 78  1  0  0  0  0
 78 79  1  0  0  0  0
 79 80  1  0  0  0  0
 80 81  2  0  0  0  0
 81 82  1  0  0  0  0
 82 83  2  0  0  0  0
 83 84  1  0  0  0  0
 84 85  1  0  0  0  0
 85 86  1  0  0  0  0
 84 87  2  0  0  0  0
 79 88  2  0  0  0  0
 88 89  1  0  0  0  0
 89 90  1  0  0  0  0
 90 91  1  0  0  0  0
 91 92  1  0  0  0  0
 92 93  1  0  0  0  0
 93 94  1  0  0  0  0
 94 95  1  0  0  0  0
 95 96  1  0  0  0  0
 96 97  1  0  0  0  0
 97 98  1  0  0  0  0
 95 99  1  0  0  0  0
 99100  1  0  0  0  0
 92101  1  0  0  0  0
101102  1  0  0  0  0
 88103  1  0  0  0  0
103104  2  0  0  0  0
104105  1  0  0  0  0
105106  1  0  0  0  0
106107  2  0  0  0  0
107108  1  0  0  0  0
108109  2  0  0  0  0
109110  1  0  0  0  0
109111  1  0  0  0  0
111112  2  0  0  0  0
105113  1  0  0  0  0
113114  2  0  0  0  0
114115  1  0  0  0  0
115116  2  0  0  0  0
116117  1  0  0  0  0
116118  1  0  0  0  0
118119  2  0  0  0  0
104120  1  0  0  0  0
120121  1  0  0  0  0
121122  1  0  0  0  0
122123  2  0  0  0  0
123124  1  0  0  0  0
124125  1  0  0  0  0
125126  2  0  0  0  0
126127  1  0  0  0  0
127128  2  0  0  0  0
128129  1  0  0  0  0
128130  1  0  0  0  0
130131  2  0  0  0  0
124132  1  0  0  0  0
132133  2  0  0  0  0
133134  1  0  0  0  0
134135  2  0  0  0  0
135136  1  0  0  0  0
135137  1  0  0  0  0
137138  2  0  0  0  0
123139  1  0  0  0  0
139140  1  0  0  0  0
122141  1  0  0  0  0
141142  2  0  0  0  0
142143  1  0  0  0  0
143144  2  0  0  0  0
143145  1  0  0  0  0
145146  2  0  0  0  0
146147  1  0  0  0  0
147148  2  0  0  0  0
148149  1  0  0  0  0
149150  2  0  0  0  0
150151  1  0  0  0  0
150152  1  0  0  0  0
152153  2  0  0  0  0
153154  1  0  0  0  0
154155  2  0  0  0  0
155156  1  0  0  0  0
156157  2  0  0  0  0
157158  1  0  0  0  0
158159  3  0  0  0  0
157160  1  0  0  0  0
160161  3  0  0  0  0
 12  2  1  0  0  0  0
 55 18  1  0  0  0  0
 98 56  1  0  0  0  0
140103  1  0  0  0  0
156142  1  0  0  0  0
 11  5  1  0  0  0  0
 27 21  1  0  0  0  0
 34 28  1  0  0  0  0
 54 35  2  0  0  0  0
 65 58  1  0  0  0  0
 97 66  2  0  0  0  0
112106  1  0  0  0  0
119113  1  0  0  0  0
139120  2  0  0  0  0
155145  1  0  0  0  0
 46 40  1  0  0  0  0
 53 47  1  0  0  0  0
 96 68  2  0  0  0  0
131125  1  0  0  0  0
138132  1  0  0  0  0
153147  1  0  0  0  0
 94 69  2  0  0  0  0
 74 70  2  0  0  0  0
 93 75  2  0  0  0  0
 91 76  2  0  0  0  0
 90 78  2  0  0  0  0
 87 80  1  0  0  0  0
  1162  1  0  0  0  0
  6163  1  0  0  0  0
  7164  1  0  0  0  0
 10165  1  0  0  0  0
 22166  1  0  0  0  0
 23167  1  0  0  0  0
 25168  1  0  0  0  0
 25169  1  0  0  0  0
 25170  1  0  0  0  0
 26171  1  0  0  0  0
 27172  1  0  0  0  0
 29173  1  0  0  0  0
 30174  1  0  0  0  0
 32175  1  0  0  0  0
 32176  1  0  0  0  0
 32177  1  0  0  0  0
 33178  1  0  0  0  0
 34179  1  0  0  0  0
 41180  1  0  0  0  0
 42181  1  0  0  0  0
 44182  1  0  0  0  0
 44183  1  0  0  0  0
 44184  1  0  0  0  0
 45185  1  0  0  0  0
 46186  1  0  0  0  0
 48187  1  0  0  0  0
 49188  1  0  0  0  0
 51189  1  0  0  0  0
 51190  1  0  0  0  0
 51191  1  0  0  0  0
 52192  1  0  0  0  0
 53193  1  0  0  0  0
 59194  1  0  0  0  0
 60195  1  0  0  0  0
 61196  1  0  0  0  0
 63197  1  0  0  0  0
 63198  1  0  0  0  0
 64199  1  0  0  0  0
 64200  1  0  0  0  0
 64201  1  0  0  0  0
 65202  1  0  0  0  0
 81203  1  0  0  0  0
 82204  1  0  0  0  0
 83205  1  0  0  0  0
 85206  1  0  0  0  0
 85207  1  0  0  0  0
 86208  1  0  0  0  0
 86209  1  0  0  0  0
 86210  1  0  0  0  0
 87211  1  0  0  0  0
 99212  1  0  0  0  0
 99213  1  0  0  0  0
100214  1  0  0  0  0
100215  1  0  0  0  0
100216  1  0  0  0  0
101217  1  0  0  0  0
101218  1  0  0  0  0
102219  1  0  0  0  0
102220  1  0  0  0  0
102221  1  0  0  0  0
107222  1  0  0  0  0
108223  1  0  0  0  0
110224  1  0  0  0  0
110225  1  0  0  0  0
110226  1  0  0  0  0
111227  1  0  0  0  0
112228  1  0  0  0  0
114229  1  0  0  0  0
115230  1  0  0  0  0
117231  1  0  0  0  0
117232  1  0  0  0  0
117233  1  0  0  0  0
118234  1  0  0  0  0
119235  1  0  0  0  0
126236  1  0  0  0  0
127237  1  0  0  0  0
129238  1  0  0  0  0
129239  1  0  0  0  0
129240  1  0  0  0  0
130241  1  0  0  0  0
131242  1  0  0  0  0
133243  1  0  0  0  0
134244  1  0  0  0  0
136245  1  0  0  0  0
136246  1  0  0  0  0
136247  1  0  0  0  0
137248  1  0  0  0  0
138249  1  0  0  0  0
141250  1  0  0  0  0
146251  1  0  0  0  0
148252  1  0  0  0  0
149253  1  0  0  0  0
152254  1  0  0  0  0
154255  1  0  0  0  0
M  END
