
  xtb     02082204433D
 energy: -423.350350871066 gnorm: 0.000575387139 xtb: 6.4.1 (unknown)
249274  0     0  0            999 V2000
  -12.0378   -0.5314   -4.7737 C   0  0  0  0  0  0  0  0  0  0  0  0
  -13.1005   -0.1136   -5.5220 C   0  0  0  0  0  0  0  0  0  0  0  0
  -13.9148   -1.1260   -6.2449 C   0  0  0  0  0  0  0  0  0  0  0  0
  -13.8051   -2.3298   -6.1736 O   0  0  0  0  0  0  0  0  0  0  0  0
  -14.8444   -0.3479   -7.0890 C   0  0  0  0  0  0  0  0  0  0  0  0
  -15.7358   -0.7893   -8.0484 C   0  0  0  0  0  0  0  0  0  0  0  0
  -16.4965    0.1484   -8.7291 C   0  0  0  0  0  0  0  0  0  0  0  0
  -16.3534    1.4991   -8.4339 C   0  0  0  0  0  0  0  0  0  0  0  0
  -17.2918    2.6535   -9.3045 Cl  0  0  0  0  0  0  0  0  0  0  0  0
  -15.4715    1.9564   -7.4607 C   0  0  0  0  0  0  0  0  0  0  0  0
  -14.7087    1.0183   -6.7896 C   0  0  0  0  0  0  0  0  0  0  0  0
  -13.7038    1.1765   -5.7366 C   0  0  0  0  0  0  0  0  0  0  0  0
  -13.5859    2.2743   -4.9241 C   0  0  0  0  0  0  0  0  0  0  0  0
  -14.3863    3.4275   -5.0468 C   0  0  0  0  0  0  0  0  0  0  0  0
  -15.0360    4.3739   -5.0813 N   0  0  0  0  0  0  0  0  0  0  0  0
  -12.7239    2.3408   -3.8125 C   0  0  0  0  0  0  0  0  0  0  0  0
  -12.0606    2.4428   -2.8808 N   0  0  0  0  0  0  0  0  0  0  0  0
  -10.8721    0.1473   -4.3518 C   0  0  0  0  0  0  0  0  0  0  0  0
  -10.0088    0.9803   -5.0670 C   0  0  0  0  0  0  0  0  0  0  0  0
  -10.1361    1.3596   -6.3986 N   0  0  0  0  0  0  0  0  0  0  0  0
   -9.0422    1.0858   -7.2351 C   0  0  0  0  0  0  0  0  0  0  0  0
   -8.3676   -0.1278   -7.1078 C   0  0  0  0  0  0  0  0  0  0  0  0
   -7.2849   -0.4088   -7.9139 C   0  0  0  0  0  0  0  0  0  0  0  0
   -6.8469    0.4985   -8.8731 C   0  0  0  0  0  0  0  0  0  0  0  0
   -5.6774    0.1703   -9.7497 C   0  0  0  0  0  0  0  0  0  0  0  0
   -7.5306    1.7000   -9.0001 C   0  0  0  0  0  0  0  0  0  0  0  0
   -8.6117    1.9986   -8.1935 C   0  0  0  0  0  0  0  0  0  0  0  0
  -11.0478    2.3585   -6.7930 C   0  0  0  0  0  0  0  0  0  0  0  0
  -11.7814    2.1984   -7.9632 C   0  0  0  0  0  0  0  0  0  0  0  0
  -12.6474    3.1924   -8.3762 C   0  0  0  0  0  0  0  0  0  0  0  0
  -12.8013    4.3607   -7.6385 C   0  0  0  0  0  0  0  0  0  0  0  0
  -13.7562    5.4320   -8.0615 C   0  0  0  0  0  0  0  0  0  0  0  0
  -12.0549    4.5130   -6.4743 C   0  0  0  0  0  0  0  0  0  0  0  0
  -11.1835    3.5268   -6.0506 C   0  0  0  0  0  0  0  0  0  0  0  0
   -8.8211    1.2074   -4.3395 C   0  0  0  0  0  0  0  0  0  0  0  0
   -7.4230    2.1643   -4.6579 S   0  0  0  0  0  0  0  0  0  0  0  0
   -6.7697    1.7693   -3.0767 C   0  0  0  0  0  0  0  0  0  0  0  0
   -7.6228    0.9588   -2.3358 C   0  0  0  0  0  0  0  0  0  0  0  0
   -7.4329    0.5577   -1.0257 N   0  0  0  0  0  0  0  0  0  0  0  0
   -7.9469   -0.6894   -0.6313 C   0  0  0  0  0  0  0  0  0  0  0  0
   -8.5960   -0.8314    0.5920 C   0  0  0  0  0  0  0  0  0  0  0  0
   -9.1077   -2.0573    0.9648 C   0  0  0  0  0  0  0  0  0  0  0  0
   -8.9953   -3.1671    0.1343 C   0  0  0  0  0  0  0  0  0  0  0  0
   -9.5864   -4.4843    0.5327 C   0  0  0  0  0  0  0  0  0  0  0  0
   -8.3428   -3.0170   -1.0824 C   0  0  0  0  0  0  0  0  0  0  0  0
   -7.8188   -1.7975   -1.4643 C   0  0  0  0  0  0  0  0  0  0  0  0
   -6.7886    1.3772   -0.0907 C   0  0  0  0  0  0  0  0  0  0  0  0
   -5.9856    0.8066    0.8952 C   0  0  0  0  0  0  0  0  0  0  0  0
   -5.2687    1.6084    1.7599 C   0  0  0  0  0  0  0  0  0  0  0  0
   -5.3162    2.9934    1.6629 C   0  0  0  0  0  0  0  0  0  0  0  0
   -4.4616    3.8649    2.5315 C   0  0  0  0  0  0  0  0  0  0  0  0
   -6.1634    3.5535    0.7144 C   0  0  0  0  0  0  0  0  0  0  0  0
   -6.8996    2.7653   -0.1471 C   0  0  0  0  0  0  0  0  0  0  0  0
   -8.7773    0.6242   -3.0852 C   0  0  0  0  0  0  0  0  0  0  0  0
  -10.1926   -0.3185   -2.7929 S   0  0  0  0  0  0  0  0  0  0  0  0
   -5.5012    2.2864   -2.6527 C   0  0  0  0  0  0  0  0  0  0  0  0
   -5.0572    3.5918   -2.6476 C   0  0  0  0  0  0  0  0  0  0  0  0
   -5.7611    4.7193   -3.2686 C   0  0  0  0  0  0  0  0  0  0  0  0
   -6.1990    5.7901   -2.4974 C   0  0  0  0  0  0  0  0  0  0  0  0
   -6.8928    6.8259   -3.0935 C   0  0  0  0  0  0  0  0  0  0  0  0
   -7.1586    6.7999   -4.4522 C   0  0  0  0  0  0  0  0  0  0  0  0
   -6.7053    5.7510   -5.2405 C   0  0  0  0  0  0  0  0  0  0  0  0
   -6.9514    5.7236   -6.7216 C   0  0  0  0  0  0  0  0  0  0  0  0
   -5.7621    6.3192   -7.4769 C   0  0  0  0  0  0  0  0  0  0  0  0
   -5.9879    4.7271   -4.6393 C   0  0  0  0  0  0  0  0  0  0  0  0
   -3.8533    3.7215   -1.9271 C   0  0  0  0  0  0  0  0  0  0  0  0
   -2.8784    5.1068   -1.5062 S   0  0  0  0  0  0  0  0  0  0  0  0
   -1.7773    4.0501   -0.6860 C   0  0  0  0  0  0  0  0  0  0  0  0
   -0.5813    4.1162    0.0503 C   0  0  0  0  0  0  0  0  0  0  0  0
    0.1800    5.2141    0.5067 C   0  0  0  0  0  0  0  0  0  0  0  0
    1.3315    4.9688    1.3295 C   0  0  0  0  0  0  0  0  0  0  0  0
    1.9215    6.0877    1.7202 N   0  0  0  0  0  0  0  0  0  0  0  0
    1.0999    7.3421    1.1074 S   0  0  0  0  0  0  0  0  0  0  0  0
   -0.0393    6.5057    0.3174 N   0  0  0  0  0  0  0  0  0  0  0  0
    1.7356    3.6359    1.5601 C   0  0  0  0  0  0  0  0  0  0  0  0
    2.8881    3.1058    2.1653 C   0  0  0  0  0  0  0  0  0  0  0  0
    4.3110    3.6491    2.9886 S   0  0  0  0  0  0  0  0  0  0  0  0
    4.9133    2.0100    3.0004 C   0  0  0  0  0  0  0  0  0  0  0  0
    6.1266    1.4285    3.4336 C   0  0  0  0  0  0  0  0  0  0  0  0
    7.1787    2.1090    4.1847 C   0  0  0  0  0  0  0  0  0  0  0  0
    7.4340    3.4654    4.0007 C   0  0  0  0  0  0  0  0  0  0  0  0
    8.4471    4.0820    4.7100 C   0  0  0  0  0  0  0  0  0  0  0  0
    9.2055    3.3655    5.6179 C   0  0  0  0  0  0  0  0  0  0  0  0
    8.9426    2.0199    5.8441 C   0  0  0  0  0  0  0  0  0  0  0  0
    9.7110    1.2509    6.8810 C   0  0  0  0  0  0  0  0  0  0  0  0
    9.0462    1.3933    8.2514 C   0  0  0  0  0  0  0  0  0  0  0  0
    7.9270    1.4076    5.1283 C   0  0  0  0  0  0  0  0  0  0  0  0
    6.1710    0.0860    3.1101 C   0  0  0  0  0  0  0  0  0  0  0  0
    4.6791   -0.4941    2.3882 S   0  0  0  0  0  0  0  0  0  0  0  0
    4.0314    1.1049    2.4108 C   0  0  0  0  0  0  0  0  0  0  0  0
    2.8668    1.7286    1.9445 C   0  0  0  0  0  0  0  0  0  0  0  0
    1.7282    1.3767    1.2710 N   0  0  0  0  0  0  0  0  0  0  0  0
    1.0084    2.5354    1.0290 C   0  0  0  0  0  0  0  0  0  0  0  0
   -0.2297    2.7788    0.3807 C   0  0  0  0  0  0  0  0  0  0  0  0
   -1.2223    1.9329   -0.0905 N   0  0  0  0  0  0  0  0  0  0  0  0
   -2.1494    2.7055   -0.7379 C   0  0  0  0  0  0  0  0  0  0  0  0
   -3.3486    2.5182   -1.4374 C   0  0  0  0  0  0  0  0  0  0  0  0
   -4.3671    1.1923   -1.8649 S   0  0  0  0  0  0  0  0  0  0  0  0
   -1.5886    0.6117    0.3722 C   0  0  0  0  0  0  0  0  0  0  0  0
   -1.6307    0.5451    1.8957 C   0  0  0  0  0  0  0  0  0  0  0  0
    1.6422    0.0877    0.6224 C   0  0  0  0  0  0  0  0  0  0  0  0
    1.7104    0.2138   -0.8968 C   0  0  0  0  0  0  0  0  0  0  0  0
    7.3178   -0.7721    3.1080 C   0  0  0  0  0  0  0  0  0  0  0  0
    8.5524   -0.4873    2.5373 C   0  0  0  0  0  0  0  0  0  0  0  0
    8.8725    0.6654    1.8448 N   0  0  0  0  0  0  0  0  0  0  0  0
    7.9068    1.3233    1.0684 C   0  0  0  0  0  0  0  0  0  0  0  0
    6.9558    0.6025    0.3514 C   0  0  0  0  0  0  0  0  0  0  0  0
    5.9507    1.2606   -0.3319 C   0  0  0  0  0  0  0  0  0  0  0  0
    5.8728    2.6462   -0.3371 C   0  0  0  0  0  0  0  0  0  0  0  0
    4.7576    3.3707   -1.0265 C   0  0  0  0  0  0  0  0  0  0  0  0
    6.8655    3.3597    0.3269 C   0  0  0  0  0  0  0  0  0  0  0  0
    7.8705    2.7152    1.0173 C   0  0  0  0  0  0  0  0  0  0  0  0
   10.1783    1.1740    1.9298 C   0  0  0  0  0  0  0  0  0  0  0  0
   10.7836    1.7504    0.8158 C   0  0  0  0  0  0  0  0  0  0  0  0
   12.0674    2.2471    0.9045 C   0  0  0  0  0  0  0  0  0  0  0  0
   12.7865    2.1775    2.0929 C   0  0  0  0  0  0  0  0  0  0  0  0
   14.1898    2.6964    2.1655 C   0  0  0  0  0  0  0  0  0  0  0  0
   12.1769    1.5968    3.1965 C   0  0  0  0  0  0  0  0  0  0  0  0
   10.8895    1.1026    3.1236 C   0  0  0  0  0  0  0  0  0  0  0  0
    9.4385   -1.5775    2.7044 C   0  0  0  0  0  0  0  0  0  0  0  0
   11.0483   -1.8852    2.1720 S   0  0  0  0  0  0  0  0  0  0  0  0
   10.9996   -3.5122    2.8772 C   0  0  0  0  0  0  0  0  0  0  0  0
    9.7264   -3.8094    3.4233 C   0  0  0  0  0  0  0  0  0  0  0  0
    9.2851   -5.0174    3.8707 N   0  0  0  0  0  0  0  0  0  0  0  0
    8.2253   -5.0506    4.8068 C   0  0  0  0  0  0  0  0  0  0  0  0
    7.1391   -5.8924    4.6001 C   0  0  0  0  0  0  0  0  0  0  0  0
    6.1080   -5.9226    5.5197 C   0  0  0  0  0  0  0  0  0  0  0  0
    6.1373   -5.1227    6.6549 C   0  0  0  0  0  0  0  0  0  0  0  0
    5.0125   -5.1379    7.6429 C   0  0  0  0  0  0  0  0  0  0  0  0
    7.2367   -4.2936    6.8553 C   0  0  0  0  0  0  0  0  0  0  0  0
    8.2734   -4.2533    5.9462 C   0  0  0  0  0  0  0  0  0  0  0  0
    9.7856   -6.2423    3.4116 C   0  0  0  0  0  0  0  0  0  0  0  0
   10.1474   -6.4268    2.0773 C   0  0  0  0  0  0  0  0  0  0  0  0
   10.6330   -7.6457    1.6538 C   0  0  0  0  0  0  0  0  0  0  0  0
   10.7801   -8.7139    2.5374 C   0  0  0  0  0  0  0  0  0  0  0  0
   11.3193  -10.0237    2.0594 C   0  0  0  0  0  0  0  0  0  0  0  0
   10.4002   -8.5269    3.8596 C   0  0  0  0  0  0  0  0  0  0  0  0
    9.9048   -7.3128    4.2966 C   0  0  0  0  0  0  0  0  0  0  0  0
    8.8846   -2.6770    3.3467 C   0  0  0  0  0  0  0  0  0  0  0  0
    7.2258   -2.3966    3.7630 S   0  0  0  0  0  0  0  0  0  0  0  0
   12.1668   -4.2616    2.7830 C   0  0  0  0  0  0  0  0  0  0  0  0
   12.5060   -5.3551    3.5631 C   0  0  0  0  0  0  0  0  0  0  0  0
   12.0020   -5.5628    4.9182 C   0  0  0  0  0  0  0  0  0  0  0  0
   11.2582   -4.8384    5.5519 O   0  0  0  0  0  0  0  0  0  0  0  0
   12.7197   -6.7587    5.4287 C   0  0  0  0  0  0  0  0  0  0  0  0
   12.6163   -7.3655    6.6644 C   0  0  0  0  0  0  0  0  0  0  0  0
   11.4433   -6.8657    7.8017 Cl  0  0  0  0  0  0  0  0  0  0  0  0
   13.4895   -8.4199    6.9641 C   0  0  0  0  0  0  0  0  0  0  0  0
   13.3656   -9.2335    8.4648 Cl  0  0  0  0  0  0  0  0  0  0  0  0
   14.4805   -8.7803    6.0555 C   0  0  0  0  0  0  0  0  0  0  0  0
   15.6011  -10.0040    6.4789 Cl  0  0  0  0  0  0  0  0  0  0  0  0
   14.5839   -8.1540    4.8021 C   0  0  0  0  0  0  0  0  0  0  0  0
   15.9284   -8.5414    3.8089 Cl  0  0  0  0  0  0  0  0  0  0  0  0
   13.6497   -7.1868    4.4614 C   0  0  0  0  0  0  0  0  0  0  0  0
   13.4297   -6.4051    3.2436 C   0  0  0  0  0  0  0  0  0  0  0  0
   13.7804   -6.7480    1.9587 C   0  0  0  0  0  0  0  0  0  0  0  0
   14.3138   -7.9761    1.5284 C   0  0  0  0  0  0  0  0  0  0  0  0
   14.6301   -8.9745    1.0552 N   0  0  0  0  0  0  0  0  0  0  0  0
   13.4260   -5.9684    0.8372 C   0  0  0  0  0  0  0  0  0  0  0  0
   13.1640   -5.3971   -0.1242 N   0  0  0  0  0  0  0  0  0  0  0  0
  -12.0610   -1.5894   -4.5203 H   0  0  0  0  0  0  0  0  0  0  0  0
  -15.8305   -1.8435   -8.2573 H   0  0  0  0  0  0  0  0  0  0  0  0
  -17.1985   -0.1599   -9.4877 H   0  0  0  0  0  0  0  0  0  0  0  0
  -15.3878    3.0110   -7.2603 H   0  0  0  0  0  0  0  0  0  0  0  0
   -8.7010   -0.8486   -6.3753 H   0  0  0  0  0  0  0  0  0  0  0  0
   -6.7716   -1.3530   -7.8022 H   0  0  0  0  0  0  0  0  0  0  0  0
   -5.9495   -0.6072  -10.4638 H   0  0  0  0  0  0  0  0  0  0  0  0
   -5.3494    1.0452  -10.3051 H   0  0  0  0  0  0  0  0  0  0  0  0
   -4.8447   -0.2016   -9.1554 H   0  0  0  0  0  0  0  0  0  0  0  0
   -7.2070    2.4235   -9.7346 H   0  0  0  0  0  0  0  0  0  0  0  0
   -9.1183    2.9466   -8.2973 H   0  0  0  0  0  0  0  0  0  0  0  0
  -11.6623    1.2944   -8.5423 H   0  0  0  0  0  0  0  0  0  0  0  0
  -13.2167    3.0544   -9.2841 H   0  0  0  0  0  0  0  0  0  0  0  0
  -14.4712    5.6255   -7.2618 H   0  0  0  0  0  0  0  0  0  0  0  0
  -13.2233    6.3609   -8.2597 H   0  0  0  0  0  0  0  0  0  0  0  0
  -14.2975    5.1429   -8.9587 H   0  0  0  0  0  0  0  0  0  0  0  0
  -12.1584    5.4170   -5.8924 H   0  0  0  0  0  0  0  0  0  0  0  0
  -10.5966    3.6621   -5.1537 H   0  0  0  0  0  0  0  0  0  0  0  0
   -8.6994    0.0253    1.2412 H   0  0  0  0  0  0  0  0  0  0  0  0
   -9.6136   -2.1530    1.9146 H   0  0  0  0  0  0  0  0  0  0  0  0
   -9.5600   -4.6116    1.6125 H   0  0  0  0  0  0  0  0  0  0  0  0
  -10.6281   -4.5341    0.2141 H   0  0  0  0  0  0  0  0  0  0  0  0
   -9.0520   -5.3081    0.0655 H   0  0  0  0  0  0  0  0  0  0  0  0
   -8.2375   -3.8680   -1.7397 H   0  0  0  0  0  0  0  0  0  0  0  0
   -7.2994   -1.6988   -2.4067 H   0  0  0  0  0  0  0  0  0  0  0  0
   -5.9099   -0.2687    0.9615 H   0  0  0  0  0  0  0  0  0  0  0  0
   -4.6518    1.1445    2.5160 H   0  0  0  0  0  0  0  0  0  0  0  0
   -3.5705    4.1769    1.9831 H   0  0  0  0  0  0  0  0  0  0  0  0
   -4.9986    4.7634    2.8273 H   0  0  0  0  0  0  0  0  0  0  0  0
   -4.1427    3.3354    3.4266 H   0  0  0  0  0  0  0  0  0  0  0  0
   -6.2478    4.6286    0.6518 H   0  0  0  0  0  0  0  0  0  0  0  0
   -7.5573    3.2229   -0.8713 H   0  0  0  0  0  0  0  0  0  0  0  0
   -6.0038    5.7989   -1.4363 H   0  0  0  0  0  0  0  0  0  0  0  0
   -7.2385    7.6546   -2.4934 H   0  0  0  0  0  0  0  0  0  0  0  0
   -7.7199    7.6043   -4.9057 H   0  0  0  0  0  0  0  0  0  0  0  0
   -7.8519    6.2946   -6.9567 H   0  0  0  0  0  0  0  0  0  0  0  0
   -7.1057    4.6914   -7.0454 H   0  0  0  0  0  0  0  0  0  0  0  0
   -5.6006    7.3516   -7.1750 H   0  0  0  0  0  0  0  0  0  0  0  0
   -4.8574    5.7551   -7.2620 H   0  0  0  0  0  0  0  0  0  0  0  0
   -5.9409    6.2946   -8.5493 H   0  0  0  0  0  0  0  0  0  0  0  0
   -5.5879    3.9285   -5.2481 H   0  0  0  0  0  0  0  0  0  0  0  0
    6.8509    4.0305    3.2913 H   0  0  0  0  0  0  0  0  0  0  0  0
    8.6472    5.1314    4.5509 H   0  0  0  0  0  0  0  0  0  0  0  0
   10.0011    3.8533    6.1622 H   0  0  0  0  0  0  0  0  0  0  0  0
   10.7347    1.6269    6.9361 H   0  0  0  0  0  0  0  0  0  0  0  0
    9.7489    0.1931    6.6102 H   0  0  0  0  0  0  0  0  0  0  0  0
    9.5986    0.8335    9.0024 H   0  0  0  0  0  0  0  0  0  0  0  0
    9.0142    2.4388    8.5497 H   0  0  0  0  0  0  0  0  0  0  0  0
    8.0261    1.0169    8.2167 H   0  0  0  0  0  0  0  0  0  0  0  0
    7.7030    0.3673    5.3180 H   0  0  0  0  0  0  0  0  0  0  0  0
   -2.5885    0.4136   -0.0225 H   0  0  0  0  0  0  0  0  0  0  0  0
   -0.9214   -0.1459   -0.0445 H   0  0  0  0  0  0  0  0  0  0  0  0
   -0.6544    0.7390    2.3324 H   0  0  0  0  0  0  0  0  0  0  0  0
   -1.9683   -0.4382    2.2125 H   0  0  0  0  0  0  0  0  0  0  0  0
   -2.3237    1.2926    2.2733 H   0  0  0  0  0  0  0  0  0  0  0  0
    2.4983   -0.4932    0.9746 H   0  0  0  0  0  0  0  0  0  0  0  0
    0.7424   -0.4439    0.9358 H   0  0  0  0  0  0  0  0  0  0  0  0
    0.8988    0.8270   -1.2798 H   0  0  0  0  0  0  0  0  0  0  0  0
    1.6527   -0.7712   -1.3526 H   0  0  0  0  0  0  0  0  0  0  0  0
    2.6511    0.6761   -1.1865 H   0  0  0  0  0  0  0  0  0  0  0  0
    6.9998   -0.4770    0.3382 H   0  0  0  0  0  0  0  0  0  0  0  0
    5.2144    0.6784   -0.8683 H   0  0  0  0  0  0  0  0  0  0  0  0
    4.1213    2.6824   -1.5776 H   0  0  0  0  0  0  0  0  0  0  0  0
    5.1531    4.1096   -1.7213 H   0  0  0  0  0  0  0  0  0  0  0  0
    4.1436    3.8993   -0.2971 H   0  0  0  0  0  0  0  0  0  0  0  0
    6.8359    4.4395    0.3172 H   0  0  0  0  0  0  0  0  0  0  0  0
    8.6244    3.2827    1.5415 H   0  0  0  0  0  0  0  0  0  0  0  0
   10.2422    1.8026   -0.1172 H   0  0  0  0  0  0  0  0  0  0  0  0
   12.5250    2.6901    0.0318 H   0  0  0  0  0  0  0  0  0  0  0  0
   14.2905    3.6202    1.5998 H   0  0  0  0  0  0  0  0  0  0  0  0
   14.8790    1.9668    1.7392 H   0  0  0  0  0  0  0  0  0  0  0  0
   14.4844    2.8792    3.1959 H   0  0  0  0  0  0  0  0  0  0  0  0
   12.7133    1.5335    4.1322 H   0  0  0  0  0  0  0  0  0  0  0  0
   10.4257    0.6705    3.9968 H   0  0  0  0  0  0  0  0  0  0  0  0
    7.1060   -6.5165    3.7189 H   0  0  0  0  0  0  0  0  0  0  0  0
    5.2659   -6.5771    5.3484 H   0  0  0  0  0  0  0  0  0  0  0  0
    4.4251   -4.2242    7.5516 H   0  0  0  0  0  0  0  0  0  0  0  0
    4.3545   -5.9862    7.4734 H   0  0  0  0  0  0  0  0  0  0  0  0
    5.3956   -5.1862    8.6603 H   0  0  0  0  0  0  0  0  0  0  0  0
    7.2827   -3.6784    7.7420 H   0  0  0  0  0  0  0  0  0  0  0  0
    9.1414   -3.6365    6.1177 H   0  0  0  0  0  0  0  0  0  0  0  0
   10.0396   -5.6166    1.3718 H   0  0  0  0  0  0  0  0  0  0  0  0
   10.9051   -7.7746    0.6164 H   0  0  0  0  0  0  0  0  0  0  0  0
   12.3243   -9.9006    1.6567 H   0  0  0  0  0  0  0  0  0  0  0  0
   10.6938  -10.4209    1.2611 H   0  0  0  0  0  0  0  0  0  0  0  0
   11.3555  -10.7482    2.8686 H   0  0  0  0  0  0  0  0  0  0  0  0
   10.4964   -9.3403    4.5638 H   0  0  0  0  0  0  0  0  0  0  0  0
    9.6110   -7.1834    5.3272 H   0  0  0  0  0  0  0  0  0  0  0  0
   12.8885   -3.9093    2.0563 H   0  0  0  0  0  0  0  0  0  0  0  0
  1  2  2  0  0  0  0
  2  3  1  0  0  0  0
  3  4  2  0  0  0  0
  3  5  1  0  0  0  0
  5  6  2  0  0  0  0
  6  7  1  0  0  0  0
  7  8  2  0  0  0  0
  8  9  1  0  0  0  0
  8 10  1  0  0  0  0
 10 11  2  0  0  0  0
 11 12  1  0  0  0  0
 12 13  2  0  0  0  0
 13 14  1  0  0  0  0
 14 15  3  0  0  0  0
 13 16  1  0  0  0  0
 16 17  3  0  0  0  0
  1 18  1  0  0  0  0
 18 19  2  0  0  0  0
 19 20  1  0  0  0  0
 20 21  1  0  0  0  0
 21 22  2  0  0  0  0
 22 23  1  0  0  0  0
 23 24  2  0  0  0  0
 24 25  1  0  0  0  0
 24 26  1  0  0  0  0
 26 27  2  0  0  0  0
 20 28  1  0  0  0  0
 28 29  2  0  0  0  0
 29 30  1  0  0  0  0
 30 31  2  0  0  0  0
 31 32  1  0  0  0  0
 31 33  1  0  0  0  0
 33 34  2  0  0  0  0
 19 35  1  0  0  0  0
 35 36  1  0  0  0  0
 36 37  1  0  0  0  0
 37 38  2  0  0  0  0
 38 39  1  0  0  0  0
 39 40  1  0  0  0  0
 40 41  2  0  0  0  0
 41 42  1  0  0  0  0
 42 43  2  0  0  0  0
 43 44  1  0  0  0  0
 43 45  1  0  0  0  0
 45 46  2  0  0  0  0
 39 47  1  0  0  0  0
 47 48  2  0  0  0  0
 48 49  1  0  0  0  0
 49 50  2  0  0  0  0
 50 51  1  0  0  0  0
 50 52  1  0  0  0  0
 52 53  2  0  0  0  0
 38 54  1  0  0  0  0
 54 55  1  0  0  0  0
 37 56  1  0  0  0  0
 56 57  2  0  0  0  0
 57 58  1  0  0  0  0
 58 59  2  0  0  0  0
 59 60  1  0  0  0  0
 60 61  2  0  0  0  0
 61 62  1  0  0  0  0
 62 63  1  0  0  0  0
 63 64  1  0  0  0  0
 62 65  2  0  0  0  0
 57 66  1  0  0  0  0
 66 67  1  0  0  0  0
 67 68  1  0  0  0  0
 68 69  1  0  0  0  0
 69 70  1  0  0  0  0
 70 71  1  0  0  0  0
 71 72  2  0  0  0  0
 72 73  1  0  0  0  0
 73 74  1  0  0  0  0
 71 75  1  0  0  0  0
 75 76  1  0  0  0  0
 76 77  1  0  0  0  0
 77 78  1  0  0  0  0
 78 79  1  0  0  0  0
 79 80  1  0  0  0  0
 80 81  2  0  0  0  0
 81 82  1  0  0  0  0
 82 83  2  0  0  0  0
 83 84  1  0  0  0  0
 84 85  1  0  0  0  0
 85 86  1  0  0  0  0
 84 87  2  0  0  0  0
 79 88  2  0  0  0  0
 88 89  1  0  0  0  0
 89 90  1  0  0  0  0
 90 91  1  0  0  0  0
 91 92  1  0  0  0  0
 92 93  1  0  0  0  0
 93 94  1  0  0  0  0
 94 95  1  0  0  0  0
 95 96  1  0  0  0  0
 96 97  1  0  0  0  0
 97 98  1  0  0  0  0
 95 99  1  0  0  0  0
 99100  1  0  0  0  0
 92101  1  0  0  0  0
101102  1  0  0  0  0
 88103  1  0  0  0  0
103104  2  0  0  0  0
104105  1  0  0  0  0
105106  1  0  0  0  0
106107  2  0  0  0  0
107108  1  0  0  0  0
108109  2  0  0  0  0
109110  1  0  0  0  0
109111  1  0  0  0  0
111112  2  0  0  0  0
105113  1  0  0  0  0
113114  2  0  0  0  0
114115  1  0  0  0  0
115116  2  0  0  0  0
116117  1  0  0  0  0
116118  1  0  0  0  0
118119  2  0  0  0  0
104120  1  0  0  0  0
120121  1  0  0  0  0
121122  1  0  0  0  0
122123  2  0  0  0  0
123124  1  0  0  0  0
124125  1  0  0  0  0
125126  2  0  0  0  0
126127  1  0  0  0  0
127128  2  0  0  0  0
128129  1  0  0  0  0
128130  1  0  0  0  0
130131  2  0  0  0  0
124132  1  0  0  0  0
132133  2  0  0  0  0
133134  1  0  0  0  0
134135  2  0  0  0  0
135136  1  0  0  0  0
135137  1  0  0  0  0
137138  2  0  0  0  0
123139  1  0  0  0  0
139140  1  0  0  0  0
122141  1  0  0  0  0
141142  2  0  0  0  0
142143  1  0  0  0  0
143144  2  0  0  0  0
143145  1  0  0  0  0
145146  2  0  0  0  0
146147  1  0  0  0  0
146148  1  0  0  0  0
148149  1  0  0  0  0
148150  2  0  0  0  0
150151  1  0  0  0  0
150152  1  0  0  0  0
152153  1  0  0  0  0
152154  2  0  0  0  0
154155  1  0  0  0  0
155156  2  0  0  0  0
156157  1  0  0  0  0
157158  3  0  0  0  0
156159  1  0  0  0  0
159160  3  0  0  0  0
 12  2  1  0  0  0  0
 55 18  1  0  0  0  0
 98 56  1  0  0  0  0
140103  1  0  0  0  0
155142  1  0  0  0  0
 11  5  1  0  0  0  0
 27 21  1  0  0  0  0
 34 28  1  0  0  0  0
 54 35  2  0  0  0  0
 65 58  1  0  0  0  0
 97 66  2  0  0  0  0
112106  1  0  0  0  0
119113  1  0  0  0  0
139120  2  0  0  0  0
154145  1  0  0  0  0
 46 40  1  0  0  0  0
 53 47  1  0  0  0  0
 96 68  2  0  0  0  0
131125  1  0  0  0  0
138132  1  0  0  0  0
 94 69  2  0  0  0  0
 74 70  2  0  0  0  0
 93 75  2  0  0  0  0
 91 76  2  0  0  0  0
 90 78  2  0  0  0  0
 87 80  1  0  0  0  0
  1161  1  0  0  0  0
  6162  1  0  0  0  0
  7163  1  0  0  0  0
 10164  1  0  0  0  0
 22165  1  0  0  0  0
 23166  1  0  0  0  0
 25167  1  0  0  0  0
 25168  1  0  0  0  0
 25169  1  0  0  0  0
 26170  1  0  0  0  0
 27171  1  0  0  0  0
 29172  1  0  0  0  0
 30173  1  0  0  0  0
 32174  1  0  0  0  0
 32175  1  0  0  0  0
 32176  1  0  0  0  0
 33177  1  0  0  0  0
 34178  1  0  0  0  0
 41179  1  0  0  0  0
 42180  1  0  0  0  0
 44181  1  0  0  0  0
 44182  1  0  0  0  0
 44183  1  0  0  0  0
 45184  1  0  0  0  0
 46185  1  0  0  0  0
 48186  1  0  0  0  0
 49187  1  0  0  0  0
 51188  1  0  0  0  0
 51189  1  0  0  0  0
 51190  1  0  0  0  0
 52191  1  0  0  0  0
 53192  1  0  0  0  0
 59193  1  0  0  0  0
 60194  1  0  0  0  0
 61195  1  0  0  0  0
 63196  1  0  0  0  0
 63197  1  0  0  0  0
 64198  1  0  0  0  0
 64199  1  0  0  0  0
 64200  1  0  0  0  0
 65201  1  0  0  0  0
 81202  1  0  0  0  0
 82203  1  0  0  0  0
 83204  1  0  0  0  0
 85205  1  0  0  0  0
 85206  1  0  0  0  0
 86207  1  0  0  0  0
 86208  1  0  0  0  0
 86209  1  0  0  0  0
 87210  1  0  0  0  0
 99211  1  0  0  0  0
 99212  1  0  0  0  0
100213  1  0  0  0  0
100214  1  0  0  0  0
100215  1  0  0  0  0
101216  1  0  0  0  0
101217  1  0  0  0  0
102218  1  0  0  0  0
102219  1  0  0  0  0
102220  1  0  0  0  0
107221  1  0  0  0  0
108222  1  0  0  0  0
110223  1  0  0  0  0
110224  1  0  0  0  0
110225  1  0  0  0  0
111226  1  0  0  0  0
112227  1  0  0  0  0
114228  1  0  0  0  0
115229  1  0  0  0  0
117230  1  0  0  0  0
117231  1  0  0  0  0
117232  1  0  0  0  0
118233  1  0  0  0  0
119234  1  0  0  0  0
126235  1  0  0  0  0
127236  1  0  0  0  0
129237  1  0  0  0  0
129238  1  0  0  0  0
129239  1  0  0  0  0
130240  1  0  0  0  0
131241  1  0  0  0  0
133242  1  0  0  0  0
134243  1  0  0  0  0
136244  1  0  0  0  0
136245  1  0  0  0  0
136246  1  0  0  0  0
137247  1  0  0  0  0
138248  1  0  0  0  0
141249  1  0  0  0  0
M  END
