207

C         -8.29540        2.00610        7.07290
C         -9.43160        2.29880        6.35870
C        -10.59420        2.91210        7.03500
O        -10.75500        3.05670        8.22870
C        -11.48940        3.35180        5.94010
C        -12.65690        4.08650        6.00080
C        -13.29930        4.41320        4.81540
C        -12.76050        4.00580        3.60180
Cl       -13.56080        4.44440        2.13900
C        -11.59150        3.25440        3.52460
C        -10.96080        2.92370        4.70910
C         -9.75170        2.13880        4.96740
C         -9.22860        1.20120        4.10800
C         -8.24350        0.26670        4.47850
N         -7.48530       -0.55210        4.75420
C         -9.71990        0.97530        2.81090
N        -10.08840        0.74070        1.74790
C         -6.99700        1.85660        6.57330
C         -5.92560        1.12730        7.12370
N         -5.94730        0.42290        8.29400
C         -5.27030       -0.81140        8.36380
C         -5.34990       -1.71010        7.30240
C         -4.69960       -2.92390        7.38410
C         -3.97030       -3.27640        8.51550
C         -3.30080       -4.61400        8.59420
C         -3.90190       -2.37200        9.56710
C         -4.53960       -1.14830        9.49740
C         -6.63950        0.89180        9.42100
C         -7.35790        0.01230       10.22530
C         -8.04500        0.48730       11.32530
C         -8.03710        1.83860       11.65040
C         -8.82260        2.35880       12.81250
C         -7.30230        2.70720       10.85010
C         -6.60650        2.24570        9.75160
C         -4.81690        1.13210        6.24950
S         -3.22650        0.45430        6.33490
C         -2.79890        1.21820        4.80950
C         -3.83410        1.99220        4.29420
N         -3.77000        2.77200        3.15280
C         -4.93170        2.87520        2.36560
C         -5.67950        1.73600        2.08130
C         -6.83040        1.83320        1.32440
C         -7.26810        3.05960        0.83910
C         -8.50860        3.15910        0.00700
C         -6.51250        4.19100        1.12790
C         -5.35870        4.10770        1.88080
C         -2.64260        3.54850        2.86860
C         -1.83340        4.03960        3.89140
C         -0.69590        4.76090        3.59480
C         -0.33690        5.02920        2.27820
C          0.91120        5.80070        1.97550
C         -1.16050        4.55750        1.26450
C         -2.29530        3.82340        1.54750
C         -4.97920        1.91260        5.11610
S         -6.54750        2.62590        5.04400
C         -1.54800        0.91270        4.20300
C         -0.39110        0.47750        4.82500
C         -0.16040        0.49060        6.27060
C         -0.41470        1.63830        7.01690
C         -0.16530        1.64620        8.37500
C          0.33810        0.51730        8.99770
C          0.61060       -0.63110        8.26600
C          1.11550       -1.87180        8.94340
C         -0.06270       -2.72420        9.41750
C          0.35970       -0.63250        6.90240
C          0.57790        0.07810        3.88640
S          2.19790       -0.55330        4.05390
C          2.33110       -0.60860        2.32800
C          3.24940       -1.01560        1.34190
C          4.47720       -1.71400        1.39270
C          5.08830       -2.15170        0.16250
N          6.18360       -2.86440        0.37090
S          6.43460       -2.97070        1.96710
N          5.15180       -2.11390        2.45850
C          4.53250       -1.73670       -1.06880
C          4.95040       -1.86190       -2.40710
S          6.18550       -2.65300       -3.32440
C          5.55380       -1.91670       -4.77760
C          5.92240       -2.01080       -6.13860
C          6.95420       -2.92700       -6.61980
C          6.75650       -3.68050       -7.77480
C          7.72560       -4.57190       -8.19090
C          8.89010       -4.73340       -7.45900
C          9.09950       -3.99860       -6.29950
C         10.33060       -4.20090       -5.46320
C         10.03410       -5.16460       -4.31250
C          8.12500       -3.10010       -5.89060
C          5.10580       -1.23170       -6.93150
S          3.84610       -0.42420       -6.01040
C          4.44500       -1.10500       -4.54100
C          4.09210       -1.07960       -3.18520
N          3.13280       -0.49870       -2.39110
C          3.37370       -0.92100       -1.09560
C          2.64450       -0.71590        0.09490
N          1.37500       -0.20850        0.30540
C          1.18980       -0.14610        1.66480
C          0.18050        0.23320        2.55750
S         -1.42870        0.84740        2.44670
C          0.23790       -0.34730       -0.58150
C         -0.58120       -1.59160       -0.23930
C          2.51940        0.75650       -2.77610
C          3.57380        1.83310       -3.03290
C          5.16480       -0.97210       -8.35220
C          3.98050       -0.84590       -9.07100
C          3.96720       -0.58980      -10.43380
O          2.85630       -0.45460      -11.19000
C          1.59550       -0.27490      -10.56960
C          1.46900        1.09340       -9.90950
C          5.20100       -0.43720      -11.10570
C          6.39170       -0.55240      -10.37630
C          6.40200       -0.79250       -9.01810
O          7.51970       -0.82830       -8.25560
C          8.76810       -0.53680       -8.85130
C          9.81710       -0.54380       -7.75200
C          5.21470       -0.18050      -12.51440
C          6.14930        0.50370      -13.22540
C          6.25510        0.33120      -14.69890
O          5.45430       -0.20270      -15.43100
C          7.57180        0.90130      -15.05880
C          8.22000        0.89860      -16.27930
C          9.47580        1.47860      -16.36640
C         10.05780        2.04460      -15.23760
Cl        11.62610        2.74680      -15.36500
C          9.41420        2.06340      -14.00410
C          8.15870        1.48690      -13.92170
C          7.22180        1.37990      -12.80350
C          7.23510        2.16350      -11.67890
C          6.15590        2.25460      -10.77410
N          5.28730        2.43220      -10.04470
C          8.29440        3.02480      -11.33170
N          9.14680        3.70980      -10.98070
H         -8.43290        1.95650        8.14750
H        -13.05450        4.39720        6.95450
H        -14.21290        4.98640        4.82660
H        -11.19900        2.96020        2.56500
H         -5.93490       -1.45900        6.43010
H         -4.77070       -3.61860        6.56010
H         -2.67800       -4.68810        9.48170
H         -2.68270       -4.78540        7.71450
H         -4.04930       -5.40550        8.63030
H         -3.34130       -2.62670       10.45470
H         -4.47660       -0.45040       10.31930
H         -7.38360       -1.03750        9.97420
H         -8.60870       -0.20370       11.93460
H         -8.28410        3.15660       13.31950
H         -9.76980        2.76660       12.45840
H         -9.03850        1.56670       13.52510
H         -7.27680        3.75960       11.09090
H         -6.03750        2.92890        9.13770
H         -5.35340        0.77580        2.45470
H         -7.39730        0.94080        1.10490
H         -9.02640        4.09750        0.19560
H         -9.18040        2.33050        0.21790
H         -8.25140        3.12550       -1.05230
H         -6.83820        5.15490        0.76380
H         -4.78610        4.99590        2.10480
H         -2.10680        3.85770        4.92060
H         -0.07640        5.12970        4.39980
H          1.79100        5.20780        2.22670
H          0.94890        6.71520        2.56500
H          0.96190        6.06190        0.92150
H         -0.90580        4.75750        0.23340
H         -2.91600        3.44730        0.74790
H         -0.79050        2.52230        6.52320
H         -0.35920        2.53900        8.95170
H          0.53060        0.53050       10.06090
H          1.73640       -1.60260        9.80010
H          1.72480       -2.45080        8.24710
H         -0.69970       -2.98480        8.57580
H         -0.66240       -2.17020       10.13620
H          0.29220       -3.63870        9.88760
H          0.56220       -1.52070        6.32160
H          5.84030       -3.57180       -8.33680
H          7.56960       -5.15240       -9.08890
H          9.64080       -5.43710       -7.78950
H         11.13690       -4.60630       -6.07780
H         10.66090       -3.24440       -5.05180
H         10.92040       -5.30820       -3.69890
H          9.71960       -6.13090       -4.70060
H          9.23650       -4.77110       -3.68650
H          8.29030       -2.51010       -5.00130
H          0.59150       -0.44000       -1.60650
H         -0.38690        0.54670       -0.48670
H         -1.39770       -1.69610       -0.94830
H         -0.99990       -1.51880        0.76030
H          0.04620       -2.47890       -0.29290
H          1.92700        0.59430       -3.68250
H          1.87100        1.09670       -1.97030
H          4.19520        1.96640       -2.14980
H          3.08320        2.77510       -3.26130
H          4.21040        1.56490       -3.87100
H          3.05560       -0.97370       -8.52980
H          0.88190       -0.36370      -11.39310
H          1.39520       -1.08020       -9.85240
H          2.20070        1.21080       -9.11420
H          1.64250        1.87340      -10.64630
H          0.47120        1.21030       -9.49630
H          7.32090       -0.47210      -10.91730
H          9.01000       -1.29520       -9.60890
H          8.73190        0.45050       -9.33480
H          9.86050       -1.52690       -7.29220
H          9.55810        0.18720       -6.99140
H         10.78850       -0.29600       -8.16960
H          4.40940       -0.62230      -13.09070
H          7.74930        0.45240      -17.14150
H         10.00930        1.49450      -17.30360
H          9.89770        2.50920      -13.15010
