
  xtb     02082201183D
 energy: -390.118239509681 gnorm: 0.000683312485 xtb: 6.4.1 (unknown)
225249  0     0  0            999 V2000
  -11.4204    2.5726   -1.0781 C   0  0  0  0  0  0  0  0  0  0  0  0
  -11.9823    2.1473    0.1113 C   0  0  0  0  0  0  0  0  0  0  0  0
  -11.2627    1.3474    1.1125 C   0  0  0  0  0  0  0  0  0  0  0  0
  -10.1009    0.9850    1.0782 O   0  0  0  0  0  0  0  0  0  0  0  0
  -12.2814    0.9598    2.1135 C   0  0  0  0  0  0  0  0  0  0  0  0
  -12.1356    0.1978    3.2542 C   0  0  0  0  0  0  0  0  0  0  0  0
  -13.2476   -0.0183    4.0554 C   0  0  0  0  0  0  0  0  0  0  0  0
  -14.4742    0.5204    3.6921 C   0  0  0  0  0  0  0  0  0  0  0  0
  -15.8464    0.2380    4.6984 Cl  0  0  0  0  0  0  0  0  0  0  0  0
  -14.6371    1.2833    2.5388 C   0  0  0  0  0  0  0  0  0  0  0  0
  -13.5243    1.5034    1.7489 C   0  0  0  0  0  0  0  0  0  0  0  0
  -13.3526    2.2677    0.5124 C   0  0  0  0  0  0  0  0  0  0  0  0
  -14.2902    3.0930   -0.0601 C   0  0  0  0  0  0  0  0  0  0  0  0
  -14.0304    3.9251   -1.1667 C   0  0  0  0  0  0  0  0  0  0  0  0
  -13.8753    4.6526   -2.0424 N   0  0  0  0  0  0  0  0  0  0  0  0
  -15.5923    3.2748    0.4391 C   0  0  0  0  0  0  0  0  0  0  0  0
  -16.6599    3.4775    0.8127 N   0  0  0  0  0  0  0  0  0  0  0  0
  -10.0658    2.8113   -1.3014 C   0  0  0  0  0  0  0  0  0  0  0  0
   -9.0147    3.1281   -0.4095 C   0  0  0  0  0  0  0  0  0  0  0  0
   -9.1310    3.4570    0.9083 N   0  0  0  0  0  0  0  0  0  0  0  0
  -10.3067    3.9757    1.4694 C   0  0  0  0  0  0  0  0  0  0  0  0
  -11.0934    4.8983    0.7807 C   0  0  0  0  0  0  0  0  0  0  0  0
  -12.2641    5.3644    1.3400 C   0  0  0  0  0  0  0  0  0  0  0  0
  -12.6884    4.9307    2.5945 C   0  0  0  0  0  0  0  0  0  0  0  0
  -13.9897    5.4052    3.1591 C   0  0  0  0  0  0  0  0  0  0  0  0
  -11.8767    4.0465    3.2921 C   0  0  0  0  0  0  0  0  0  0  0  0
  -10.6982    3.5743    2.7447 C   0  0  0  0  0  0  0  0  0  0  0  0
   -8.0090    3.3038    1.7532 C   0  0  0  0  0  0  0  0  0  0  0  0
   -7.6293    4.3409    2.5980 C   0  0  0  0  0  0  0  0  0  0  0  0
   -6.5204    4.1959    3.4085 C   0  0  0  0  0  0  0  0  0  0  0  0
   -5.7716    3.0248    3.3960 C   0  0  0  0  0  0  0  0  0  0  0  0
   -4.5454    2.8891    4.2451 C   0  0  0  0  0  0  0  0  0  0  0  0
   -6.1754    1.9874    2.5635 C   0  0  0  0  0  0  0  0  0  0  0  0
   -7.2831    2.1169    1.7496 C   0  0  0  0  0  0  0  0  0  0  0  0
   -7.7864    3.1884   -1.1059 C   0  0  0  0  0  0  0  0  0  0  0  0
   -6.1438    3.4692   -0.6369 S   0  0  0  0  0  0  0  0  0  0  0  0
   -5.6113    3.3314   -2.3017 C   0  0  0  0  0  0  0  0  0  0  0  0
   -6.6549    3.0900   -3.1744 C   0  0  0  0  0  0  0  0  0  0  0  0
   -6.5150    2.8267   -4.5515 N   0  0  0  0  0  0  0  0  0  0  0  0
   -7.1302    3.6699   -5.4789 C   0  0  0  0  0  0  0  0  0  0  0  0
   -7.8164    4.8194   -5.0938 C   0  0  0  0  0  0  0  0  0  0  0  0
   -8.3756    5.6522   -6.0422 C   0  0  0  0  0  0  0  0  0  0  0  0
   -8.2599    5.3834   -7.3990 C   0  0  0  0  0  0  0  0  0  0  0  0
   -8.8854    6.2911   -8.4145 C   0  0  0  0  0  0  0  0  0  0  0  0
   -7.5509    4.2519   -7.7788 C   0  0  0  0  0  0  0  0  0  0  0  0
   -6.9893    3.4101   -6.8415 C   0  0  0  0  0  0  0  0  0  0  0  0
   -6.3865    1.4422   -4.8475 C   0  0  0  0  0  0  0  0  0  0  0  0
   -7.4242    0.7459   -5.4626 C   0  0  0  0  0  0  0  0  0  0  0  0
   -7.2952   -0.6016   -5.7281 C   0  0  0  0  0  0  0  0  0  0  0  0
   -6.1417   -1.2962   -5.3774 C   0  0  0  0  0  0  0  0  0  0  0  0
   -6.0229   -2.7606   -5.6706 C   0  0  0  0  0  0  0  0  0  0  0  0
   -5.1210   -0.5987   -4.7480 C   0  0  0  0  0  0  0  0  0  0  0  0
   -5.2369    0.7543   -4.4836 C   0  0  0  0  0  0  0  0  0  0  0  0
   -7.8837    3.0114   -2.4803 C   0  0  0  0  0  0  0  0  0  0  0  0
   -9.5094    2.7468   -2.9828 S   0  0  0  0  0  0  0  0  0  0  0  0
   -4.2061    3.3602   -2.5583 C   0  0  0  0  0  0  0  0  0  0  0  0
   -3.5166    3.7945   -3.6709 C   0  0  0  0  0  0  0  0  0  0  0  0
   -4.0731    4.5771   -4.7735 C   0  0  0  0  0  0  0  0  0  0  0  0
   -4.8334    5.7117   -4.5107 C   0  0  0  0  0  0  0  0  0  0  0  0
   -5.2610    6.5073   -5.5557 C   0  0  0  0  0  0  0  0  0  0  0  0
   -4.9490    6.1722   -6.8607 C   0  0  0  0  0  0  0  0  0  0  0  0
   -4.2079    5.0314   -7.1399 C   0  0  0  0  0  0  0  0  0  0  0  0
   -3.8329    4.6809   -8.5502 C   0  0  0  0  0  0  0  0  0  0  0  0
   -2.4479    5.2380   -8.8857 C   0  0  0  0  0  0  0  0  0  0  0  0
   -3.7637    4.2474   -6.0872 C   0  0  0  0  0  0  0  0  0  0  0  0
   -2.1444    3.4815   -3.5719 C   0  0  0  0  0  0  0  0  0  0  0  0
   -0.7986    3.7579   -4.6488 S   0  0  0  0  0  0  0  0  0  0  0  0
    0.2460    2.9986   -3.4962 C   0  0  0  0  0  0  0  0  0  0  0  0
    1.5840    2.5852   -3.3881 C   0  0  0  0  0  0  0  0  0  0  0  0
    2.6431    2.5907   -4.3224 C   0  0  0  0  0  0  0  0  0  0  0  0
    3.8519    1.8800   -4.0089 C   0  0  0  0  0  0  0  0  0  0  0  0
    4.7229    1.9011   -5.0055 N   0  0  0  0  0  0  0  0  0  0  0  0
    4.0839    2.7479   -6.2284 S   0  0  0  0  0  0  0  0  0  0  0  0
    2.6674    3.1164   -5.5370 N   0  0  0  0  0  0  0  0  0  0  0  0
    3.9942    1.3042   -2.7275 C   0  0  0  0  0  0  0  0  0  0  0  0
    5.0546    0.6058   -2.1226 C   0  0  0  0  0  0  0  0  0  0  0  0
    6.6179   -0.0186   -2.5260 S   0  0  0  0  0  0  0  0  0  0  0  0
    6.7793   -0.6115   -0.8902 C   0  0  0  0  0  0  0  0  0  0  0  0
    7.7776   -1.3704   -0.2449 C   0  0  0  0  0  0  0  0  0  0  0  0
    8.9510   -1.8917   -0.9463 C   0  0  0  0  0  0  0  0  0  0  0  0
    9.6866   -1.0609   -1.7865 C   0  0  0  0  0  0  0  0  0  0  0  0
   10.7401   -1.5789   -2.5148 C   0  0  0  0  0  0  0  0  0  0  0  0
   11.0645   -2.9205   -2.4159 C   0  0  0  0  0  0  0  0  0  0  0  0
   10.3474   -3.7610   -1.5739 C   0  0  0  0  0  0  0  0  0  0  0  0
   10.6764   -5.2229   -1.4803 C   0  0  0  0  0  0  0  0  0  0  0  0
    9.8314   -6.0284   -2.4688 C   0  0  0  0  0  0  0  0  0  0  0  0
    9.2878   -3.2371   -0.8494 C   0  0  0  0  0  0  0  0  0  0  0  0
    7.4280   -1.6324    1.0669 C   0  0  0  0  0  0  0  0  0  0  0  0
    5.8603   -0.9701    1.5017 S   0  0  0  0  0  0  0  0  0  0  0  0
    5.6725   -0.3233   -0.0891 C   0  0  0  0  0  0  0  0  0  0  0  0
    4.6839    0.3688   -0.7973 C   0  0  0  0  0  0  0  0  0  0  0  0
    3.4319    0.8771   -0.5557 N   0  0  0  0  0  0  0  0  0  0  0  0
    2.9766    1.4292   -1.7428 C   0  0  0  0  0  0  0  0  0  0  0  0
    1.7150    1.9528   -2.1213 C   0  0  0  0  0  0  0  0  0  0  0  0
    0.4788    1.9478   -1.5015 N   0  0  0  0  0  0  0  0  0  0  0  0
   -0.4080    2.5769   -2.3352 C   0  0  0  0  0  0  0  0  0  0  0  0
   -1.7824    2.8469   -2.3823 C   0  0  0  0  0  0  0  0  0  0  0  0
   -3.1566    2.6105   -1.3602 S   0  0  0  0  0  0  0  0  0  0  0  0
   -0.0049    1.1380   -0.4058 C   0  0  0  0  0  0  0  0  0  0  0  0
   -0.4344    1.9845    0.7930 C   0  0  0  0  0  0  0  0  0  0  0  0
    3.0893    1.2592    0.7975 C   0  0  0  0  0  0  0  0  0  0  0  0
    4.0355    2.3390    1.3232 C   0  0  0  0  0  0  0  0  0  0  0  0
    8.1493   -2.3083    2.0948 C   0  0  0  0  0  0  0  0  0  0  0  0
    7.6647   -2.8323    3.2679 C   0  0  0  0  0  0  0  0  0  0  0  0
    8.7692   -3.4002    3.9444 C   0  0  0  0  0  0  0  0  0  0  0  0
    8.9106   -4.0849    5.1654 C   0  0  0  0  0  0  0  0  0  0  0  0
    7.8411   -4.4250    6.0666 C   0  0  0  0  0  0  0  0  0  0  0  0
    7.9505   -4.7315    7.3981 C   0  0  0  0  0  0  0  0  0  0  0  0
    6.7190   -5.1116    7.9573 C   0  0  0  0  0  0  0  0  0  0  0  0
    6.6056   -5.4514    9.2554 F   0  0  0  0  0  0  0  0  0  0  0  0
    5.6591   -5.1105    7.0991 C   0  0  0  0  0  0  0  0  0  0  0  0
    4.2578   -5.5350    7.3635 C   0  0  0  0  0  0  0  0  0  0  0  0
    3.9820   -6.9055    6.7404 C   0  0  0  0  0  0  0  0  0  0  0  0
    6.1942   -4.6120    5.5322 S   0  0  0  0  0  0  0  0  0  0  0  0
   10.2151   -4.4956    5.4238 C   0  0  0  0  0  0  0  0  0  0  0  0
   11.3392   -4.2621    4.5889 C   0  0  0  0  0  0  0  0  0  0  0  0
   11.2047   -3.5115    3.3954 C   0  0  0  0  0  0  0  0  0  0  0  0
   12.2931   -3.1269    2.5439 C   0  0  0  0  0  0  0  0  0  0  0  0
   11.9760   -2.4810    0.9554 S   0  0  0  0  0  0  0  0  0  0  0  0
   13.6534   -2.2532    0.6353 C   0  0  0  0  0  0  0  0  0  0  0  0
   14.1506   -1.7454   -0.6738 C   0  0  0  0  0  0  0  0  0  0  0  0
   14.7496   -2.8823   -1.5056 C   0  0  0  0  0  0  0  0  0  0  0  0
   14.3876   -2.6478    1.7200 C   0  0  0  0  0  0  0  0  0  0  0  0
   13.6429   -3.1364    2.8021 C   0  0  0  0  0  0  0  0  0  0  0  0
   15.7310   -2.5641    1.7555 F   0  0  0  0  0  0  0  0  0  0  0  0
    9.8891   -3.1488    3.1100 C   0  0  0  0  0  0  0  0  0  0  0  0
    9.4940   -2.4897    1.9959 O   0  0  0  0  0  0  0  0  0  0  0  0
   12.3991   -4.9733    5.1995 C   0  0  0  0  0  0  0  0  0  0  0  0
   11.8815   -5.5859    6.3202 C   0  0  0  0  0  0  0  0  0  0  0  0
   10.5681   -5.2608    6.4747 O   0  0  0  0  0  0  0  0  0  0  0  0
   12.4804   -6.4418    7.2793 C   0  0  0  0  0  0  0  0  0  0  0  0
   11.8155   -7.1641    8.2214 C   0  0  0  0  0  0  0  0  0  0  0  0
   12.5204   -7.6464    9.4432 C   0  0  0  0  0  0  0  0  0  0  0  0
   13.7150   -7.7370    9.6035 O   0  0  0  0  0  0  0  0  0  0  0  0
   11.4442   -7.9138   10.4195 C   0  0  0  0  0  0  0  0  0  0  0  0
   11.5394   -8.2454   11.7584 C   0  0  0  0  0  0  0  0  0  0  0  0
   10.3718   -8.3985   12.4888 C   0  0  0  0  0  0  0  0  0  0  0  0
    9.1366   -8.2104   11.8762 C   0  0  0  0  0  0  0  0  0  0  0  0
    7.7031   -8.3805   12.8119 Cl  0  0  0  0  0  0  0  0  0  0  0  0
    9.0228   -7.8873   10.5272 C   0  0  0  0  0  0  0  0  0  0  0  0
   10.1908   -7.7480    9.7994 C   0  0  0  0  0  0  0  0  0  0  0  0
   10.4039   -7.4563    8.3835 C   0  0  0  0  0  0  0  0  0  0  0  0
    9.4945   -7.6836    7.3873 C   0  0  0  0  0  0  0  0  0  0  0  0
    9.8198   -7.6728    6.0129 C   0  0  0  0  0  0  0  0  0  0  0  0
   10.0479   -7.7322    4.8898 N   0  0  0  0  0  0  0  0  0  0  0  0
    8.1499   -8.0474    7.6013 C   0  0  0  0  0  0  0  0  0  0  0  0
    7.0415   -8.3310    7.6948 N   0  0  0  0  0  0  0  0  0  0  0  0
  -12.0677    2.6961   -1.9382 H   0  0  0  0  0  0  0  0  0  0  0  0
  -11.1721   -0.2125    3.5148 H   0  0  0  0  0  0  0  0  0  0  0  0
  -13.1686   -0.6019    4.9590 H   0  0  0  0  0  0  0  0  0  0  0  0
  -15.6086    1.6752    2.2862 H   0  0  0  0  0  0  0  0  0  0  0  0
  -10.7879    5.2460   -0.1947 H   0  0  0  0  0  0  0  0  0  0  0  0
  -12.8664    6.0731    0.7906 H   0  0  0  0  0  0  0  0  0  0  0  0
  -14.8220    4.9848    2.5939 H   0  0  0  0  0  0  0  0  0  0  0  0
  -14.0639    6.4892    3.0940 H   0  0  0  0  0  0  0  0  0  0  0  0
  -14.0965    5.1052    4.1981 H   0  0  0  0  0  0  0  0  0  0  0  0
  -12.1753    3.7070    4.2732 H   0  0  0  0  0  0  0  0  0  0  0  0
  -10.0807    2.8806    3.2952 H   0  0  0  0  0  0  0  0  0  0  0  0
   -8.2017    5.2570    2.6104 H   0  0  0  0  0  0  0  0  0  0  0  0
   -6.2281    5.0093    4.0565 H   0  0  0  0  0  0  0  0  0  0  0  0
   -4.6079    3.5247    5.1249 H   0  0  0  0  0  0  0  0  0  0  0  0
   -4.4047    1.8583    4.5616 H   0  0  0  0  0  0  0  0  0  0  0  0
   -3.6663    3.1884    3.6731 H   0  0  0  0  0  0  0  0  0  0  0  0
   -5.6172    1.0628    2.5552 H   0  0  0  0  0  0  0  0  0  0  0  0
   -7.6149    1.3009    1.1270 H   0  0  0  0  0  0  0  0  0  0  0  0
   -7.9084    5.0750   -4.0493 H   0  0  0  0  0  0  0  0  0  0  0  0
   -8.9129    6.5322   -5.7183 H   0  0  0  0  0  0  0  0  0  0  0  0
   -8.6787    7.3336   -8.1784 H   0  0  0  0  0  0  0  0  0  0  0  0
   -8.5096    6.0755   -9.4118 H   0  0  0  0  0  0  0  0  0  0  0  0
   -9.9679    6.1608   -8.4219 H   0  0  0  0  0  0  0  0  0  0  0  0
   -7.4286    4.0245   -8.8283 H   0  0  0  0  0  0  0  0  0  0  0  0
   -6.4300    2.5444   -7.1626 H   0  0  0  0  0  0  0  0  0  0  0  0
   -8.3303    1.2704   -5.7289 H   0  0  0  0  0  0  0  0  0  0  0  0
   -8.1077   -1.1291   -6.2069 H   0  0  0  0  0  0  0  0  0  0  0  0
   -6.7924   -3.3171   -5.1366 H   0  0  0  0  0  0  0  0  0  0  0  0
   -5.0495   -3.1408   -5.3713 H   0  0  0  0  0  0  0  0  0  0  0  0
   -6.1579   -2.9472   -6.7351 H   0  0  0  0  0  0  0  0  0  0  0  0
   -4.2163   -1.1165   -4.4624 H   0  0  0  0  0  0  0  0  0  0  0  0
   -4.4293    1.2792   -3.9999 H   0  0  0  0  0  0  0  0  0  0  0  0
   -5.0646    5.9755   -3.4889 H   0  0  0  0  0  0  0  0  0  0  0  0
   -5.8387    7.3963   -5.3513 H   0  0  0  0  0  0  0  0  0  0  0  0
   -5.2890    6.7988   -7.6720 H   0  0  0  0  0  0  0  0  0  0  0  0
   -3.8229    3.5958   -8.6698 H   0  0  0  0  0  0  0  0  0  0  0  0
   -4.5691    5.0953   -9.2411 H   0  0  0  0  0  0  0  0  0  0  0  0
   -1.7013    4.8290   -8.2088 H   0  0  0  0  0  0  0  0  0  0  0  0
   -2.1710    4.9824   -9.9059 H   0  0  0  0  0  0  0  0  0  0  0  0
   -2.4426    6.3211   -8.7852 H   0  0  0  0  0  0  0  0  0  0  0  0
   -3.1833    3.3586   -6.2892 H   0  0  0  0  0  0  0  0  0  0  0  0
    9.4354   -0.0137   -1.8610 H   0  0  0  0  0  0  0  0  0  0  0  0
   11.3056   -0.9336   -3.1714 H   0  0  0  0  0  0  0  0  0  0  0  0
   11.8809   -3.3200   -3.0000 H   0  0  0  0  0  0  0  0  0  0  0  0
   10.4837   -5.5789   -0.4663 H   0  0  0  0  0  0  0  0  0  0  0  0
   11.7342   -5.3798   -1.7009 H   0  0  0  0  0  0  0  0  0  0  0  0
    8.7729   -5.8965   -2.2569 H   0  0  0  0  0  0  0  0  0  0  0  0
   10.0197   -5.6957   -3.4872 H   0  0  0  0  0  0  0  0  0  0  0  0
   10.0703   -7.0868   -2.3986 H   0  0  0  0  0  0  0  0  0  0  0  0
    8.7047   -3.8878   -0.2136 H   0  0  0  0  0  0  0  0  0  0  0  0
   -0.8785    0.5811   -0.7643 H   0  0  0  0  0  0  0  0  0  0  0  0
    0.7616    0.4105   -0.1369 H   0  0  0  0  0  0  0  0  0  0  0  0
    0.3451    2.6806    1.0952 H   0  0  0  0  0  0  0  0  0  0  0  0
   -0.6734    1.3373    1.6321 H   0  0  0  0  0  0  0  0  0  0  0  0
   -1.3191    2.5637    0.5432 H   0  0  0  0  0  0  0  0  0  0  0  0
    3.1555    0.3686    1.4304 H   0  0  0  0  0  0  0  0  0  0  0  0
    2.0779    1.6465    0.8211 H   0  0  0  0  0  0  0  0  0  0  0  0
    4.0026    3.2141    0.6774 H   0  0  0  0  0  0  0  0  0  0  0  0
    3.7341    2.6311    2.3254 H   0  0  0  0  0  0  0  0  0  0  0  0
    5.0580    1.9744    1.3635 H   0  0  0  0  0  0  0  0  0  0  0  0
    6.6435   -2.8166    3.5875 H   0  0  0  0  0  0  0  0  0  0  0  0
    8.8589   -4.6667    7.9662 H   0  0  0  0  0  0  0  0  0  0  0  0
    3.5632   -4.7980    6.9528 H   0  0  0  0  0  0  0  0  0  0  0  0
    4.1131   -5.5862    8.4446 H   0  0  0  0  0  0  0  0  0  0  0  0
    2.9718   -7.2279    6.9780 H   0  0  0  0  0  0  0  0  0  0  0  0
    4.0894   -6.8553    5.6590 H   0  0  0  0  0  0  0  0  0  0  0  0
    4.6863   -7.6388    7.1248 H   0  0  0  0  0  0  0  0  0  0  0  0
   13.3208   -1.2878   -1.2145 H   0  0  0  0  0  0  0  0  0  0  0  0
   14.9182   -0.9871   -0.4991 H   0  0  0  0  0  0  0  0  0  0  0  0
   15.0729   -2.5080   -2.4733 H   0  0  0  0  0  0  0  0  0  0  0  0
   15.6077   -3.3123   -0.9950 H   0  0  0  0  0  0  0  0  0  0  0  0
   14.0103   -3.6645   -1.6598 H   0  0  0  0  0  0  0  0  0  0  0  0
   14.0939   -3.4372    3.7269 H   0  0  0  0  0  0  0  0  0  0  0  0
   13.4016   -5.0940    4.8470 H   0  0  0  0  0  0  0  0  0  0  0  0
   13.5619   -6.4541    7.3189 H   0  0  0  0  0  0  0  0  0  0  0  0
   12.5069   -8.3784   12.2170 H   0  0  0  0  0  0  0  0  0  0  0  0
   10.4101   -8.6570   13.5352 H   0  0  0  0  0  0  0  0  0  0  0  0
    8.0507   -7.7332   10.0874 H   0  0  0  0  0  0  0  0  0  0  0  0
  1  2  2  0  0  0  0
  2  3  1  0  0  0  0
  3  4  2  0  0  0  0
  3  5  1  0  0  0  0
  5  6  2  0  0  0  0
  6  7  1  0  0  0  0
  7  8  2  0  0  0  0
  8  9  1  0  0  0  0
  8 10  1  0  0  0  0
 10 11  2  0  0  0  0
 11 12  1  0  0  0  0
 12 13  2  0  0  0  0
 13 14  1  0  0  0  0
 14 15  3  0  0  0  0
 13 16  1  0  0  0  0
 16 17  3  0  0  0  0
  1 18  1  0  0  0  0
 18 19  2  0  0  0  0
 19 20  1  0  0  0  0
 20 21  1  0  0  0  0
 21 22  2  0  0  0  0
 22 23  1  0  0  0  0
 23 24  2  0  0  0  0
 24 25  1  0  0  0  0
 24 26  1  0  0  0  0
 26 27  2  0  0  0  0
 20 28  1  0  0  0  0
 28 29  2  0  0  0  0
 29 30  1  0  0  0  0
 30 31  2  0  0  0  0
 31 32  1  0  0  0  0
 31 33  1  0  0  0  0
 33 34  2  0  0  0  0
 19 35  1  0  0  0  0
 35 36  1  0  0  0  0
 36 37  1  0  0  0  0
 37 38  2  0  0  0  0
 38 39  1  0  0  0  0
 39 40  1  0  0  0  0
 40 41  2  0  0  0  0
 41 42  1  0  0  0  0
 42 43  2  0  0  0  0
 43 44  1  0  0  0  0
 43 45  1  0  0  0  0
 45 46  2  0  0  0  0
 39 47  1  0  0  0  0
 47 48  2  0  0  0  0
 48 49  1  0  0  0  0
 49 50  2  0  0  0  0
 50 51  1  0  0  0  0
 50 52  1  0  0  0  0
 52 53  2  0  0  0  0
 38 54  1  0  0  0  0
 54 55  1  0  0  0  0
 37 56  1  0  0  0  0
 56 57  2  0  0  0  0
 57 58  1  0  0  0  0
 58 59  2  0  0  0  0
 59 60  1  0  0  0  0
 60 61  2  0  0  0  0
 61 62  1  0  0  0  0
 62 63  1  0  0  0  0
 63 64  1  0  0  0  0
 62 65  2  0  0  0  0
 57 66  1  0  0  0  0
 66 67  1  0  0  0  0
 67 68  1  0  0  0  0
 68 69  1  0  0  0  0
 69 70  1  0  0  0  0
 70 71  1  0  0  0  0
 71 72  2  0  0  0  0
 72 73  1  0  0  0  0
 73 74  1  0  0  0  0
 71 75  1  0  0  0  0
 75 76  1  0  0  0  0
 76 77  1  0  0  0  0
 77 78  1  0  0  0  0
 78 79  1  0  0  0  0
 79 80  1  0  0  0  0
 80 81  2  0  0  0  0
 81 82  1  0  0  0  0
 82 83  2  0  0  0  0
 83 84  1  0  0  0  0
 84 85  1  0  0  0  0
 85 86  1  0  0  0  0
 84 87  2  0  0  0  0
 79 88  2  0  0  0  0
 88 89  1  0  0  0  0
 89 90  1  0  0  0  0
 90 91  1  0  0  0  0
 91 92  1  0  0  0  0
 92 93  1  0  0  0  0
 93 94  1  0  0  0  0
 94 95  1  0  0  0  0
 95 96  1  0  0  0  0
 96 97  1  0  0  0  0
 97 98  1  0  0  0  0
 95 99  1  0  0  0  0
 99100  1  0  0  0  0
 92101  1  0  0  0  0
101102  1  0  0  0  0
 88103  1  0  0  0  0
103104  2  0  0  0  0
104105  1  0  0  0  0
105106  2  0  0  0  0
106107  1  0  0  0  0
107108  2  0  0  0  0
108109  1  0  0  0  0
109110  1  0  0  0  0
109111  2  0  0  0  0
111112  1  0  0  0  0
112113  1  0  0  0  0
111114  1  0  0  0  0
106115  1  0  0  0  0
115116  2  0  0  0  0
116117  1  0  0  0  0
117118  1  0  0  0  0
118119  1  0  0  0  0
119120  1  0  0  0  0
120121  1  0  0  0  0
121122  1  0  0  0  0
120123  2  0  0  0  0
123124  1  0  0  0  0
123125  1  0  0  0  0
117126  2  0  0  0  0
126127  1  0  0  0  0
116128  1  0  0  0  0
128129  2  0  0  0  0
129130  1  0  0  0  0
129131  1  0  0  0  0
131132  2  0  0  0  0
132133  1  0  0  0  0
133134  2  0  0  0  0
133135  1  0  0  0  0
135136  2  0  0  0  0
136137  1  0  0  0  0
137138  2  0  0  0  0
138139  1  0  0  0  0
138140  1  0  0  0  0
140141  2  0  0  0  0
141142  1  0  0  0  0
142143  2  0  0  0  0
143144  1  0  0  0  0
144145  3  0  0  0  0
143146  1  0  0  0  0
146147  3  0  0  0  0
 12  2  1  0  0  0  0
 55 18  1  0  0  0  0
 98 56  1  0  0  0  0
127103  1  0  0  0  0
142132  1  0  0  0  0
 11  5  1  0  0  0  0
 27 21  1  0  0  0  0
 34 28  1  0  0  0  0
 54 35  2  0  0  0  0
 65 58  1  0  0  0  0
 97 66  2  0  0  0  0
126105  1  0  0  0  0
141135  1  0  0  0  0
 46 40  1  0  0  0  0
 53 47  1  0  0  0  0
 96 68  2  0  0  0  0
114107  1  0  0  0  0
130115  1  0  0  0  0
 94 69  2  0  0  0  0
124118  2  0  0  0  0
 74 70  2  0  0  0  0
 93 75  2  0  0  0  0
 91 76  2  0  0  0  0
 90 78  2  0  0  0  0
 87 80  1  0  0  0  0
  1148  1  0  0  0  0
  6149  1  0  0  0  0
  7150  1  0  0  0  0
 10151  1  0  0  0  0
 22152  1  0  0  0  0
 23153  1  0  0  0  0
 25154  1  0  0  0  0
 25155  1  0  0  0  0
 25156  1  0  0  0  0
 26157  1  0  0  0  0
 27158  1  0  0  0  0
 29159  1  0  0  0  0
 30160  1  0  0  0  0
 32161  1  0  0  0  0
 32162  1  0  0  0  0
 32163  1  0  0  0  0
 33164  1  0  0  0  0
 34165  1  0  0  0  0
 41166  1  0  0  0  0
 42167  1  0  0  0  0
 44168  1  0  0  0  0
 44169  1  0  0  0  0
 44170  1  0  0  0  0
 45171  1  0  0  0  0
 46172  1  0  0  0  0
 48173  1  0  0  0  0
 49174  1  0  0  0  0
 51175  1  0  0  0  0
 51176  1  0  0  0  0
 51177  1  0  0  0  0
 52178  1  0  0  0  0
 53179  1  0  0  0  0
 59180  1  0  0  0  0
 60181  1  0  0  0  0
 61182  1  0  0  0  0
 63183  1  0  0  0  0
 63184  1  0  0  0  0
 64185  1  0  0  0  0
 64186  1  0  0  0  0
 64187  1  0  0  0  0
 65188  1  0  0  0  0
 81189  1  0  0  0  0
 82190  1  0  0  0  0
 83191  1  0  0  0  0
 85192  1  0  0  0  0
 85193  1  0  0  0  0
 86194  1  0  0  0  0
 86195  1  0  0  0  0
 86196  1  0  0  0  0
 87197  1  0  0  0  0
 99198  1  0  0  0  0
 99199  1  0  0  0  0
100200  1  0  0  0  0
100201  1  0  0  0  0
100202  1  0  0  0  0
101203  1  0  0  0  0
101204  1  0  0  0  0
102205  1  0  0  0  0
102206  1  0  0  0  0
102207  1  0  0  0  0
104208  1  0  0  0  0
108209  1  0  0  0  0
112210  1  0  0  0  0
112211  1  0  0  0  0
113212  1  0  0  0  0
113213  1  0  0  0  0
113214  1  0  0  0  0
121215  1  0  0  0  0
121216  1  0  0  0  0
122217  1  0  0  0  0
122218  1  0  0  0  0
122219  1  0  0  0  0
124220  1  0  0  0  0
128221  1  0  0  0  0
131222  1  0  0  0  0
136223  1  0  0  0  0
137224  1  0  0  0  0
140225  1  0  0  0  0
M  END
