
  xtb     02052201153D
 energy: -266.378317818855 gnorm: 0.000458276150 xtb: 6.4.1 (unknown)
141156  0     0  0            999 V2000
  -10.0794    5.1764   -3.8162 C   0  0  0  0  0  0  0  0  0  0  0  0
  -10.8854    5.6193   -2.8279 C   0  0  0  0  0  0  0  0  0  0  0  0
  -10.4758    5.6896   -1.3888 C   0  0  0  0  0  0  0  0  0  0  0  0
   -9.3845    5.4556   -0.9252 O   0  0  0  0  0  0  0  0  0  0  0  0
  -11.7146    5.9826   -0.6496 C   0  0  0  0  0  0  0  0  0  0  0  0
  -11.8892    6.1209    0.7160 C   0  0  0  0  0  0  0  0  0  0  0  0
  -13.1606    6.3785    1.1995 C   0  0  0  0  0  0  0  0  0  0  0  0
  -14.2312    6.4832    0.3154 C   0  0  0  0  0  0  0  0  0  0  0  0
  -15.8048    6.7919    0.9382 Cl  0  0  0  0  0  0  0  0  0  0  0  0
  -14.0703    6.3437   -1.0596 C   0  0  0  0  0  0  0  0  0  0  0  0
  -12.7960    6.0941   -1.5429 C   0  0  0  0  0  0  0  0  0  0  0  0
  -12.3103    5.9115   -2.9075 C   0  0  0  0  0  0  0  0  0  0  0  0
  -13.0388    6.0676   -4.0518 C   0  0  0  0  0  0  0  0  0  0  0  0
  -14.4167    6.3788   -4.0809 C   0  0  0  0  0  0  0  0  0  0  0  0
  -15.5328    6.6270   -4.1712 N   0  0  0  0  0  0  0  0  0  0  0  0
  -12.5114    5.9666   -5.3591 C   0  0  0  0  0  0  0  0  0  0  0  0
  -12.1470    5.9153   -6.4456 N   0  0  0  0  0  0  0  0  0  0  0  0
   -8.6465    5.0050   -3.6662 C   0  0  0  0  0  0  0  0  0  0  0  0
   -8.0207    3.8292   -4.0884 C   0  0  0  0  0  0  0  0  0  0  0  0
   -8.7689    2.8583   -4.6296 F   0  0  0  0  0  0  0  0  0  0  0  0
   -6.6631    3.6296   -3.9204 C   0  0  0  0  0  0  0  0  0  0  0  0
   -6.1228    2.4711   -4.3288 F   0  0  0  0  0  0  0  0  0  0  0  0
   -5.8361    4.6158   -3.3656 C   0  0  0  0  0  0  0  0  0  0  0  0
   -6.4625    5.8088   -2.9733 C   0  0  0  0  0  0  0  0  0  0  0  0
   -5.7391    6.7785   -2.4012 F   0  0  0  0  0  0  0  0  0  0  0  0
   -7.8247    5.9964   -3.1177 C   0  0  0  0  0  0  0  0  0  0  0  0
   -8.3581    7.1713   -2.7696 F   0  0  0  0  0  0  0  0  0  0  0  0
   -4.4216    4.3958   -3.1658 C   0  0  0  0  0  0  0  0  0  0  0  0
   -3.3800    5.2864   -3.3485 C   0  0  0  0  0  0  0  0  0  0  0  0
   -3.4878    6.5905   -3.9993 C   0  0  0  0  0  0  0  0  0  0  0  0
   -4.3003    6.7640   -5.1180 C   0  0  0  0  0  0  0  0  0  0  0  0
   -4.3626    7.9966   -5.7379 C   0  0  0  0  0  0  0  0  0  0  0  0
   -3.6167    9.0595   -5.2577 C   0  0  0  0  0  0  0  0  0  0  0  0
   -2.7985    8.9030   -4.1465 C   0  0  0  0  0  0  0  0  0  0  0  0
   -1.9407   10.0291   -3.6480 C   0  0  0  0  0  0  0  0  0  0  0  0
   -0.5217    9.8989   -4.2057 C   0  0  0  0  0  0  0  0  0  0  0  0
   -2.7415    7.6642   -3.5268 C   0  0  0  0  0  0  0  0  0  0  0  0
   -2.1586    4.7271   -2.9191 C   0  0  0  0  0  0  0  0  0  0  0  0
   -0.5205    5.3346   -2.8875 S   0  0  0  0  0  0  0  0  0  0  0  0
    0.0000    3.8318   -2.2071 C   0  0  0  0  0  0  0  0  0  0  0  0
    1.1704    3.2362   -1.7087 C   0  0  0  0  0  0  0  0  0  0  0  0
    2.4649    3.7611   -1.5023 C   0  0  0  0  0  0  0  0  0  0  0  0
    3.4364    2.9605   -0.8133 C   0  0  0  0  0  0  0  0  0  0  0  0
    4.5808    3.6003   -0.6304 N   0  0  0  0  0  0  0  0  0  0  0  0
    4.4495    5.0801   -1.2742 S   0  0  0  0  0  0  0  0  0  0  0  0
    2.9265    4.9632   -1.8096 N   0  0  0  0  0  0  0  0  0  0  0  0
    3.1087    1.6282   -0.4795 C   0  0  0  0  0  0  0  0  0  0  0  0
    3.8844    0.5906    0.0600 C   0  0  0  0  0  0  0  0  0  0  0  0
    5.4791    0.3351    0.6818 S   0  0  0  0  0  0  0  0  0  0  0  0
    5.1002   -1.3596    0.8794 C   0  0  0  0  0  0  0  0  0  0  0  0
    5.8385   -2.4401    1.3914 C   0  0  0  0  0  0  0  0  0  0  0  0
    7.1824   -2.2862    1.9570 C   0  0  0  0  0  0  0  0  0  0  0  0
    7.4580   -2.7161    3.2530 C   0  0  0  0  0  0  0  0  0  0  0  0
    8.7254   -2.5492    3.7775 C   0  0  0  0  0  0  0  0  0  0  0  0
    9.7209   -1.9531    3.0216 C   0  0  0  0  0  0  0  0  0  0  0  0
    9.4565   -1.4995    1.7355 C   0  0  0  0  0  0  0  0  0  0  0  0
   10.5407   -0.8800    0.9023 C   0  0  0  0  0  0  0  0  0  0  0  0
   11.3057   -1.9580    0.1316 C   0  0  0  0  0  0  0  0  0  0  0  0
    8.1818   -1.6691    1.2142 C   0  0  0  0  0  0  0  0  0  0  0  0
    5.1044   -3.6164    1.3449 C   0  0  0  0  0  0  0  0  0  0  0  0
    3.4881   -3.3743    0.7034 S   0  0  0  0  0  0  0  0  0  0  0  0
    3.8014   -1.6907    0.4790 C   0  0  0  0  0  0  0  0  0  0  0  0
    3.1016   -0.5674    0.0220 C   0  0  0  0  0  0  0  0  0  0  0  0
    1.8667   -0.2793   -0.4946 N   0  0  0  0  0  0  0  0  0  0  0  0
    1.8345    1.0713   -0.7865 C   0  0  0  0  0  0  0  0  0  0  0  0
    0.8162    1.9250   -1.2846 C   0  0  0  0  0  0  0  0  0  0  0  0
   -0.5448    1.7471   -1.4877 N   0  0  0  0  0  0  0  0  0  0  0  0
   -1.0318    2.9073   -2.0329 C   0  0  0  0  0  0  0  0  0  0  0  0
   -2.2708    3.4216   -2.4352 C   0  0  0  0  0  0  0  0  0  0  0  0
   -3.8980    2.8568   -2.5076 S   0  0  0  0  0  0  0  0  0  0  0  0
   -1.4652    0.8855   -0.7761 C   0  0  0  0  0  0  0  0  0  0  0  0
   -1.5343    1.2648    0.7016 C   0  0  0  0  0  0  0  0  0  0  0  0
    1.0134   -1.3517   -0.9549 C   0  0  0  0  0  0  0  0  0  0  0  0
    0.2480   -2.0172    0.1875 C   0  0  0  0  0  0  0  0  0  0  0  0
    5.4987   -4.9361    1.6905 C   0  0  0  0  0  0  0  0  0  0  0  0
    6.7894   -5.3968    1.8826 C   0  0  0  0  0  0  0  0  0  0  0  0
    6.8347   -6.7429    2.2198 C   0  0  0  0  0  0  0  0  0  0  0  0
    8.2786   -7.6547    2.5745 S   0  0  0  0  0  0  0  0  0  0  0  0
    9.5821   -6.3739    2.6651 C   0  0  0  0  0  0  0  0  0  0  0  0
   10.1606   -6.0233    1.3074 C   0  0  0  0  0  0  0  0  0  0  0  0
    5.5617   -7.3549    2.2719 C   0  0  0  0  0  0  0  0  0  0  0  0
    4.3146   -6.1888    1.8848 S   0  0  0  0  0  0  0  0  0  0  0  0
    5.3805   -8.6919    2.6158 C   0  0  0  0  0  0  0  0  0  0  0  0
    4.2263   -9.4373    2.7185 C   0  0  0  0  0  0  0  0  0  0  0  0
    2.8736   -8.9537    2.4425 C   0  0  0  0  0  0  0  0  0  0  0  0
    2.5377   -7.8387    2.0772 O   0  0  0  0  0  0  0  0  0  0  0  0
    1.9721  -10.0928    2.6937 C   0  0  0  0  0  0  0  0  0  0  0  0
    0.5966  -10.1539    2.5845 C   0  0  0  0  0  0  0  0  0  0  0  0
   -0.0394  -11.3479    2.8861 C   0  0  0  0  0  0  0  0  0  0  0  0
    0.7116  -12.4459    3.2874 C   0  0  0  0  0  0  0  0  0  0  0  0
   -0.0960  -13.9215    3.6621 Cl  0  0  0  0  0  0  0  0  0  0  0  0
    2.0985  -12.3971    3.3994 C   0  0  0  0  0  0  0  0  0  0  0  0
    2.7317  -11.2041    3.0976 C   0  0  0  0  0  0  0  0  0  0  0  0
    4.1479  -10.8243    3.1170 C   0  0  0  0  0  0  0  0  0  0  0  0
    5.1804  -11.6602    3.4595 C   0  0  0  0  0  0  0  0  0  0  0  0
    6.5497  -11.3222    3.4887 C   0  0  0  0  0  0  0  0  0  0  0  0
    7.6835  -11.1450    3.5466 N   0  0  0  0  0  0  0  0  0  0  0  0
    5.0138  -13.0083    3.8400 C   0  0  0  0  0  0  0  0  0  0  0  0
    4.9554  -14.1102    4.1576 N   0  0  0  0  0  0  0  0  0  0  0  0
  -10.4888    4.8824   -4.7742 H   0  0  0  0  0  0  0  0  0  0  0  0
  -11.0434    6.0315    1.3798 H   0  0  0  0  0  0  0  0  0  0  0  0
  -13.3327    6.4973    2.2575 H   0  0  0  0  0  0  0  0  0  0  0  0
  -14.9252    6.4258   -1.7103 H   0  0  0  0  0  0  0  0  0  0  0  0
   -4.8629    5.9291   -5.5111 H   0  0  0  0  0  0  0  0  0  0  0  0
   -4.9924    8.1280   -6.6055 H   0  0  0  0  0  0  0  0  0  0  0  0
   -3.6705   10.0192   -5.7511 H   0  0  0  0  0  0  0  0  0  0  0  0
   -1.9011   10.0068   -2.5572 H   0  0  0  0  0  0  0  0  0  0  0  0
   -2.3658   10.9859   -3.9562 H   0  0  0  0  0  0  0  0  0  0  0  0
   -0.5386    9.9313   -5.2929 H   0  0  0  0  0  0  0  0  0  0  0  0
   -0.0791    8.9540   -3.8985 H   0  0  0  0  0  0  0  0  0  0  0  0
    0.1046   10.7108   -3.8438 H   0  0  0  0  0  0  0  0  0  0  0  0
   -2.1240    7.5373   -2.6502 H   0  0  0  0  0  0  0  0  0  0  0  0
    6.6763   -3.1741    3.8409 H   0  0  0  0  0  0  0  0  0  0  0  0
    8.9377   -2.8809    4.7835 H   0  0  0  0  0  0  0  0  0  0  0  0
   10.7097   -1.8282    3.4385 H   0  0  0  0  0  0  0  0  0  0  0  0
   11.2355   -0.3362    1.5450 H   0  0  0  0  0  0  0  0  0  0  0  0
   10.1030   -0.1730    0.1955 H   0  0  0  0  0  0  0  0  0  0  0  0
   12.0824   -1.5074   -0.4813 H   0  0  0  0  0  0  0  0  0  0  0  0
   10.6307   -2.5128   -0.5165 H   0  0  0  0  0  0  0  0  0  0  0  0
   11.7727   -2.6583    0.8211 H   0  0  0  0  0  0  0  0  0  0  0  0
    7.9624   -1.3263    0.2134 H   0  0  0  0  0  0  0  0  0  0  0  0
   -2.4455    1.0244   -1.2387 H   0  0  0  0  0  0  0  0  0  0  0  0
   -1.1935   -0.1599   -0.8867 H   0  0  0  0  0  0  0  0  0  0  0  0
   -1.8555    2.2982    0.8105 H   0  0  0  0  0  0  0  0  0  0  0  0
   -0.5578    1.1589    1.1702 H   0  0  0  0  0  0  0  0  0  0  0  0
   -2.2458    0.6251    1.2166 H   0  0  0  0  0  0  0  0  0  0  0  0
    1.6561   -2.1048   -1.4251 H   0  0  0  0  0  0  0  0  0  0  0  0
    0.3491   -0.9630   -1.7279 H   0  0  0  0  0  0  0  0  0  0  0  0
   -0.3103   -1.2917    0.7721 H   0  0  0  0  0  0  0  0  0  0  0  0
   -0.4408   -2.7554   -0.2138 H   0  0  0  0  0  0  0  0  0  0  0  0
    0.9409   -2.5260    0.8520 H   0  0  0  0  0  0  0  0  0  0  0  0
    7.6481   -4.7667    1.7586 H   0  0  0  0  0  0  0  0  0  0  0  0
    9.1675   -5.5065    3.1770 H   0  0  0  0  0  0  0  0  0  0  0  0
   10.3434   -6.8288    3.2989 H   0  0  0  0  0  0  0  0  0  0  0  0
    9.3971   -5.6329    0.6388 H   0  0  0  0  0  0  0  0  0  0  0  0
   10.9348   -5.2677    1.4252 H   0  0  0  0  0  0  0  0  0  0  0  0
   10.6001   -6.9046    0.8465 H   0  0  0  0  0  0  0  0  0  0  0  0
    6.3106   -9.2019    2.8398 H   0  0  0  0  0  0  0  0  0  0  0  0
    0.0389   -9.2851    2.2711 H   0  0  0  0  0  0  0  0  0  0  0  0
   -1.1120  -11.4339    2.8137 H   0  0  0  0  0  0  0  0  0  0  0  0
    2.6398  -13.2736    3.7143 H   0  0  0  0  0  0  0  0  0  0  0  0
  1  2  2  0  0  0  0
  2  3  1  0  0  0  0
  3  4  2  0  0  0  0
  3  5  1  0  0  0  0
  5  6  2  0  0  0  0
  6  7  1  0  0  0  0
  7  8  2  0  0  0  0
  8  9  1  0  0  0  0
  8 10  1  0  0  0  0
 10 11  2  0  0  0  0
 11 12  1  0  0  0  0
 12 13  2  0  0  0  0
 13 14  1  0  0  0  0
 14 15  3  0  0  0  0
 13 16  1  0  0  0  0
 16 17  3  0  0  0  0
  1 18  1  0  0  0  0
 18 19  2  0  0  0  0
 19 20  1  0  0  0  0
 19 21  1  0  0  0  0
 21 22  1  0  0  0  0
 21 23  2  0  0  0  0
 23 24  1  0  0  0  0
 24 25  1  0  0  0  0
 24 26  2  0  0  0  0
 26 27  1  0  0  0  0
 23 28  1  0  0  0  0
 28 29  2  0  0  0  0
 29 30  1  0  0  0  0
 30 31  2  0  0  0  0
 31 32  1  0  0  0  0
 32 33  2  0  0  0  0
 33 34  1  0  0  0  0
 34 35  1  0  0  0  0
 35 36  1  0  0  0  0
 34 37  2  0  0  0  0
 29 38  1  0  0  0  0
 38 39  1  0  0  0  0
 39 40  1  0  0  0  0
 40 41  1  0  0  0  0
 41 42  1  0  0  0  0
 42 43  1  0  0  0  0
 43 44  2  0  0  0  0
 44 45  1  0  0  0  0
 45 46  1  0  0  0  0
 43 47  1  0  0  0  0
 47 48  1  0  0  0  0
 48 49  1  0  0  0  0
 49 50  1  0  0  0  0
 50 51  1  0  0  0  0
 51 52  1  0  0  0  0
 52 53  2  0  0  0  0
 53 54  1  0  0  0  0
 54 55  2  0  0  0  0
 55 56  1  0  0  0  0
 56 57  1  0  0  0  0
 57 58  1  0  0  0  0
 56 59  2  0  0  0  0
 51 60  2  0  0  0  0
 60 61  1  0  0  0  0
 61 62  1  0  0  0  0
 62 63  1  0  0  0  0
 63 64  1  0  0  0  0
 64 65  1  0  0  0  0
 65 66  1  0  0  0  0
 66 67  1  0  0  0  0
 67 68  1  0  0  0  0
 68 69  1  0  0  0  0
 69 70  1  0  0  0  0
 67 71  1  0  0  0  0
 71 72  1  0  0  0  0
 64 73  1  0  0  0  0
 73 74  1  0  0  0  0
 60 75  1  0  0  0  0
 75 76  2  0  0  0  0
 76 77  1  0  0  0  0
 77 78  1  0  0  0  0
 78 79  1  0  0  0  0
 79 80  1  0  0  0  0
 77 81  2  0  0  0  0
 81 82  1  0  0  0  0
 81 83  1  0  0  0  0
 83 84  2  0  0  0  0
 84 85  1  0  0  0  0
 85 86  2  0  0  0  0
 85 87  1  0  0  0  0
 87 88  2  0  0  0  0
 88 89  1  0  0  0  0
 89 90  2  0  0  0  0
 90 91  1  0  0  0  0
 90 92  1  0  0  0  0
 92 93  2  0  0  0  0
 93 94  1  0  0  0  0
 94 95  2  0  0  0  0
 95 96  1  0  0  0  0
 96 97  3  0  0  0  0
 95 98  1  0  0  0  0
 98 99  3  0  0  0  0
 12  2  1  0  0  0  0
 26 18  1  0  0  0  0
 70 28  1  0  0  0  0
 82 75  1  0  0  0  0
 94 84  1  0  0  0  0
 11  5  1  0  0  0  0
 37 30  1  0  0  0  0
 69 38  2  0  0  0  0
 93 87  1  0  0  0  0
 68 40  2  0  0  0  0
 66 41  2  0  0  0  0
 46 42  2  0  0  0  0
 65 47  2  0  0  0  0
 63 48  2  0  0  0  0
 62 50  2  0  0  0  0
 59 52  1  0  0  0  0
  1100  1  0  0  0  0
  6101  1  0  0  0  0
  7102  1  0  0  0  0
 10103  1  0  0  0  0
 31104  1  0  0  0  0
 32105  1  0  0  0  0
 33106  1  0  0  0  0
 35107  1  0  0  0  0
 35108  1  0  0  0  0
 36109  1  0  0  0  0
 36110  1  0  0  0  0
 36111  1  0  0  0  0
 37112  1  0  0  0  0
 53113  1  0  0  0  0
 54114  1  0  0  0  0
 55115  1  0  0  0  0
 57116  1  0  0  0  0
 57117  1  0  0  0  0
 58118  1  0  0  0  0
 58119  1  0  0  0  0
 58120  1  0  0  0  0
 59121  1  0  0  0  0
 71122  1  0  0  0  0
 71123  1  0  0  0  0
 72124  1  0  0  0  0
 72125  1  0  0  0  0
 72126  1  0  0  0  0
 73127  1  0  0  0  0
 73128  1  0  0  0  0
 74129  1  0  0  0  0
 74130  1  0  0  0  0
 74131  1  0  0  0  0
 76132  1  0  0  0  0
 79133  1  0  0  0  0
 79134  1  0  0  0  0
 80135  1  0  0  0  0
 80136  1  0  0  0  0
 80137  1  0  0  0  0
 83138  1  0  0  0  0
 88139  1  0  0  0  0
 89140  1  0  0  0  0
 92141  1  0  0  0  0
M  END
