141

C        -10.07940        5.17640       -3.81620
C        -10.88540        5.61930       -2.82790
C        -10.47580        5.68960       -1.38880
O         -9.38450        5.45560       -0.92520
C        -11.71460        5.98260       -0.64960
C        -11.88920        6.12090        0.71600
C        -13.16060        6.37850        1.19950
C        -14.23120        6.48320        0.31540
Cl       -15.80480        6.79190        0.93820
C        -14.07030        6.34370       -1.05960
C        -12.79600        6.09410       -1.54290
C        -12.31030        5.91150       -2.90750
C        -13.03880        6.06760       -4.05180
C        -14.41670        6.37880       -4.08090
N        -15.53280        6.62700       -4.17120
C        -12.51140        5.96660       -5.35910
N        -12.14700        5.91530       -6.44560
C         -8.64650        5.00500       -3.66620
C         -8.02070        3.82920       -4.08840
F         -8.76890        2.85830       -4.62960
C         -6.66310        3.62960       -3.92040
F         -6.12280        2.47110       -4.32880
C         -5.83610        4.61580       -3.36560
C         -6.46250        5.80880       -2.97330
F         -5.73910        6.77850       -2.40120
C         -7.82470        5.99640       -3.11770
F         -8.35810        7.17130       -2.76960
C         -4.42160        4.39580       -3.16580
C         -3.38000        5.28640       -3.34850
C         -3.48780        6.59050       -3.99930
C         -4.30030        6.76400       -5.11800
C         -4.36260        7.99660       -5.73790
C         -3.61670        9.05950       -5.25770
C         -2.79850        8.90300       -4.14650
C         -1.94070       10.02910       -3.64800
C         -0.52170        9.89890       -4.20570
C         -2.74150        7.66420       -3.52680
C         -2.15860        4.72710       -2.91910
S         -0.52050        5.33460       -2.88750
C          0.00000        3.83180       -2.20710
C          1.17040        3.23620       -1.70870
C          2.46490        3.76110       -1.50230
C          3.43640        2.96050       -0.81330
N          4.58080        3.60030       -0.63040
S          4.44950        5.08010       -1.27420
N          2.92650        4.96320       -1.80960
C          3.10870        1.62820       -0.47950
C          3.88440        0.59060        0.06000
S          5.47910        0.33510        0.68180
C          5.10020       -1.35960        0.87940
C          5.83850       -2.44010        1.39140
C          7.18240       -2.28620        1.95700
C          7.45800       -2.71610        3.25300
C          8.72540       -2.54920        3.77750
C          9.72090       -1.95310        3.02160
C          9.45650       -1.49950        1.73550
C         10.54070       -0.88000        0.90230
C         11.30570       -1.95800        0.13160
C          8.18180       -1.66910        1.21420
C          5.10440       -3.61640        1.34490
S          3.48810       -3.37430        0.70340
C          3.80140       -1.69070        0.47900
C          3.10160       -0.56740        0.02200
N          1.86670       -0.27930       -0.49460
C          1.83450        1.07130       -0.78650
C          0.81620        1.92500       -1.28460
N         -0.54480        1.74710       -1.48770
C         -1.03180        2.90730       -2.03290
C         -2.27080        3.42160       -2.43520
S         -3.89800        2.85680       -2.50760
C         -1.46520        0.88550       -0.77610
C         -1.53430        1.26480        0.70160
C          1.01340       -1.35170       -0.95490
C          0.24800       -2.01720        0.18750
C          5.49870       -4.93610        1.69050
C          6.78940       -5.39680        1.88260
C          6.83470       -6.74290        2.21980
S          8.27860       -7.65470        2.57450
C          9.58210       -6.37390        2.66510
C         10.16060       -6.02330        1.30740
C          5.56170       -7.35490        2.27190
S          4.31460       -6.18880        1.88480
C          5.38050       -8.69190        2.61580
C          4.22630       -9.43730        2.71850
C          2.87360       -8.95370        2.44250
O          2.53770       -7.83870        2.07720
C          1.97210      -10.09280        2.69370
C          0.59660      -10.15390        2.58450
C         -0.03940      -11.34790        2.88610
C          0.71160      -12.44590        3.28740
Cl        -0.09600      -13.92150        3.66210
C          2.09850      -12.39710        3.39940
C          2.73170      -11.20410        3.09760
C          4.14790      -10.82430        3.11700
C          5.18040      -11.66020        3.45950
C          6.54970      -11.32220        3.48870
N          7.68350      -11.14500        3.54660
C          5.01380      -13.00830        3.84000
N          4.95540      -14.11020        4.15760
H        -10.48880        4.88240       -4.77420
H        -11.04340        6.03150        1.37980
H        -13.33270        6.49730        2.25750
H        -14.92520        6.42580       -1.71030
H         -4.86290        5.92910       -5.51110
H         -4.99240        8.12800       -6.60550
H         -3.67050       10.01920       -5.75110
H         -1.90110       10.00680       -2.55720
H         -2.36580       10.98590       -3.95620
H         -0.53860        9.93130       -5.29290
H         -0.07910        8.95400       -3.89850
H          0.10460       10.71080       -3.84380
H         -2.12400        7.53730       -2.65020
H          6.67630       -3.17410        3.84090
H          8.93770       -2.88090        4.78350
H         10.70970       -1.82820        3.43850
H         11.23550       -0.33620        1.54500
H         10.10300       -0.17300        0.19550
H         12.08240       -1.50740       -0.48130
H         10.63070       -2.51280       -0.51650
H         11.77270       -2.65830        0.82110
H          7.96240       -1.32630        0.21340
H         -2.44550        1.02440       -1.23870
H         -1.19350       -0.15990       -0.88670
H         -1.85550        2.29820        0.81050
H         -0.55780        1.15890        1.17020
H         -2.24580        0.62510        1.21660
H          1.65610       -2.10480       -1.42510
H          0.34910       -0.96300       -1.72790
H         -0.31030       -1.29170        0.77210
H         -0.44080       -2.75540       -0.21380
H          0.94090       -2.52600        0.85200
H          7.64810       -4.76670        1.75860
H          9.16750       -5.50650        3.17700
H         10.34340       -6.82880        3.29890
H          9.39710       -5.63290        0.63880
H         10.93480       -5.26770        1.42520
H         10.60010       -6.90460        0.84650
H          6.31060       -9.20190        2.83980
H          0.03890       -9.28510        2.27110
H         -1.11200      -11.43390        2.81370
H          2.63980      -13.27360        3.71430
