143

C         -3.15370       10.53820        3.28560
C         -3.43360       10.59750        4.60950
C         -2.67920        9.83420        5.64550
O         -1.78830        9.03170        5.46870
C         -3.15330       10.35840        6.93650
C         -2.75450       10.00170        8.21230
C         -3.33160       10.64660        9.29310
C         -4.28490       11.63830        9.08070
Cl        -4.98420       12.43260       10.43730
C         -4.69060       12.01180        7.80300
C         -4.11770       11.36050        6.72320
C         -4.33800       11.51080        5.28730
C         -5.29050       12.28840        4.69190
C         -6.17730       13.13440        5.39360
N         -6.91960       13.84000        5.91030
C         -5.54320       12.31630        3.30190
N         -5.82030       12.36440        2.18970
C         -2.37420        9.47560        2.70530
C         -1.37610        9.70730        1.76190
C         -1.12000       11.03590        1.34690
N         -0.92410       12.12090        1.03580
C         -0.53980        8.67600        1.26750
C          0.38950        9.02790        0.26370
N          1.07460        9.32650       -0.60560
C         -0.66890        7.35000        1.69640
C         -1.77830        7.07210        2.53590
C         -2.61140        8.12260        3.04990
N         -3.59240        7.64960        3.81380
S         -3.45780        6.05260        3.90400
N         -2.16420        5.87470        2.96830
C          0.23760        6.30740        1.32630
C          1.61370        6.38360        1.15130
C          2.42320        7.54380        1.51680
C          3.48440        7.95210        0.71350
C          4.21300        9.07200        1.06260
C          3.90040        9.78350        2.20810
C          2.86850        9.36960        3.04170
C          2.52850       10.12470        4.29620
C          1.12660       10.73390        4.23440
C          2.14210        8.24340        2.68780
C          2.13260        5.15330        0.71250
S          3.75050        4.61810        0.32420
C          3.12270        3.03910       -0.00360
C          3.57910        1.76740       -0.37780
C          4.88860        1.28100       -0.58590
C          5.07600       -0.11690       -0.83890
N          6.35350       -0.44260       -0.96050
S          7.24320        0.89720       -0.77920
N          6.03370        1.94340       -0.53400
C          3.93990       -0.94640       -0.96380
C          3.82760       -2.30780       -1.27840
S          4.84190       -3.67490       -1.59220
C          3.41190       -4.65360       -1.82420
C          3.21820       -6.00920       -2.13620
C          4.28130       -6.95690       -2.46400
C          5.44580       -7.01220       -1.70420
C          6.41220       -7.95440       -1.99990
C          6.22980       -8.84360       -3.04540
C          5.08860       -8.78110       -3.83560
C          4.85490       -9.75710       -4.95380
C          3.82020      -10.80900       -4.54760
C          4.12990       -7.82360       -3.54290
C          1.86560       -6.31990       -2.19680
S          0.83490       -4.92960       -1.91940
C          2.22030       -3.93290       -1.67340
C          2.46040       -2.59170       -1.36270
N          1.72560       -1.46800       -1.09980
C          2.61350       -0.43720       -0.83440
C          2.43670        0.91590       -0.44370
N          1.32240        1.66050       -0.09170
C          1.73950        2.93470        0.17860
C          1.16990        4.14360        0.59100
S         -0.40150        4.70250        1.03670
C          0.01220        1.23660        0.34910
C          0.10140        0.31840        1.56550
C          0.33620       -1.42480       -1.50380
C          0.13550       -0.53000       -2.72380
C          1.28570       -7.61940       -2.36910
C          0.13070       -7.86160       -3.12100
C         -0.50550       -6.81030       -3.82210
N         -1.01260       -5.97160       -4.41680
C         -0.40490       -9.16190       -3.29120
C         -1.48680       -9.30700       -4.19430
N         -2.32120       -9.43150       -4.96930
C          0.17240      -10.29180       -2.71180
C          1.34950      -10.07470       -1.95480
C          1.88060       -8.75590       -1.75850
N          2.93440       -8.76510       -0.94570
S          3.25150      -10.27430       -0.51250
N          2.05220      -10.99890       -1.30260
C         -0.32100      -11.62600       -2.90500
C         -1.62780      -11.98640       -2.90400
C         -2.72660      -11.17070       -2.32010
O         -2.67260      -10.02850       -1.93000
C         -3.86340      -12.10450       -2.18190
C         -5.09850      -11.86290       -1.60310
Cl        -5.53410      -10.30930       -1.05670
C         -5.99130      -12.93710       -1.47490
Cl        -7.53940      -12.68110       -0.80090
C         -5.60230      -14.22020       -1.85930
Cl        -6.67100      -15.52870       -1.60410
C         -4.34530      -14.45990       -2.43910
Cl        -3.87790      -16.08210       -2.73420
C         -3.49830      -13.38110       -2.66150
C         -2.17830      -13.28160       -3.27240
C         -1.61690      -14.08650       -4.22410
C         -2.22810      -15.16990       -4.89310
N         -2.65030      -16.00650       -5.55440
C         -0.34990      -13.81950       -4.79610
N          0.66930      -13.66210       -5.29840
H         -3.49420       11.31580        2.61340
H         -2.01050        9.23270        8.35120
H         -3.04870       10.38980       10.30160
H         -5.42580       12.78980        7.67950
H          3.70880        7.41390       -0.19390
H          5.02570        9.39840        0.43190
H          4.46890       10.66590        2.46350
H          2.58340        9.44870        5.15370
H          3.25960       10.92090        4.44670
H          1.01170       11.33550        3.33440
H          0.95720       11.37200        5.09910
H          0.36370        9.95800        4.23730
H          1.35480        7.89320        3.34170
H          5.57520       -6.33840       -0.87170
H          7.31150       -8.00330       -1.40410
H          6.98390       -9.58770       -3.25730
H          5.79100      -10.25350       -5.21390
H          4.49370       -9.22520       -5.83680
H          2.86430      -10.33900       -4.32300
H          3.66450      -11.52370       -5.35130
H          4.15220      -11.35050       -3.66370
H          3.24980       -7.74740       -4.16740
H         -0.53730        0.77220       -0.46930
H         -0.53040        2.14410        0.62440
H         -0.89450        0.00480        1.86650
H          0.56290        0.84780        2.39580
H          0.69990       -0.56410        1.35190
H         -0.29880       -1.12370       -0.67070
H          0.05610       -2.44850       -1.76320
H          0.70000       -0.92100       -3.56700
H         -0.91610       -0.50740       -2.99550
H          0.47360        0.48570       -2.53150
H          0.44780      -12.38300       -2.99770
