
  xtb     02082217463D
 energy: -288.343889255197 gnorm: 0.000382624184 xtb: 6.4.1 (unknown)
143160  0     0  0            999 V2000
   -3.1537   10.5382    3.2856 C   0  0  0  0  0  0  0  0  0  0  0  0
   -3.4336   10.5975    4.6095 C   0  0  0  0  0  0  0  0  0  0  0  0
   -2.6792    9.8342    5.6455 C   0  0  0  0  0  0  0  0  0  0  0  0
   -1.7883    9.0317    5.4687 O   0  0  0  0  0  0  0  0  0  0  0  0
   -3.1533   10.3584    6.9365 C   0  0  0  0  0  0  0  0  0  0  0  0
   -2.7545   10.0017    8.2123 C   0  0  0  0  0  0  0  0  0  0  0  0
   -3.3316   10.6466    9.2931 C   0  0  0  0  0  0  0  0  0  0  0  0
   -4.2849   11.6383    9.0807 C   0  0  0  0  0  0  0  0  0  0  0  0
   -4.9842   12.4326   10.4373 Cl  0  0  0  0  0  0  0  0  0  0  0  0
   -4.6906   12.0118    7.8030 C   0  0  0  0  0  0  0  0  0  0  0  0
   -4.1177   11.3605    6.7232 C   0  0  0  0  0  0  0  0  0  0  0  0
   -4.3380   11.5108    5.2873 C   0  0  0  0  0  0  0  0  0  0  0  0
   -5.2905   12.2884    4.6919 C   0  0  0  0  0  0  0  0  0  0  0  0
   -6.1773   13.1344    5.3936 C   0  0  0  0  0  0  0  0  0  0  0  0
   -6.9196   13.8400    5.9103 N   0  0  0  0  0  0  0  0  0  0  0  0
   -5.5432   12.3163    3.3019 C   0  0  0  0  0  0  0  0  0  0  0  0
   -5.8203   12.3644    2.1897 N   0  0  0  0  0  0  0  0  0  0  0  0
   -2.3742    9.4756    2.7053 C   0  0  0  0  0  0  0  0  0  0  0  0
   -1.3761    9.7073    1.7619 C   0  0  0  0  0  0  0  0  0  0  0  0
   -1.1200   11.0359    1.3469 C   0  0  0  0  0  0  0  0  0  0  0  0
   -0.9241   12.1209    1.0358 N   0  0  0  0  0  0  0  0  0  0  0  0
   -0.5398    8.6760    1.2675 C   0  0  0  0  0  0  0  0  0  0  0  0
    0.3895    9.0279    0.2637 C   0  0  0  0  0  0  0  0  0  0  0  0
    1.0746    9.3265   -0.6056 N   0  0  0  0  0  0  0  0  0  0  0  0
   -0.6689    7.3500    1.6964 C   0  0  0  0  0  0  0  0  0  0  0  0
   -1.7783    7.0721    2.5359 C   0  0  0  0  0  0  0  0  0  0  0  0
   -2.6114    8.1226    3.0499 C   0  0  0  0  0  0  0  0  0  0  0  0
   -3.5924    7.6496    3.8138 N   0  0  0  0  0  0  0  0  0  0  0  0
   -3.4578    6.0526    3.9040 S   0  0  0  0  0  0  0  0  0  0  0  0
   -2.1642    5.8747    2.9683 N   0  0  0  0  0  0  0  0  0  0  0  0
    0.2376    6.3074    1.3263 C   0  0  0  0  0  0  0  0  0  0  0  0
    1.6137    6.3836    1.1513 C   0  0  0  0  0  0  0  0  0  0  0  0
    2.4232    7.5438    1.5168 C   0  0  0  0  0  0  0  0  0  0  0  0
    3.4844    7.9521    0.7135 C   0  0  0  0  0  0  0  0  0  0  0  0
    4.2130    9.0720    1.0626 C   0  0  0  0  0  0  0  0  0  0  0  0
    3.9004    9.7835    2.2081 C   0  0  0  0  0  0  0  0  0  0  0  0
    2.8685    9.3696    3.0417 C   0  0  0  0  0  0  0  0  0  0  0  0
    2.5285   10.1247    4.2962 C   0  0  0  0  0  0  0  0  0  0  0  0
    1.1266   10.7339    4.2344 C   0  0  0  0  0  0  0  0  0  0  0  0
    2.1421    8.2434    2.6878 C   0  0  0  0  0  0  0  0  0  0  0  0
    2.1326    5.1533    0.7125 C   0  0  0  0  0  0  0  0  0  0  0  0
    3.7505    4.6181    0.3242 S   0  0  0  0  0  0  0  0  0  0  0  0
    3.1227    3.0391   -0.0036 C   0  0  0  0  0  0  0  0  0  0  0  0
    3.5791    1.7674   -0.3778 C   0  0  0  0  0  0  0  0  0  0  0  0
    4.8886    1.2810   -0.5859 C   0  0  0  0  0  0  0  0  0  0  0  0
    5.0760   -0.1169   -0.8389 C   0  0  0  0  0  0  0  0  0  0  0  0
    6.3535   -0.4426   -0.9605 N   0  0  0  0  0  0  0  0  0  0  0  0
    7.2432    0.8972   -0.7792 S   0  0  0  0  0  0  0  0  0  0  0  0
    6.0337    1.9434   -0.5340 N   0  0  0  0  0  0  0  0  0  0  0  0
    3.9399   -0.9464   -0.9638 C   0  0  0  0  0  0  0  0  0  0  0  0
    3.8276   -2.3078   -1.2784 C   0  0  0  0  0  0  0  0  0  0  0  0
    4.8419   -3.6749   -1.5922 S   0  0  0  0  0  0  0  0  0  0  0  0
    3.4119   -4.6536   -1.8242 C   0  0  0  0  0  0  0  0  0  0  0  0
    3.2182   -6.0092   -2.1362 C   0  0  0  0  0  0  0  0  0  0  0  0
    4.2813   -6.9569   -2.4640 C   0  0  0  0  0  0  0  0  0  0  0  0
    5.4458   -7.0122   -1.7042 C   0  0  0  0  0  0  0  0  0  0  0  0
    6.4122   -7.9544   -1.9999 C   0  0  0  0  0  0  0  0  0  0  0  0
    6.2298   -8.8436   -3.0454 C   0  0  0  0  0  0  0  0  0  0  0  0
    5.0886   -8.7811   -3.8356 C   0  0  0  0  0  0  0  0  0  0  0  0
    4.8549   -9.7571   -4.9538 C   0  0  0  0  0  0  0  0  0  0  0  0
    3.8202  -10.8090   -4.5476 C   0  0  0  0  0  0  0  0  0  0  0  0
    4.1299   -7.8236   -3.5429 C   0  0  0  0  0  0  0  0  0  0  0  0
    1.8656   -6.3199   -2.1968 C   0  0  0  0  0  0  0  0  0  0  0  0
    0.8349   -4.9296   -1.9194 S   0  0  0  0  0  0  0  0  0  0  0  0
    2.2203   -3.9329   -1.6734 C   0  0  0  0  0  0  0  0  0  0  0  0
    2.4604   -2.5917   -1.3627 C   0  0  0  0  0  0  0  0  0  0  0  0
    1.7256   -1.4680   -1.0998 N   0  0  0  0  0  0  0  0  0  0  0  0
    2.6135   -0.4372   -0.8344 C   0  0  0  0  0  0  0  0  0  0  0  0
    2.4367    0.9159   -0.4437 C   0  0  0  0  0  0  0  0  0  0  0  0
    1.3224    1.6605   -0.0917 N   0  0  0  0  0  0  0  0  0  0  0  0
    1.7395    2.9347    0.1786 C   0  0  0  0  0  0  0  0  0  0  0  0
    1.1699    4.1436    0.5910 C   0  0  0  0  0  0  0  0  0  0  0  0
   -0.4015    4.7025    1.0367 S   0  0  0  0  0  0  0  0  0  0  0  0
    0.0122    1.2366    0.3491 C   0  0  0  0  0  0  0  0  0  0  0  0
    0.1014    0.3184    1.5655 C   0  0  0  0  0  0  0  0  0  0  0  0
    0.3362   -1.4248   -1.5038 C   0  0  0  0  0  0  0  0  0  0  0  0
    0.1355   -0.5300   -2.7238 C   0  0  0  0  0  0  0  0  0  0  0  0
    1.2857   -7.6194   -2.3691 C   0  0  0  0  0  0  0  0  0  0  0  0
    0.1307   -7.8616   -3.1210 C   0  0  0  0  0  0  0  0  0  0  0  0
   -0.5055   -6.8103   -3.8221 C   0  0  0  0  0  0  0  0  0  0  0  0
   -1.0126   -5.9716   -4.4168 N   0  0  0  0  0  0  0  0  0  0  0  0
   -0.4049   -9.1619   -3.2912 C   0  0  0  0  0  0  0  0  0  0  0  0
   -1.4868   -9.3070   -4.1943 C   0  0  0  0  0  0  0  0  0  0  0  0
   -2.3212   -9.4315   -4.9693 N   0  0  0  0  0  0  0  0  0  0  0  0
    0.1724  -10.2918   -2.7118 C   0  0  0  0  0  0  0  0  0  0  0  0
    1.3495  -10.0747   -1.9548 C   0  0  0  0  0  0  0  0  0  0  0  0
    1.8806   -8.7559   -1.7585 C   0  0  0  0  0  0  0  0  0  0  0  0
    2.9344   -8.7651   -0.9457 N   0  0  0  0  0  0  0  0  0  0  0  0
    3.2515  -10.2743   -0.5125 S   0  0  0  0  0  0  0  0  0  0  0  0
    2.0522  -10.9989   -1.3026 N   0  0  0  0  0  0  0  0  0  0  0  0
   -0.3210  -11.6260   -2.9050 C   0  0  0  0  0  0  0  0  0  0  0  0
   -1.6278  -11.9864   -2.9040 C   0  0  0  0  0  0  0  0  0  0  0  0
   -2.7266  -11.1707   -2.3201 C   0  0  0  0  0  0  0  0  0  0  0  0
   -2.6726  -10.0285   -1.9300 O   0  0  0  0  0  0  0  0  0  0  0  0
   -3.8634  -12.1045   -2.1819 C   0  0  0  0  0  0  0  0  0  0  0  0
   -5.0985  -11.8629   -1.6031 C   0  0  0  0  0  0  0  0  0  0  0  0
   -5.5341  -10.3093   -1.0567 Cl  0  0  0  0  0  0  0  0  0  0  0  0
   -5.9913  -12.9371   -1.4749 C   0  0  0  0  0  0  0  0  0  0  0  0
   -7.5394  -12.6811   -0.8009 Cl  0  0  0  0  0  0  0  0  0  0  0  0
   -5.6023  -14.2202   -1.8593 C   0  0  0  0  0  0  0  0  0  0  0  0
   -6.6710  -15.5287   -1.6041 Cl  0  0  0  0  0  0  0  0  0  0  0  0
   -4.3453  -14.4599   -2.4391 C   0  0  0  0  0  0  0  0  0  0  0  0
   -3.8779  -16.0821   -2.7342 Cl  0  0  0  0  0  0  0  0  0  0  0  0
   -3.4983  -13.3811   -2.6615 C   0  0  0  0  0  0  0  0  0  0  0  0
   -2.1783  -13.2816   -3.2724 C   0  0  0  0  0  0  0  0  0  0  0  0
   -1.6169  -14.0865   -4.2241 C   0  0  0  0  0  0  0  0  0  0  0  0
   -2.2281  -15.1699   -4.8931 C   0  0  0  0  0  0  0  0  0  0  0  0
   -2.6503  -16.0065   -5.5544 N   0  0  0  0  0  0  0  0  0  0  0  0
   -0.3499  -13.8195   -4.7961 C   0  0  0  0  0  0  0  0  0  0  0  0
    0.6693  -13.6621   -5.2984 N   0  0  0  0  0  0  0  0  0  0  0  0
   -3.4942   11.3158    2.6134 H   0  0  0  0  0  0  0  0  0  0  0  0
   -2.0105    9.2327    8.3512 H   0  0  0  0  0  0  0  0  0  0  0  0
   -3.0487   10.3898   10.3016 H   0  0  0  0  0  0  0  0  0  0  0  0
   -5.4258   12.7898    7.6795 H   0  0  0  0  0  0  0  0  0  0  0  0
    3.7088    7.4139   -0.1939 H   0  0  0  0  0  0  0  0  0  0  0  0
    5.0257    9.3984    0.4319 H   0  0  0  0  0  0  0  0  0  0  0  0
    4.4689   10.6659    2.4635 H   0  0  0  0  0  0  0  0  0  0  0  0
    2.5834    9.4487    5.1537 H   0  0  0  0  0  0  0  0  0  0  0  0
    3.2596   10.9209    4.4467 H   0  0  0  0  0  0  0  0  0  0  0  0
    1.0117   11.3355    3.3344 H   0  0  0  0  0  0  0  0  0  0  0  0
    0.9572   11.3720    5.0991 H   0  0  0  0  0  0  0  0  0  0  0  0
    0.3637    9.9580    4.2373 H   0  0  0  0  0  0  0  0  0  0  0  0
    1.3548    7.8932    3.3417 H   0  0  0  0  0  0  0  0  0  0  0  0
    5.5752   -6.3384   -0.8717 H   0  0  0  0  0  0  0  0  0  0  0  0
    7.3115   -8.0033   -1.4041 H   0  0  0  0  0  0  0  0  0  0  0  0
    6.9839   -9.5877   -3.2573 H   0  0  0  0  0  0  0  0  0  0  0  0
    5.7910  -10.2535   -5.2139 H   0  0  0  0  0  0  0  0  0  0  0  0
    4.4937   -9.2252   -5.8368 H   0  0  0  0  0  0  0  0  0  0  0  0
    2.8643  -10.3390   -4.3230 H   0  0  0  0  0  0  0  0  0  0  0  0
    3.6645  -11.5237   -5.3513 H   0  0  0  0  0  0  0  0  0  0  0  0
    4.1522  -11.3505   -3.6637 H   0  0  0  0  0  0  0  0  0  0  0  0
    3.2498   -7.7474   -4.1674 H   0  0  0  0  0  0  0  0  0  0  0  0
   -0.5373    0.7722   -0.4693 H   0  0  0  0  0  0  0  0  0  0  0  0
   -0.5304    2.1441    0.6244 H   0  0  0  0  0  0  0  0  0  0  0  0
   -0.8945    0.0048    1.8665 H   0  0  0  0  0  0  0  0  0  0  0  0
    0.5629    0.8478    2.3958 H   0  0  0  0  0  0  0  0  0  0  0  0
    0.6999   -0.5641    1.3519 H   0  0  0  0  0  0  0  0  0  0  0  0
   -0.2988   -1.1237   -0.6707 H   0  0  0  0  0  0  0  0  0  0  0  0
    0.0561   -2.4485   -1.7632 H   0  0  0  0  0  0  0  0  0  0  0  0
    0.7000   -0.9210   -3.5670 H   0  0  0  0  0  0  0  0  0  0  0  0
   -0.9161   -0.5074   -2.9955 H   0  0  0  0  0  0  0  0  0  0  0  0
    0.4736    0.4857   -2.5315 H   0  0  0  0  0  0  0  0  0  0  0  0
    0.4478  -12.3830   -2.9977 H   0  0  0  0  0  0  0  0  0  0  0  0
  1  2  2  0  0  0  0
  2  3  1  0  0  0  0
  3  4  2  0  0  0  0
  3  5  1  0  0  0  0
  5  6  2  0  0  0  0
  6  7  1  0  0  0  0
  7  8  2  0  0  0  0
  8  9  1  0  0  0  0
  8 10  1  0  0  0  0
 10 11  2  0  0  0  0
 11 12  1  0  0  0  0
 12 13  2  0  0  0  0
 13 14  1  0  0  0  0
 14 15  3  0  0  0  0
 13 16  1  0  0  0  0
 16 17  3  0  0  0  0
  1 18  1  0  0  0  0
 18 19  2  0  0  0  0
 19 20  1  0  0  0  0
 20 21  3  0  0  0  0
 19 22  1  0  0  0  0
 22 23  1  0  0  0  0
 23 24  3  0  0  0  0
 22 25  2  0  0  0  0
 25 26  1  0  0  0  0
 26 27  1  0  0  0  0
 27 28  2  0  0  0  0
 28 29  1  0  0  0  0
 29 30  1  0  0  0  0
 25 31  1  0  0  0  0
 31 32  2  0  0  0  0
 32 33  1  0  0  0  0
 33 34  2  0  0  0  0
 34 35  1  0  0  0  0
 35 36  2  0  0  0  0
 36 37  1  0  0  0  0
 37 38  1  0  0  0  0
 38 39  1  0  0  0  0
 37 40  2  0  0  0  0
 32 41  1  0  0  0  0
 41 42  1  0  0  0  0
 42 43  1  0  0  0  0
 43 44  1  0  0  0  0
 44 45  1  0  0  0  0
 45 46  1  0  0  0  0
 46 47  2  0  0  0  0
 47 48  1  0  0  0  0
 48 49  1  0  0  0  0
 46 50  1  0  0  0  0
 50 51  1  0  0  0  0
 51 52  1  0  0  0  0
 52 53  1  0  0  0  0
 53 54  1  0  0  0  0
 54 55  1  0  0  0  0
 55 56  2  0  0  0  0
 56 57  1  0  0  0  0
 57 58  2  0  0  0  0
 58 59  1  0  0  0  0
 59 60  1  0  0  0  0
 60 61  1  0  0  0  0
 59 62  2  0  0  0  0
 54 63  2  0  0  0  0
 63 64  1  0  0  0  0
 64 65  1  0  0  0  0
 65 66  1  0  0  0  0
 66 67  1  0  0  0  0
 67 68  1  0  0  0  0
 68 69  1  0  0  0  0
 69 70  1  0  0  0  0
 70 71  1  0  0  0  0
 71 72  1  0  0  0  0
 72 73  1  0  0  0  0
 70 74  1  0  0  0  0
 74 75  1  0  0  0  0
 67 76  1  0  0  0  0
 76 77  1  0  0  0  0
 63 78  1  0  0  0  0
 78 79  2  0  0  0  0
 79 80  1  0  0  0  0
 80 81  3  0  0  0  0
 79 82  1  0  0  0  0
 82 83  1  0  0  0  0
 83 84  3  0  0  0  0
 82 85  2  0  0  0  0
 85 86  1  0  0  0  0
 86 87  1  0  0  0  0
 87 88  2  0  0  0  0
 88 89  1  0  0  0  0
 89 90  1  0  0  0  0
 85 91  1  0  0  0  0
 91 92  2  0  0  0  0
 92 93  1  0  0  0  0
 93 94  2  0  0  0  0
 93 95  1  0  0  0  0
 95 96  2  0  0  0  0
 96 97  1  0  0  0  0
 96 98  1  0  0  0  0
 98 99  1  0  0  0  0
 98100  2  0  0  0  0
100101  1  0  0  0  0
100102  1  0  0  0  0
102103  1  0  0  0  0
102104  2  0  0  0  0
104105  1  0  0  0  0
105106  2  0  0  0  0
106107  1  0  0  0  0
107108  3  0  0  0  0
106109  1  0  0  0  0
109110  3  0  0  0  0
 12  2  1  0  0  0  0
 27 18  1  0  0  0  0
 73 31  1  0  0  0  0
 87 78  1  0  0  0  0
105 92  1  0  0  0  0
 11  5  1  0  0  0  0
 30 26  2  0  0  0  0
 40 33  1  0  0  0  0
 72 41  2  0  0  0  0
 90 86  2  0  0  0  0
104 95  1  0  0  0  0
 71 43  2  0  0  0  0
 69 44  2  0  0  0  0
 49 45  2  0  0  0  0
 68 50  2  0  0  0  0
 66 51  2  0  0  0  0
 65 53  2  0  0  0  0
 62 55  1  0  0  0  0
  1111  1  0  0  0  0
  6112  1  0  0  0  0
  7113  1  0  0  0  0
 10114  1  0  0  0  0
 34115  1  0  0  0  0
 35116  1  0  0  0  0
 36117  1  0  0  0  0
 38118  1  0  0  0  0
 38119  1  0  0  0  0
 39120  1  0  0  0  0
 39121  1  0  0  0  0
 39122  1  0  0  0  0
 40123  1  0  0  0  0
 56124  1  0  0  0  0
 57125  1  0  0  0  0
 58126  1  0  0  0  0
 60127  1  0  0  0  0
 60128  1  0  0  0  0
 61129  1  0  0  0  0
 61130  1  0  0  0  0
 61131  1  0  0  0  0
 62132  1  0  0  0  0
 74133  1  0  0  0  0
 74134  1  0  0  0  0
 75135  1  0  0  0  0
 75136  1  0  0  0  0
 75137  1  0  0  0  0
 76138  1  0  0  0  0
 76139  1  0  0  0  0
 77140  1  0  0  0  0
 77141  1  0  0  0  0
 77142  1  0  0  0  0
 91143  1  0  0  0  0
M  END
