
  xtb     02042218063D
 energy: -277.676713353335 gnorm: 0.000333862696 xtb: 6.4.1 (unknown)
160176  0     0  0            999 V2000
    4.8688    9.5712    1.3554 C   0  0  0  0  0  0  0  0  0  0  0  0
    3.8036    9.8465    2.1809 C   0  0  0  0  0  0  0  0  0  0  0  0
    2.6147    9.0060    2.3401 C   0  0  0  0  0  0  0  0  0  0  0  0
    2.3779    7.9400    1.7965 O   0  0  0  0  0  0  0  0  0  0  0  0
    1.7450    9.7057    3.3027 C   0  0  0  0  0  0  0  0  0  0  0  0
    0.5055    9.3338    3.7857 C   0  0  0  0  0  0  0  0  0  0  0  0
   -0.1274   10.1657    4.6961 C   0  0  0  0  0  0  0  0  0  0  0  0
    0.4900   11.3435    5.0990 C   0  0  0  0  0  0  0  0  0  0  0  0
   -0.3119   12.3661    6.2304 Cl  0  0  0  0  0  0  0  0  0  0  0  0
    1.7391   11.7291    4.6193 C   0  0  0  0  0  0  0  0  0  0  0  0
    2.3700   10.8965    3.7117 C   0  0  0  0  0  0  0  0  0  0  0  0
    3.6634   11.0079    3.0313 C   0  0  0  0  0  0  0  0  0  0  0  0
    4.5569   12.0352    3.2019 C   0  0  0  0  0  0  0  0  0  0  0  0
    4.3482   13.1340    4.0615 C   0  0  0  0  0  0  0  0  0  0  0  0
    4.2497   14.0551    4.7399 N   0  0  0  0  0  0  0  0  0  0  0  0
    5.8078   12.1535    2.5625 C   0  0  0  0  0  0  0  0  0  0  0  0
    6.8399   12.3243    2.0867 N   0  0  0  0  0  0  0  0  0  0  0  0
    5.0895    8.4847    0.5024 C   0  0  0  0  0  0  0  0  0  0  0  0
    6.2504    8.3678   -0.2640 C   0  0  0  0  0  0  0  0  0  0  0  0
    6.3113    7.2261   -1.0489 C   0  0  0  0  0  0  0  0  0  0  0  0
    7.6780    6.7259   -2.0312 S   0  0  0  0  0  0  0  0  0  0  0  0
    9.0602    7.7068   -1.3396 C   0  0  0  0  0  0  0  0  0  0  0  0
    9.4244    7.2969    0.0737 C   0  0  0  0  0  0  0  0  0  0  0  0
    5.1555    6.4436   -0.9198 C   0  0  0  0  0  0  0  0  0  0  0  0
    4.0350    7.1237    0.2183 S   0  0  0  0  0  0  0  0  0  0  0  0
    4.8203    5.2114   -1.5404 C   0  0  0  0  0  0  0  0  0  0  0  0
    5.0869    4.7342   -2.8160 C   0  0  0  0  0  0  0  0  0  0  0  0
    5.6699    5.5217   -3.8980 C   0  0  0  0  0  0  0  0  0  0  0  0
    6.5588    4.9419   -4.7996 C   0  0  0  0  0  0  0  0  0  0  0  0
    7.0971    5.7027   -5.8186 C   0  0  0  0  0  0  0  0  0  0  0  0
    6.7601    7.0391   -5.9493 C   0  0  0  0  0  0  0  0  0  0  0  0
    5.8596    7.6286   -5.0718 C   0  0  0  0  0  0  0  0  0  0  0  0
    5.5250    9.0898   -5.1612 C   0  0  0  0  0  0  0  0  0  0  0  0
    6.3238    9.8745   -4.1184 C   0  0  0  0  0  0  0  0  0  0  0  0
    5.3126    6.8575   -4.0588 C   0  0  0  0  0  0  0  0  0  0  0  0
    4.5835    3.4298   -2.9855 C   0  0  0  0  0  0  0  0  0  0  0  0
    4.5731    2.3346   -4.3486 S   0  0  0  0  0  0  0  0  0  0  0  0
    3.6409    1.2151   -3.4140 C   0  0  0  0  0  0  0  0  0  0  0  0
    3.0026   -0.0254   -3.5637 C   0  0  0  0  0  0  0  0  0  0  0  0
    2.8500   -0.8541   -4.6964 C   0  0  0  0  0  0  0  0  0  0  0  0
    1.9862   -1.9955   -4.6073 C   0  0  0  0  0  0  0  0  0  0  0  0
    1.8890   -2.6476   -5.7553 N   0  0  0  0  0  0  0  0  0  0  0  0
    2.8097   -1.8925   -6.8527 S   0  0  0  0  0  0  0  0  0  0  0  0
    3.3663   -0.7027   -5.9060 N   0  0  0  0  0  0  0  0  0  0  0  0
    1.3982   -2.3107   -3.3634 C   0  0  0  0  0  0  0  0  0  0  0  0
    0.5703   -3.3775   -2.9796 C   0  0  0  0  0  0  0  0  0  0  0  0
   -0.2514   -4.7266   -3.6892 S   0  0  0  0  0  0  0  0  0  0  0  0
   -0.8781   -5.1412   -2.1109 C   0  0  0  0  0  0  0  0  0  0  0  0
   -1.7718   -6.1384   -1.6699 C   0  0  0  0  0  0  0  0  0  0  0  0
   -2.4714   -7.0661   -2.5635 C   0  0  0  0  0  0  0  0  0  0  0  0
   -3.8483   -7.2452   -2.4595 C   0  0  0  0  0  0  0  0  0  0  0  0
   -4.4890   -8.1287   -3.3067 C   0  0  0  0  0  0  0  0  0  0  0  0
   -3.7716   -8.8331   -4.2589 C   0  0  0  0  0  0  0  0  0  0  0  0
   -2.4020   -8.6453   -4.3916 C   0  0  0  0  0  0  0  0  0  0  0  0
   -1.6105   -9.4322   -5.3961 C   0  0  0  0  0  0  0  0  0  0  0  0
   -1.1010  -10.7310   -4.7680 C   0  0  0  0  0  0  0  0  0  0  0  0
   -1.7633   -7.7556   -3.5417 C   0  0  0  0  0  0  0  0  0  0  0  0
   -1.9758   -6.0558   -0.3051 C   0  0  0  0  0  0  0  0  0  0  0  0
   -1.1265   -4.7133    0.4315 S   0  0  0  0  0  0  0  0  0  0  0  0
   -0.4472   -4.2819   -1.0989 C   0  0  0  0  0  0  0  0  0  0  0  0
    0.3727   -3.2627   -1.6027 C   0  0  0  0  0  0  0  0  0  0  0  0
    1.0189   -2.1557   -1.1234 N   0  0  0  0  0  0  0  0  0  0  0  0
    1.6442   -1.5348   -2.1948 C   0  0  0  0  0  0  0  0  0  0  0  0
    2.3688   -0.3200   -2.3223 C   0  0  0  0  0  0  0  0  0  0  0  0
    2.6096    0.7321   -1.4533 N   0  0  0  0  0  0  0  0  0  0  0  0
    3.3643    1.6601   -2.1192 C   0  0  0  0  0  0  0  0  0  0  0  0
    3.9010    2.9290   -1.8732 C   0  0  0  0  0  0  0  0  0  0  0  0
    3.8928    4.0680   -0.5758 S   0  0  0  0  0  0  0  0  0  0  0  0
    1.9271    1.1140   -0.2377 C   0  0  0  0  0  0  0  0  0  0  0  0
    0.4308    1.3074   -0.4707 C   0  0  0  0  0  0  0  0  0  0  0  0
    1.2667   -2.0412    0.2964 C   0  0  0  0  0  0  0  0  0  0  0  0
    2.7436   -2.2440    0.6254 C   0  0  0  0  0  0  0  0  0  0  0  0
   -2.8497   -6.8638    0.5023 C   0  0  0  0  0  0  0  0  0  0  0  0
   -3.6037   -6.2403    1.5186 C   0  0  0  0  0  0  0  0  0  0  0  0
   -3.5221   -5.0025    2.0196 N   0  0  0  0  0  0  0  0  0  0  0  0
   -4.4515   -4.9654    2.9328 N   0  0  0  0  0  0  0  0  0  0  0  0
   -4.6920   -3.7911    3.7213 C   0  0  0  0  0  0  0  0  0  0  0  0
   -3.4555   -3.4388    4.5393 C   0  0  0  0  0  0  0  0  0  0  0  0
   -5.1618   -6.0527    3.0879 N   0  0  0  0  0  0  0  0  0  0  0  0
   -4.6596   -6.9103    2.1883 C   0  0  0  0  0  0  0  0  0  0  0  0
   -5.0284   -8.2282    1.8355 C   0  0  0  0  0  0  0  0  0  0  0  0
   -4.1914   -8.8829    0.9105 C   0  0  0  0  0  0  0  0  0  0  0  0
   -3.0756   -8.2275    0.3139 C   0  0  0  0  0  0  0  0  0  0  0  0
   -2.2341   -9.0157   -0.4308 O   0  0  0  0  0  0  0  0  0  0  0  0
   -0.8446   -8.8032   -0.3018 C   0  0  0  0  0  0  0  0  0  0  0  0
   -4.5546  -10.1498    0.6297 O   0  0  0  0  0  0  0  0  0  0  0  0
   -4.1557  -10.8071   -0.5567 C   0  0  0  0  0  0  0  0  0  0  0  0
   -6.1398   -8.9092    2.4160 C   0  0  0  0  0  0  0  0  0  0  0  0
   -7.2587   -8.3809    2.9802 C   0  0  0  0  0  0  0  0  0  0  0  0
   -8.0852   -9.2070    3.9015 C   0  0  0  0  0  0  0  0  0  0  0  0
   -8.0324  -10.4062    4.0550 O   0  0  0  0  0  0  0  0  0  0  0  0
   -8.9404   -8.2384    4.6217 C   0  0  0  0  0  0  0  0  0  0  0  0
   -9.8169   -8.4626    5.6637 C   0  0  0  0  0  0  0  0  0  0  0  0
  -10.5110   -7.3844    6.2068 C   0  0  0  0  0  0  0  0  0  0  0  0
  -11.4696   -7.5765    7.3394 C   0  0  0  0  0  0  0  0  0  0  0  0
  -10.2984   -6.1092    5.6845 C   0  0  0  0  0  0  0  0  0  0  0  0
   -9.4273   -5.8766    4.6320 C   0  0  0  0  0  0  0  0  0  0  0  0
   -8.7395   -6.9516    4.0906 C   0  0  0  0  0  0  0  0  0  0  0  0
   -7.8043   -7.0434    2.9755 C   0  0  0  0  0  0  0  0  0  0  0  0
   -7.6429   -6.1030    1.9904 C   0  0  0  0  0  0  0  0  0  0  0  0
   -6.9750   -6.3509    0.7756 C   0  0  0  0  0  0  0  0  0  0  0  0
   -6.4851   -6.5076   -0.2515 N   0  0  0  0  0  0  0  0  0  0  0  0
   -8.1481   -4.7920    2.0618 C   0  0  0  0  0  0  0  0  0  0  0  0
   -8.4815   -3.6928    2.0935 N   0  0  0  0  0  0  0  0  0  0  0  0
    5.6746   10.2947    1.3404 H   0  0  0  0  0  0  0  0  0  0  0  0
    0.0486    8.4141    3.4550 H   0  0  0  0  0  0  0  0  0  0  0  0
   -1.0956    9.9084    5.0955 H   0  0  0  0  0  0  0  0  0  0  0  0
    2.1799   12.6516    4.9586 H   0  0  0  0  0  0  0  0  0  0  0  0
    7.0177    9.1197   -0.2196 H   0  0  0  0  0  0  0  0  0  0  0  0
    8.8060    8.7629   -1.4150 H   0  0  0  0  0  0  0  0  0  0  0  0
    9.8789    7.4975   -2.0281 H   0  0  0  0  0  0  0  0  0  0  0  0
   10.2750    7.8814    0.4182 H   0  0  0  0  0  0  0  0  0  0  0  0
    9.6901    6.2428    0.1027 H   0  0  0  0  0  0  0  0  0  0  0  0
    8.5930    7.4611    0.7558 H   0  0  0  0  0  0  0  0  0  0  0  0
    6.8423    3.9074   -4.6836 H   0  0  0  0  0  0  0  0  0  0  0  0
    7.7917    5.2528   -6.5125 H   0  0  0  0  0  0  0  0  0  0  0  0
    7.1963    7.6294   -6.7423 H   0  0  0  0  0  0  0  0  0  0  0  0
    4.4579    9.2382   -4.9819 H   0  0  0  0  0  0  0  0  0  0  0  0
    5.7606    9.4670   -6.1578 H   0  0  0  0  0  0  0  0  0  0  0  0
    7.3905    9.7300   -4.2760 H   0  0  0  0  0  0  0  0  0  0  0  0
    6.1018   10.9370   -4.1859 H   0  0  0  0  0  0  0  0  0  0  0  0
    6.0757    9.5311   -3.1162 H   0  0  0  0  0  0  0  0  0  0  0  0
    4.5914    7.2986   -3.3852 H   0  0  0  0  0  0  0  0  0  0  0  0
   -4.4183   -6.6924   -1.7284 H   0  0  0  0  0  0  0  0  0  0  0  0
   -5.5572   -8.2633   -3.2212 H   0  0  0  0  0  0  0  0  0  0  0  0
   -4.2802   -9.5275   -4.9126 H   0  0  0  0  0  0  0  0  0  0  0  0
   -0.7609   -8.8409   -5.7430 H   0  0  0  0  0  0  0  0  0  0  0  0
   -2.2367   -9.6700   -6.2580 H   0  0  0  0  0  0  0  0  0  0  0  0
   -0.4612  -10.5127   -3.9157 H   0  0  0  0  0  0  0  0  0  0  0  0
   -0.5307  -11.3075   -5.4927 H   0  0  0  0  0  0  0  0  0  0  0  0
   -1.9360  -11.3361   -4.4210 H   0  0  0  0  0  0  0  0  0  0  0  0
   -0.6966   -7.6045   -3.6347 H   0  0  0  0  0  0  0  0  0  0  0  0
    2.3661    2.0633    0.0793 H   0  0  0  0  0  0  0  0  0  0  0  0
    2.1221    0.3915    0.5550 H   0  0  0  0  0  0  0  0  0  0  0  0
   -0.0286    0.4019   -0.8599 H   0  0  0  0  0  0  0  0  0  0  0  0
    0.2692    2.1059   -1.1910 H   0  0  0  0  0  0  0  0  0  0  0  0
   -0.0575    1.5791    0.4612 H   0  0  0  0  0  0  0  0  0  0  0  0
    0.6797   -2.8290    0.7751 H   0  0  0  0  0  0  0  0  0  0  0  0
    0.8967   -1.0899    0.6801 H   0  0  0  0  0  0  0  0  0  0  0  0
    3.0595   -3.2369    0.3139 H   0  0  0  0  0  0  0  0  0  0  0  0
    3.3662   -1.5149    0.1123 H   0  0  0  0  0  0  0  0  0  0  0  0
    2.9013   -2.1504    1.6966 H   0  0  0  0  0  0  0  0  0  0  0  0
   -5.5482   -4.0123    4.3605 H   0  0  0  0  0  0  0  0  0  0  0  0
   -4.9450   -2.9680    3.0467 H   0  0  0  0  0  0  0  0  0  0  0  0
   -2.6069   -3.2957    3.8752 H   0  0  0  0  0  0  0  0  0  0  0  0
   -3.2226   -4.2374    5.2397 H   0  0  0  0  0  0  0  0  0  0  0  0
   -3.6293   -2.5234    5.0972 H   0  0  0  0  0  0  0  0  0  0  0  0
   -0.3798   -9.7826   -0.4233 H   0  0  0  0  0  0  0  0  0  0  0  0
   -0.5905   -8.3986    0.6814 H   0  0  0  0  0  0  0  0  0  0  0  0
   -0.4648   -8.1310   -1.0747 H   0  0  0  0  0  0  0  0  0  0  0  0
   -3.1608  -11.2457   -0.4591 H   0  0  0  0  0  0  0  0  0  0  0  0
   -4.8898  -11.6014   -0.6969 H   0  0  0  0  0  0  0  0  0  0  0  0
   -4.1700  -10.1330   -1.4146 H   0  0  0  0  0  0  0  0  0  0  0  0
   -6.0564   -9.9894    2.4653 H   0  0  0  0  0  0  0  0  0  0  0  0
   -9.9561   -9.4642    6.0422 H   0  0  0  0  0  0  0  0  0  0  0  0
  -11.1088   -7.0604    8.2288 H   0  0  0  0  0  0  0  0  0  0  0  0
  -11.5890   -8.6304    7.5750 H   0  0  0  0  0  0  0  0  0  0  0  0
  -12.4437   -7.1597    7.0882 H   0  0  0  0  0  0  0  0  0  0  0  0
  -10.8346   -5.2755    6.1148 H   0  0  0  0  0  0  0  0  0  0  0  0
   -9.2892   -4.8751    4.2568 H   0  0  0  0  0  0  0  0  0  0  0  0
  1  2  2  0  0  0  0
  2  3  1  0  0  0  0
  3  4  2  0  0  0  0
  3  5  1  0  0  0  0
  5  6  2  0  0  0  0
  6  7  1  0  0  0  0
  7  8  2  0  0  0  0
  8  9  1  0  0  0  0
  8 10  1  0  0  0  0
 10 11  2  0  0  0  0
 11 12  1  0  0  0  0
 12 13  2  0  0  0  0
 13 14  1  0  0  0  0
 14 15  3  0  0  0  0
 13 16  1  0  0  0  0
 16 17  3  0  0  0  0
  1 18  1  0  0  0  0
 18 19  2  0  0  0  0
 19 20  1  0  0  0  0
 20 21  1  0  0  0  0
 21 22  1  0  0  0  0
 22 23  1  0  0  0  0
 20 24  2  0  0  0  0
 24 25  1  0  0  0  0
 24 26  1  0  0  0  0
 26 27  2  0  0  0  0
 27 28  1  0  0  0  0
 28 29  2  0  0  0  0
 29 30  1  0  0  0  0
 30 31  2  0  0  0  0
 31 32  1  0  0  0  0
 32 33  1  0  0  0  0
 33 34  1  0  0  0  0
 32 35  2  0  0  0  0
 27 36  1  0  0  0  0
 36 37  1  0  0  0  0
 37 38  1  0  0  0  0
 38 39  1  0  0  0  0
 39 40  1  0  0  0  0
 40 41  1  0  0  0  0
 41 42  2  0  0  0  0
 42 43  1  0  0  0  0
 43 44  1  0  0  0  0
 41 45  1  0  0  0  0
 45 46  1  0  0  0  0
 46 47  1  0  0  0  0
 47 48  1  0  0  0  0
 48 49  1  0  0  0  0
 49 50  1  0  0  0  0
 50 51  2  0  0  0  0
 51 52  1  0  0  0  0
 52 53  2  0  0  0  0
 53 54  1  0  0  0  0
 54 55  1  0  0  0  0
 55 56  1  0  0  0  0
 54 57  2  0  0  0  0
 49 58  2  0  0  0  0
 58 59  1  0  0  0  0
 59 60  1  0  0  0  0
 60 61  1  0  0  0  0
 61 62  1  0  0  0  0
 62 63  1  0  0  0  0
 63 64  1  0  0  0  0
 64 65  1  0  0  0  0
 65 66  1  0  0  0  0
 66 67  1  0  0  0  0
 67 68  1  0  0  0  0
 65 69  1  0  0  0  0
 69 70  1  0  0  0  0
 62 71  1  0  0  0  0
 71 72  1  0  0  0  0
 58 73  1  0  0  0  0
 73 74  1  0  0  0  0
 74 75  2  0  0  0  0
 75 76  1  0  0  0  0
 76 77  1  0  0  0  0
 77 78  1  0  0  0  0
 76 79  1  0  0  0  0
 79 80  2  0  0  0  0
 80 81  1  0  0  0  0
 81 82  2  0  0  0  0
 82 83  1  0  0  0  0
 83 84  1  0  0  0  0
 84 85  1  0  0  0  0
 82 86  1  0  0  0  0
 86 87  1  0  0  0  0
 81 88  1  0  0  0  0
 88 89  2  0  0  0  0
 89 90  1  0  0  0  0
 90 91  2  0  0  0  0
 90 92  1  0  0  0  0
 92 93  2  0  0  0  0
 93 94  1  0  0  0  0
 94 95  1  0  0  0  0
 94 96  2  0  0  0  0
 96 97  1  0  0  0  0
 97 98  2  0  0  0  0
 98 99  1  0  0  0  0
 99100  2  0  0  0  0
100101  1  0  0  0  0
101102  3  0  0  0  0
100103  1  0  0  0  0
103104  3  0  0  0  0
 12  2  1  0  0  0  0
 25 18  1  0  0  0  0
 68 26  1  0  0  0  0
 83 73  2  0  0  0  0
 99 89  1  0  0  0  0
 11  5  1  0  0  0  0
 35 28  1  0  0  0  0
 67 36  2  0  0  0  0
 80 74  1  0  0  0  0
 98 92  1  0  0  0  0
 66 38  2  0  0  0  0
 64 39  2  0  0  0  0
 44 40  2  0  0  0  0
 63 45  2  0  0  0  0
 61 46  2  0  0  0  0
 60 48  2  0  0  0  0
 57 50  1  0  0  0  0
  1105  1  0  0  0  0
  6106  1  0  0  0  0
  7107  1  0  0  0  0
 10108  1  0  0  0  0
 19109  1  0  0  0  0
 22110  1  0  0  0  0
 22111  1  0  0  0  0
 23112  1  0  0  0  0
 23113  1  0  0  0  0
 23114  1  0  0  0  0
 29115  1  0  0  0  0
 30116  1  0  0  0  0
 31117  1  0  0  0  0
 33118  1  0  0  0  0
 33119  1  0  0  0  0
 34120  1  0  0  0  0
 34121  1  0  0  0  0
 34122  1  0  0  0  0
 35123  1  0  0  0  0
 51124  1  0  0  0  0
 52125  1  0  0  0  0
 53126  1  0  0  0  0
 55127  1  0  0  0  0
 55128  1  0  0  0  0
 56129  1  0  0  0  0
 56130  1  0  0  0  0
 56131  1  0  0  0  0
 57132  1  0  0  0  0
 69133  1  0  0  0  0
 69134  1  0  0  0  0
 70135  1  0  0  0  0
 70136  1  0  0  0  0
 70137  1  0  0  0  0
 71138  1  0  0  0  0
 71139  1  0  0  0  0
 72140  1  0  0  0  0
 72141  1  0  0  0  0
 72142  1  0  0  0  0
 77143  1  0  0  0  0
 77144  1  0  0  0  0
 78145  1  0  0  0  0
 78146  1  0  0  0  0
 78147  1  0  0  0  0
 85148  1  0  0  0  0
 85149  1  0  0  0  0
 85150  1  0  0  0  0
 87151  1  0  0  0  0
 87152  1  0  0  0  0
 87153  1  0  0  0  0
 88154  1  0  0  0  0
 93155  1  0  0  0  0
 95156  1  0  0  0  0
 95157  1  0  0  0  0
 95158  1  0  0  0  0
 96159  1  0  0  0  0
 97160  1  0  0  0  0
M  END
