
  xtb     02052215263D
 energy: -236.857042465339 gnorm: 0.000925092653 xtb: 6.4.1 (unknown)
131145  0     0  0            999 V2000
   -6.2082    4.8419    7.5675 C   0  0  0  0  0  0  0  0  0  0  0  0
   -6.6025    6.1499    7.6915 C   0  0  0  0  0  0  0  0  0  0  0  0
   -6.2605    7.3018    6.8272 C   0  0  0  0  0  0  0  0  0  0  0  0
   -5.6457    7.3142    5.7800 O   0  0  0  0  0  0  0  0  0  0  0  0
   -6.8500    8.4835    7.4852 C   0  0  0  0  0  0  0  0  0  0  0  0
   -6.7767    9.8085    7.0992 C   0  0  0  0  0  0  0  0  0  0  0  0
   -7.4023   10.7629    7.8844 C   0  0  0  0  0  0  0  0  0  0  0  0
   -8.0847   10.3723    9.0311 C   0  0  0  0  0  0  0  0  0  0  0  0
   -8.8525   11.5728    9.9994 Cl  0  0  0  0  0  0  0  0  0  0  0  0
   -8.1695    9.0409    9.4271 C   0  0  0  0  0  0  0  0  0  0  0  0
   -7.5435    8.0887    8.6402 C   0  0  0  0  0  0  0  0  0  0  0  0
   -7.4429    6.6344    8.7734 C   0  0  0  0  0  0  0  0  0  0  0  0
   -8.0697    5.8981    9.7453 C   0  0  0  0  0  0  0  0  0  0  0  0
   -8.8802    6.4518   10.7602 C   0  0  0  0  0  0  0  0  0  0  0  0
   -9.5506    6.8245   11.6145 N   0  0  0  0  0  0  0  0  0  0  0  0
   -8.0419    4.4944    9.8898 C   0  0  0  0  0  0  0  0  0  0  0  0
   -8.0892    3.3639   10.0889 N   0  0  0  0  0  0  0  0  0  0  0  0
   -5.3754    4.2019    6.6351 C   0  0  0  0  0  0  0  0  0  0  0  0
   -4.6422    4.6352    5.5437 C   0  0  0  0  0  0  0  0  0  0  0  0
   -3.9419    3.6220    4.9042 C   0  0  0  0  0  0  0  0  0  0  0  0
   -2.9557    3.9482    3.4716 S   0  0  0  0  0  0  0  0  0  0  0  0
   -4.2236    3.6768    2.1722 C   0  0  0  0  0  0  0  0  0  0  0  0
   -5.3081    4.7331    2.1919 C   0  0  0  0  0  0  0  0  0  0  0  0
   -4.0841    2.3578    5.4880 C   0  0  0  0  0  0  0  0  0  0  0  0
   -5.1522    2.4710    6.8495 S   0  0  0  0  0  0  0  0  0  0  0  0
   -3.4871    1.1403    5.0843 C   0  0  0  0  0  0  0  0  0  0  0  0
   -3.5729   -0.1231    5.6611 C   0  0  0  0  0  0  0  0  0  0  0  0
   -4.3626   -0.5253    6.8627 C   0  0  0  0  0  0  0  0  0  0  0  0
   -5.8058   -0.8614    6.4846 C   0  0  0  0  0  0  0  0  0  0  0  0
   -2.8251   -1.0677    4.9487 C   0  0  0  0  0  0  0  0  0  0  0  0
   -2.5329   -2.9223    5.2165 Se  0  0  0  0  0  2  0  0  0  0  0  0
   -1.4648   -2.7958    3.6986 C   0  0  0  0  0  0  0  0  0  0  0  0
   -0.6164   -3.6068    2.9365 C   0  0  0  0  0  0  0  0  0  0  0  0
   -0.2112   -4.9412    3.1472 C   0  0  0  0  0  0  0  0  0  0  0  0
    0.7946   -5.4946    2.2948 C   0  0  0  0  0  0  0  0  0  0  0  0
    1.1274   -6.7302    2.6329 N   0  0  0  0  0  0  0  0  0  0  0  0
    0.2409   -7.1601    3.9212 S   0  0  0  0  0  0  0  0  0  0  0  0
   -0.5979   -5.7829    4.0927 N   0  0  0  0  0  0  0  0  0  0  0  0
    1.2592   -4.7249    1.2081 C   0  0  0  0  0  0  0  0  0  0  0  0
    2.1357   -5.0736    0.1732 C   0  0  0  0  0  0  0  0  0  0  0  0
    3.1779   -6.5221   -0.3489 Se  0  0  0  0  0  2  0  0  0  0  0  0
    3.5807   -5.4633   -1.8677 C   0  0  0  0  0  0  0  0  0  0  0  0
    4.3670   -5.7060   -3.0044 C   0  0  0  0  0  0  0  0  0  0  0  0
    5.1525   -6.9688   -3.1597 C   0  0  0  0  0  0  0  0  0  0  0  0
    6.6521   -6.7184   -3.0024 C   0  0  0  0  0  0  0  0  0  0  0  0
    4.3521   -4.6212   -3.8656 C   0  0  0  0  0  0  0  0  0  0  0  0
    3.3593   -3.3016   -3.2558 S   0  0  0  0  0  0  0  0  0  0  0  0
    2.9548   -4.2120   -1.8475 C   0  0  0  0  0  0  0  0  0  0  0  0
    2.1563   -3.9956   -0.7164 C   0  0  0  0  0  0  0  0  0  0  0  0
    1.3506   -2.9863   -0.2524 N   0  0  0  0  0  0  0  0  0  0  0  0
    0.7857   -3.4100    0.9415 C   0  0  0  0  0  0  0  0  0  0  0  0
   -0.0827   -2.8017    1.8893 C   0  0  0  0  0  0  0  0  0  0  0  0
   -0.5691   -1.5192    2.0546 N   0  0  0  0  0  0  0  0  0  0  0  0
   -1.4076   -1.5146    3.1378 C   0  0  0  0  0  0  0  0  0  0  0  0
   -2.1584   -0.5574    3.8311 C   0  0  0  0  0  0  0  0  0  0  0  0
   -2.4497    1.1360    3.6562 S   0  0  0  0  0  0  0  0  0  0  0  0
   -0.1360   -0.2643    1.4844 C   0  0  0  0  0  0  0  0  0  0  0  0
   -1.1531    0.2999    0.4928 C   0  0  0  0  0  0  0  0  0  0  0  0
    0.8702   -2.0109   -1.2072 C   0  0  0  0  0  0  0  0  0  0  0  0
   -0.3398   -2.5457   -1.9709 C   0  0  0  0  0  0  0  0  0  0  0  0
    4.9870   -4.4178   -5.1198 C   0  0  0  0  0  0  0  0  0  0  0  0
    5.5358   -5.3206   -6.0064 C   0  0  0  0  0  0  0  0  0  0  0  0
    6.0219   -4.7269   -7.1730 C   0  0  0  0  0  0  0  0  0  0  0  0
    6.7372   -5.6807   -8.4622 S   0  0  0  0  0  0  0  0  0  0  0  0
    5.7470   -5.1788   -9.9246 C   0  0  0  0  0  0  0  0  0  0  0  0
    4.2929   -5.5726   -9.7729 C   0  0  0  0  0  0  0  0  0  0  0  0
    5.8808   -3.3406   -7.2068 C   0  0  0  0  0  0  0  0  0  0  0  0
    5.0834   -2.7968   -5.7492 S   0  0  0  0  0  0  0  0  0  0  0  0
    6.4489   -2.4646   -8.1470 C   0  0  0  0  0  0  0  0  0  0  0  0
    6.2302   -1.1270   -8.3217 C   0  0  0  0  0  0  0  0  0  0  0  0
    7.2696   -0.2908   -8.9714 C   0  0  0  0  0  0  0  0  0  0  0  0
    8.2182   -0.6784   -9.6167 O   0  0  0  0  0  0  0  0  0  0  0  0
    6.9223    1.0998   -8.6115 C   0  0  0  0  0  0  0  0  0  0  0  0
    7.6169    2.2491   -8.8514 C   0  0  0  0  0  0  0  0  0  0  0  0
    7.1014    3.4776   -8.3787 C   0  0  0  0  0  0  0  0  0  0  0  0
    7.7810    4.6931   -8.5972 C   0  0  0  0  0  0  0  0  0  0  0  0
    7.2774    5.8761   -8.1318 C   0  0  0  0  0  0  0  0  0  0  0  0
    6.0655    5.8661   -7.4287 C   0  0  0  0  0  0  0  0  0  0  0  0
    5.5843    7.0397   -6.9775 F   0  0  0  0  0  0  0  0  0  0  0  0
    5.3661    4.7162   -7.1891 C   0  0  0  0  0  0  0  0  0  0  0  0
    5.8695    3.4890   -7.6620 C   0  0  0  0  0  0  0  0  0  0  0  0
    5.1656    2.2827   -7.4361 C   0  0  0  0  0  0  0  0  0  0  0  0
    5.6835    1.1076   -7.9069 C   0  0  0  0  0  0  0  0  0  0  0  0
    5.1752   -0.2602   -7.8579 C   0  0  0  0  0  0  0  0  0  0  0  0
    3.8636   -0.6160   -7.6593 C   0  0  0  0  0  0  0  0  0  0  0  0
    3.3701   -1.9004   -7.9581 C   0  0  0  0  0  0  0  0  0  0  0  0
    2.9303   -2.9200   -8.2530 N   0  0  0  0  0  0  0  0  0  0  0  0
    2.8610    0.2717   -7.2281 C   0  0  0  0  0  0  0  0  0  0  0  0
    2.0130    0.9463   -6.8470 N   0  0  0  0  0  0  0  0  0  0  0  0
   -6.5841    4.1626    8.3233 H   0  0  0  0  0  0  0  0  0  0  0  0
   -6.2387   10.0824    6.2050 H   0  0  0  0  0  0  0  0  0  0  0  0
   -7.3643   11.8070    7.6171 H   0  0  0  0  0  0  0  0  0  0  0  0
   -8.7083    8.7854   10.3240 H   0  0  0  0  0  0  0  0  0  0  0  0
   -4.6167    5.6607    5.2237 H   0  0  0  0  0  0  0  0  0  0  0  0
   -3.6569    3.7068    1.2426 H   0  0  0  0  0  0  0  0  0  0  0  0
   -4.6288    2.6745    2.3134 H   0  0  0  0  0  0  0  0  0  0  0  0
   -4.8741    5.7247    2.0915 H   0  0  0  0  0  0  0  0  0  0  0  0
   -5.8706    4.6966    3.1227 H   0  0  0  0  0  0  0  0  0  0  0  0
   -5.9966    4.5666    1.3658 H   0  0  0  0  0  0  0  0  0  0  0  0
   -3.8901   -1.4187    7.2852 H   0  0  0  0  0  0  0  0  0  0  0  0
   -4.3476    0.2592    7.6205 H   0  0  0  0  0  0  0  0  0  0  0  0
   -6.3609   -1.1619    7.3684 H   0  0  0  0  0  0  0  0  0  0  0  0
   -6.3012   -0.0005    6.0426 H   0  0  0  0  0  0  0  0  0  0  0  0
   -5.8204   -1.6793    5.7668 H   0  0  0  0  0  0  0  0  0  0  0  0
    4.9471   -7.4288   -4.1274 H   0  0  0  0  0  0  0  0  0  0  0  0
    4.8194   -7.6641   -2.3818 H   0  0  0  0  0  0  0  0  0  0  0  0
    6.8584   -6.2911   -2.0237 H   0  0  0  0  0  0  0  0  0  0  0  0
    7.1986   -7.6532   -3.0942 H   0  0  0  0  0  0  0  0  0  0  0  0
    7.0116   -6.0295   -3.7629 H   0  0  0  0  0  0  0  0  0  0  0  0
   -0.0245    0.4493    2.3083 H   0  0  0  0  0  0  0  0  0  0  0  0
    0.8505   -0.3993    1.0384 H   0  0  0  0  0  0  0  0  0  0  0  0
   -1.4149   -0.4279   -0.2705 H   0  0  0  0  0  0  0  0  0  0  0  0
   -2.0615    0.5811    1.0187 H   0  0  0  0  0  0  0  0  0  0  0  0
   -0.7479    1.1871    0.0143 H   0  0  0  0  0  0  0  0  0  0  0  0
    1.6888   -1.8165   -1.9052 H   0  0  0  0  0  0  0  0  0  0  0  0
    0.6190   -1.0763   -0.7194 H   0  0  0  0  0  0  0  0  0  0  0  0
   -0.6762   -1.8075   -2.6934 H   0  0  0  0  0  0  0  0  0  0  0  0
   -1.1553   -2.7704   -1.2858 H   0  0  0  0  0  0  0  0  0  0  0  0
   -0.0787   -3.4568   -2.5040 H   0  0  0  0  0  0  0  0  0  0  0  0
    5.5627   -6.3821   -5.8551 H   0  0  0  0  0  0  0  0  0  0  0  0
    5.8597   -4.1082  -10.0797 H   0  0  0  0  0  0  0  0  0  0  0  0
    6.2236   -5.7148  -10.7452 H   0  0  0  0  0  0  0  0  0  0  0  0
    3.8151   -4.9912   -8.9872 H   0  0  0  0  0  0  0  0  0  0  0  0
    3.7664   -5.3791  -10.7051 H   0  0  0  0  0  0  0  0  0  0  0  0
    4.2045   -6.6307   -9.5358 H   0  0  0  0  0  0  0  0  0  0  0  0
    7.2645   -2.8812   -8.7333 H   0  0  0  0  0  0  0  0  0  0  0  0
    8.5497    2.2236   -9.3946 H   0  0  0  0  0  0  0  0  0  0  0  0
    8.7132    4.6749   -9.1415 H   0  0  0  0  0  0  0  0  0  0  0  0
    7.7855    6.8140   -8.2902 H   0  0  0  0  0  0  0  0  0  0  0  0
    4.4341    4.7468   -6.6465 H   0  0  0  0  0  0  0  0  0  0  0  0
    4.2383    2.3162   -6.8859 H   0  0  0  0  0  0  0  0  0  0  0  0
  1  2  2  0  0  0  0
  2  3  1  0  0  0  0
  3  4  2  0  0  0  0
  3  5  1  0  0  0  0
  5  6  2  0  0  0  0
  6  7  1  0  0  0  0
  7  8  2  0  0  0  0
  8  9  1  0  0  0  0
  8 10  1  0  0  0  0
 10 11  2  0  0  0  0
 11 12  1  0  0  0  0
 12 13  2  0  0  0  0
 13 14  1  0  0  0  0
 14 15  3  0  0  0  0
 13 16  1  0  0  0  0
 16 17  3  0  0  0  0
  1 18  1  0  0  0  0
 18 19  2  0  0  0  0
 19 20  1  0  0  0  0
 20 21  1  0  0  0  0
 21 22  1  0  0  0  0
 22 23  1  0  0  0  0
 20 24  2  0  0  0  0
 24 25  1  0  0  0  0
 24 26  1  0  0  0  0
 26 27  2  0  0  0  0
 27 28  1  0  0  0  0
 28 29  1  0  0  0  0
 27 30  1  0  0  0  0
 30 31  1  0  0  0  0
 31 32  1  0  0  0  0
 32 33  1  0  0  0  0
 33 34  1  0  0  0  0
 34 35  1  0  0  0  0
 35 36  2  0  0  0  0
 36 37  1  0  0  0  0
 37 38  1  0  0  0  0
 35 39  1  0  0  0  0
 39 40  1  0  0  0  0
 40 41  1  0  0  0  0
 41 42  1  0  0  0  0
 42 43  1  0  0  0  0
 43 44  1  0  0  0  0
 44 45  1  0  0  0  0
 43 46  2  0  0  0  0
 46 47  1  0  0  0  0
 47 48  1  0  0  0  0
 48 49  1  0  0  0  0
 49 50  1  0  0  0  0
 50 51  1  0  0  0  0
 51 52  1  0  0  0  0
 52 53  1  0  0  0  0
 53 54  1  0  0  0  0
 54 55  1  0  0  0  0
 55 56  1  0  0  0  0
 53 57  1  0  0  0  0
 57 58  1  0  0  0  0
 50 59  1  0  0  0  0
 59 60  1  0  0  0  0
 46 61  1  0  0  0  0
 61 62  2  0  0  0  0
 62 63  1  0  0  0  0
 63 64  1  0  0  0  0
 64 65  1  0  0  0  0
 65 66  1  0  0  0  0
 63 67  2  0  0  0  0
 67 68  1  0  0  0  0
 67 69  1  0  0  0  0
 69 70  2  0  0  0  0
 70 71  1  0  0  0  0
 71 72  2  0  0  0  0
 71 73  1  0  0  0  0
 73 74  2  0  0  0  0
 74 75  1  0  0  0  0
 75 76  2  0  0  0  0
 76 77  1  0  0  0  0
 77 78  2  0  0  0  0
 78 79  1  0  0  0  0
 78 80  1  0  0  0  0
 80 81  2  0  0  0  0
 81 82  1  0  0  0  0
 82 83  2  0  0  0  0
 83 84  1  0  0  0  0
 84 85  2  0  0  0  0
 85 86  1  0  0  0  0
 86 87  3  0  0  0  0
 85 88  1  0  0  0  0
 88 89  3  0  0  0  0
 12  2  1  0  0  0  0
 25 18  1  0  0  0  0
 56 26  1  0  0  0  0
 68 61  1  0  0  0  0
 84 70  1  0  0  0  0
 11  5  1  0  0  0  0
 55 30  2  0  0  0  0
 83 73  1  0  0  0  0
 54 32  2  0  0  0  0
 81 75  1  0  0  0  0
 52 33  2  0  0  0  0
 38 34  2  0  0  0  0
 51 39  2  0  0  0  0
 49 40  2  0  0  0  0
 48 42  2  0  0  0  0
  1 90  1  0  0  0  0
  6 91  1  0  0  0  0
  7 92  1  0  0  0  0
 10 93  1  0  0  0  0
 19 94  1  0  0  0  0
 22 95  1  0  0  0  0
 22 96  1  0  0  0  0
 23 97  1  0  0  0  0
 23 98  1  0  0  0  0
 23 99  1  0  0  0  0
 28100  1  0  0  0  0
 28101  1  0  0  0  0
 29102  1  0  0  0  0
 29103  1  0  0  0  0
 29104  1  0  0  0  0
 44105  1  0  0  0  0
 44106  1  0  0  0  0
 45107  1  0  0  0  0
 45108  1  0  0  0  0
 45109  1  0  0  0  0
 57110  1  0  0  0  0
 57111  1  0  0  0  0
 58112  1  0  0  0  0
 58113  1  0  0  0  0
 58114  1  0  0  0  0
 59115  1  0  0  0  0
 59116  1  0  0  0  0
 60117  1  0  0  0  0
 60118  1  0  0  0  0
 60119  1  0  0  0  0
 62120  1  0  0  0  0
 65121  1  0  0  0  0
 65122  1  0  0  0  0
 66123  1  0  0  0  0
 66124  1  0  0  0  0
 66125  1  0  0  0  0
 69126  1  0  0  0  0
 74127  1  0  0  0  0
 76128  1  0  0  0  0
 77129  1  0  0  0  0
 80130  1  0  0  0  0
 82131  1  0  0  0  0
M  END
