145

C         -6.49110       -6.69070        7.50700
C         -6.60350       -5.74540        8.49490
C         -6.25890       -4.32620        8.35690
O         -5.80190       -3.76510        7.37590
C         -6.58030       -3.70020        9.65110
C         -6.44940       -2.37930       10.03520
C         -6.82660       -2.02240       11.31990
C         -7.32430       -2.98840       12.18700
Cl        -7.79080       -2.52600       13.77910
C         -7.45980       -4.32240       11.81220
C         -7.08150       -4.67750       10.52900
C         -7.09780       -5.96950        9.83880
C         -7.50150       -7.15490       10.39480
C         -7.50870       -8.41000        9.74980
N         -7.54870       -9.46800        9.30410
C         -7.97130       -7.29170       11.71880
N         -8.35780       -7.48100       12.78290
C         -6.03730       -6.56850        6.18580
C         -5.97230       -7.65710        5.32100
C         -5.50050       -7.35470        4.04950
S         -5.26110       -8.63210        2.86150
C         -3.62250       -8.19450        2.15430
C         -2.87010       -9.46670        1.81770
C         -5.22350       -5.99550        3.89940
S         -5.47290       -5.12290        5.38180
C         -4.79410       -5.28610        2.73980
C         -5.20460       -5.43440        1.42500
C         -6.29610       -6.30770        0.99710
C         -6.19530       -7.04450       -0.18040
C         -7.22200       -7.89130       -0.55010
C         -8.35140       -8.00940        0.24100
C         -8.48150       -7.26010        1.40320
C         -9.68210       -7.40130        2.29340
C         -9.33690       -8.24890        3.51930
C         -7.45200       -6.40620        1.76500
C         -4.49150       -4.57080        0.56970
S         -4.54870       -4.30400       -1.15630
C         -3.32490       -3.09390       -0.98430
C         -2.60370       -2.19060       -1.78200
C         -2.71790       -1.85900       -3.14970
C         -1.92080       -0.78660       -3.67300
N         -2.17400       -0.54510       -4.94970
S         -3.31250       -1.58040       -5.45180
N         -3.52780       -2.37740       -4.05970
C         -0.95250       -0.18760       -2.83780
C          0.06860        0.73320       -3.11850
S          0.65630        1.66690       -4.45180
C          2.00290        2.17640       -3.46290
C          3.10420        3.00660       -3.72820
C          3.30750        3.67460       -5.01800
C          3.38140        2.91990       -6.18300
C          3.57420        3.55240       -7.39660
C          3.68420        4.92980       -7.45590
C          3.59310        5.69870       -6.30300
C          3.66290        7.19650       -6.36590
C          2.25870        7.79640       -6.46190
C          3.39480        5.06030       -5.08920
C          3.94770        3.09620       -2.63220
S          3.34020        2.17760       -1.25290
C          1.97280        1.65180       -2.16650
C          0.85600        0.83350       -1.96630
N          0.34160        0.03570       -0.97890
C         -0.78320       -0.58970       -1.48240
C         -1.70810       -1.50420       -0.91670
N         -1.91630       -1.94950        0.38270
C         -2.89840       -2.90680        0.33220
C         -3.57350       -3.74720        1.22630
S         -3.57710       -4.03060        2.93090
C         -1.72730       -1.22310        1.62150
C         -2.57450        0.04720        1.64480
C          1.14650       -0.28710        0.17630
C          1.12060        0.82420        1.22430
C          5.22220        3.70760       -2.52640
C          6.03080        3.68160       -1.39950
C          7.26460        4.27890       -1.60730
S          8.56630        4.33120       -0.43010
C          7.70340        5.06350        1.00750
C          7.32640        6.50470        0.72920
C          7.42670        4.79450       -2.90610
S          6.01020        4.46650       -3.87560
C          8.52740        5.56390       -3.28110
C          8.83030        6.13460       -4.49390
C          8.13690        5.88470       -5.76070
O          7.09140        5.28290       -5.93600
C          8.97780        6.50190       -6.80520
C          8.80310        6.50240       -8.17530
C          9.74900        7.13890       -8.96380
C         10.84230        7.75700       -8.36850
Cl        12.01290        8.53230       -9.36680
C         11.02650        7.77040       -6.98850
C         10.08000        7.13570       -6.20400
C          9.97020        6.98380       -4.75190
C         10.74820        7.61970       -3.81820
C         11.85350        8.43520       -4.13580
N         12.76970        9.09880       -4.33200
C         10.50930        7.60470       -2.42770
N         10.34300        7.68340       -1.29360
H         -6.80380       -7.69860        7.75160
H         -6.06120       -1.64950        9.34180
H         -6.73900       -1.00120       11.65520
H         -7.85090       -5.03780       12.51630
H         -6.24440       -8.65430        5.61870
H         -3.09620       -7.60810        2.90600
H         -3.78530       -7.58980        1.26280
H         -1.89930       -9.21970        1.39290
H         -2.72050      -10.06920        2.71040
H         -3.42880      -10.05530        1.09390
H         -5.30760       -6.96870       -0.79090
H         -7.13660       -8.47000       -1.45780
H         -9.14250       -8.68540       -0.04920
H        -10.49820       -7.87370        1.74410
H        -10.01700       -6.41450        2.62160
H         -8.55480       -7.77070        4.10520
H        -10.21240       -8.38050        4.15070
H         -8.97680       -9.22790        3.21160
H         -7.55090       -5.80140        2.65520
H          3.30750        1.84380       -6.13090
H          3.64280        2.96550       -8.30060
H          3.84400        5.41570       -8.40760
H          4.16020        7.57800       -5.47190
H          4.24770        7.50110       -7.23560
H          1.66510        7.51150       -5.59600
H          1.75360        7.43520       -7.35490
H          2.30980        8.88180       -6.50620
H          3.30870        5.64440       -4.18340
H         -2.04270       -1.89130        2.42670
H         -0.68040       -0.98160        1.78370
H         -3.62730       -0.20050        1.53000
H         -2.44200        0.56480        2.59100
H         -2.28920        0.71300        0.83270
H          2.17950       -0.41670       -0.16660
H          0.81440       -1.24420        0.57980
H          0.10410        1.07650        1.51290
H          1.67260        0.51170        2.10660
H          1.59180        1.71850        0.82500
H          5.73040        3.21930       -0.47500
H          8.42770        4.99280        1.81780
H          6.83680        4.44720        1.24230
H          6.89540        6.95400        1.62150
H          8.20650        7.07430        0.43870
H          6.59600        6.56130       -0.07650
H          9.23830        5.71220       -2.47550
H          7.94650        6.01230       -8.61170
H          9.64730        7.15740      -10.03730
H         11.88920        8.25900       -6.56620
