146

C         -9.43230       -4.22160        3.98490
C        -10.68690       -3.69880        3.83390
C        -11.85060       -4.47650        4.33640
O        -11.84910       -5.63150        4.69690
C        -12.98030       -3.52460        4.34170
C        -14.26730       -3.69750        4.81370
C        -15.15240       -2.63370        4.73360
C        -14.73470       -1.42440        4.18980
Cl       -15.84530       -0.10990        4.11380
C        -13.44410       -1.23870        3.70210
C        -12.56530       -2.30420        3.77870
C        -11.17820       -2.44190        3.32690
C        -10.58140       -1.63390        2.39120
C         -9.36220       -1.92320        1.75050
N         -8.38770       -2.10000        1.16810
C        -11.14470       -0.44040        1.89630
N        -11.52630        0.55870        1.47830
C         -8.18530       -3.57390        3.94060
C         -7.86650       -2.23630        4.09380
C         -6.50540       -1.97390        3.99600
S         -5.83210       -0.34660        4.10830
C         -6.53650        0.39490        2.57830
C         -7.75740        1.24640        2.85730
C         -5.72670       -3.11160        3.78260
S         -6.72910       -4.52680        3.74590
C         -4.34280       -3.17610        3.49690
C         -3.54730       -4.31130        3.39040
C         -3.93200       -5.66200        3.80690
C         -4.37670       -5.90070        5.10510
C         -4.69430       -7.18730        5.49440
C         -4.57390       -8.23680        4.59980
C         -4.11920       -8.01680        3.30600
C         -4.02550       -9.14360        2.31900
C         -5.32370       -9.25300        1.51640
C         -3.79540       -6.72400        2.92170
C         -2.28170       -4.00460        2.87270
S         -0.88310       -4.99260        2.51840
C         -0.05000       -3.57020        1.99020
C          1.21460       -3.19480        1.51320
C          2.41020       -3.93090        1.36310
C          3.60850       -3.23710        0.98660
N          4.66350       -4.03580        0.94460
S          4.18950       -5.53250        1.33910
N          2.61950       -5.21980        1.58060
C          3.52810       -1.86730        0.65310
C          4.48460       -0.98990        0.11700
S          6.15650       -0.98740       -0.32970
C          5.96270        0.63700       -0.94210
C          6.86020        1.53540       -1.55080
C          8.28110        1.23380       -1.73800
C          9.26020        2.11030       -1.27720
C         10.59480        1.78330       -1.41880
C         10.96170        0.58620       -2.00940
C          9.99720       -0.30300       -2.46500
C         10.38060       -1.63310       -3.04480
C         10.32650       -2.71410       -1.96310
C          8.65860        0.03080       -2.32130
C          6.23410        2.72120       -1.88490
S          4.53840        2.74140       -1.41240
C          4.66750        1.13610       -0.78890
C          3.82180        0.20450       -0.17470
N          2.50420        0.12090        0.19610
C          2.30080       -1.15040        0.71570
C          1.16510       -1.79050        1.27550
N         -0.07990       -1.32780        1.65580
C         -0.81550       -2.40230        2.08010
C         -2.09140       -2.64620        2.59670
S         -3.48880       -1.71640        3.00670
C         -0.52310        0.01120        1.97160
C         -1.59820        0.50790        1.00630
C          1.55460        0.99580       -0.45900
C          1.00180        0.34920       -1.72740
C          6.72420        3.82870       -2.63290
C          6.11790        5.05370       -2.76620
C          6.74900        5.91920       -3.68300
C          6.37660        7.33090       -3.86400
O          6.77430        8.01840       -4.78420
C          5.49590        7.93110       -2.78740
C          6.25100        8.04740       -1.46260
C          7.86120        5.31770       -4.27330
S          8.15330        3.73620       -3.61500
C          8.79090        5.79310       -5.24190
C          8.55650        6.54540       -6.34180
C          9.68790        7.23500       -7.02670
O         10.86650        7.01260       -6.87790
C          9.04890        8.26820       -7.86300
C          9.63800        9.27740       -8.60300
C          8.82110       10.16330       -9.28580
C          7.43810       10.03000       -9.21170
Cl         6.44390       11.15510      -10.05370
C          6.83060        9.01590       -8.47850
C          7.64930        8.12730       -7.80430
C          7.32310        6.96200       -6.98560
C          6.15120        6.26060       -7.03430
C          5.94320        5.01450       -6.40870
N          5.71120        3.98240       -5.96210
C          5.01420        6.67820       -7.75760
N          4.05360        6.97470       -8.31110
H         -9.40990       -5.27880        4.23170
H        -14.56780       -4.64490        5.23320
H        -16.16460       -2.73380        5.09180
H        -13.15710       -0.28470        3.29100
H         -8.59250       -1.47580        4.31780
H         -6.76420       -0.42910        1.90360
H         -5.72870        0.99490        2.16120
H         -7.51270        2.05410        3.54300
H         -8.12700        1.67310        1.92710
H         -8.55610        0.65320        3.29630
H         -4.45730       -5.08010        5.80310
H         -5.03410       -7.37380        6.50230
H         -4.82780       -9.23960        4.91160
H         -3.84560      -10.08340        2.84420
H         -3.19250       -8.96770        1.63580
H         -5.51550       -8.32730        0.97860
H         -5.25880      -10.06620        0.79740
H         -6.16440       -9.44180        2.18020
H         -3.44200       -6.53550        1.91820
H          8.97120        3.03240       -0.79410
H         11.35390        2.46210       -1.05940
H         12.00790        0.33750       -2.11350
H          9.69330       -1.89690       -3.85100
H         11.38990       -1.58280       -3.45740
H         10.59720       -3.68170       -2.37880
H          9.32470       -2.78220       -1.54510
H         11.01720       -2.47660       -1.15700
H          7.89760       -0.64820       -2.67730
H          0.34500        0.67100        2.00090
H         -0.95030       -0.01280        2.98070
H         -2.50010       -0.08690        1.12130
H         -1.84150        1.54310        1.22940
H         -1.27380        0.43430       -0.02770
H          2.09750        1.90830       -0.71780
H          0.74480        1.27080        0.20990
H          0.30790        1.02640       -2.21790
H          0.48510       -0.57870       -1.49030
H          1.81110        0.12380       -2.41800
H          5.21850        5.29370       -2.22850
H          5.19990        8.92580       -3.12540
H          4.59770        7.32570       -2.66070
H          5.61630        8.51690       -0.71500
H          6.55590        7.07010       -1.09590
H          7.14060        8.65970       -1.59180
H          9.82930        5.51990       -5.07640
H         10.71270        9.36570       -8.64000
H          9.24670       10.96220       -9.87250
H          5.75600        8.94870       -8.43410
