
  xtb     02052220443D
 energy: -260.597135907210 gnorm: 0.000352794445 xtb: 6.4.1 (unknown)
145160  0     0  0            999 V2000
    3.1188   -0.9036   10.9297 C   0  0  0  0  0  0  0  0  0  0  0  0
    4.2747   -1.0912   11.6492 C   0  0  0  0  0  0  0  0  0  0  0  0
    5.4060   -1.9982   11.3645 C   0  0  0  0  0  0  0  0  0  0  0  0
    5.5433   -2.7959   10.4559 O   0  0  0  0  0  0  0  0  0  0  0  0
    6.3919   -1.7590   12.4351 C   0  0  0  0  0  0  0  0  0  0  0  0
    7.6275   -2.3517   12.6130 C   0  0  0  0  0  0  0  0  0  0  0  0
    8.3972   -1.9669   13.6986 C   0  0  0  0  0  0  0  0  0  0  0  0
    7.9150   -1.0032   14.5767 C   0  0  0  0  0  0  0  0  0  0  0  0
    8.8856   -0.5339   15.9207 Cl  0  0  0  0  0  0  0  0  0  0  0  0
    6.6716   -0.4008   14.4088 C   0  0  0  0  0  0  0  0  0  0  0  0
    5.9041   -0.7872   13.3229 C   0  0  0  0  0  0  0  0  0  0  0  0
    4.5819   -0.3568   12.8641 C   0  0  0  0  0  0  0  0  0  0  0  0
    3.8087    0.5819   13.4989 C   0  0  0  0  0  0  0  0  0  0  0  0
    2.5319    1.0383   13.1068 C   0  0  0  0  0  0  0  0  0  0  0  0
    1.4958    1.4812   12.8799 N   0  0  0  0  0  0  0  0  0  0  0  0
    4.1907    1.2532   14.6806 C   0  0  0  0  0  0  0  0  0  0  0  0
    4.4266    1.8423   15.6374 N   0  0  0  0  0  0  0  0  0  0  0  0
    2.6632   -1.4600    9.7249 C   0  0  0  0  0  0  0  0  0  0  0  0
    3.1804   -2.4202    8.8712 C   0  0  0  0  0  0  0  0  0  0  0  0
    2.4077   -2.6340    7.7346 C   0  0  0  0  0  0  0  0  0  0  0  0
    2.7820   -3.7893    6.4718 S   0  0  0  0  0  0  0  0  0  0  0  0
    4.3304   -4.5575    7.0853 C   0  0  0  0  0  0  0  0  0  0  0  0
    4.7722   -5.6154    6.0929 C   0  0  0  0  0  0  0  0  0  0  0  0
    1.2535   -1.8381    7.6881 C   0  0  0  0  0  0  0  0  0  0  0  0
    1.1466   -0.8359    9.0992 S   0  0  0  0  0  0  0  0  0  0  0  0
    0.3144   -1.7046    6.6381 C   0  0  0  0  0  0  0  0  0  0  0  0
   -0.9136   -1.0539    6.6844 C   0  0  0  0  0  0  0  0  0  0  0  0
   -1.5645   -0.6033    7.9187 C   0  0  0  0  0  0  0  0  0  0  0  0
   -1.8592   -1.5207    8.9245 C   0  0  0  0  0  0  0  0  0  0  0  0
   -2.4763   -1.0922   10.0832 C   0  0  0  0  0  0  0  0  0  0  0  0
   -2.7902    0.2453   10.2512 C   0  0  0  0  0  0  0  0  0  0  0  0
   -2.5123    1.1701    9.2531 C   0  0  0  0  0  0  0  0  0  0  0  0
   -2.7942    2.6293    9.4586 C   0  0  0  0  0  0  0  0  0  0  0  0
   -1.5546    3.3251   10.0261 C   0  0  0  0  0  0  0  0  0  0  0  0
   -1.9091    0.7320    8.0830 C   0  0  0  0  0  0  0  0  0  0  0  0
   -1.4754   -0.9213    5.4076 C   0  0  0  0  0  0  0  0  0  0  0  0
   -2.9463   -0.1714    4.8326 S   0  0  0  0  0  0  0  0  0  0  0  0
   -2.4959   -0.5928    3.2136 C   0  0  0  0  0  0  0  0  0  0  0  0
   -2.9670   -0.4417    1.9005 C   0  0  0  0  0  0  0  0  0  0  0  0
   -4.1715    0.1024    1.4030 C   0  0  0  0  0  0  0  0  0  0  0  0
   -4.4131    0.0769   -0.0102 C   0  0  0  0  0  0  0  0  0  0  0  0
   -5.5945    0.5808   -0.3309 N   0  0  0  0  0  0  0  0  0  0  0  0
   -6.3377    1.0500    1.0283 S   0  0  0  0  0  0  0  0  0  0  0  0
   -5.1806    0.6294    2.0788 N   0  0  0  0  0  0  0  0  0  0  0  0
   -3.3958   -0.3961   -0.8678 C   0  0  0  0  0  0  0  0  0  0  0  0
   -3.2938   -0.3795   -2.2671 C   0  0  0  0  0  0  0  0  0  0  0  0
   -4.2264    0.0988   -3.6454 S   0  0  0  0  0  0  0  0  0  0  0  0
   -2.8625   -0.2877   -4.6673 C   0  0  0  0  0  0  0  0  0  0  0  0
   -2.6589   -0.1846   -6.0530 C   0  0  0  0  0  0  0  0  0  0  0  0
   -3.6854    0.2765   -6.9940 C   0  0  0  0  0  0  0  0  0  0  0  0
   -4.2630    1.5304   -6.8361 C   0  0  0  0  0  0  0  0  0  0  0  0
   -5.2234    1.9591   -7.7338 C   0  0  0  0  0  0  0  0  0  0  0  0
   -5.6192    1.1415   -8.7758 C   0  0  0  0  0  0  0  0  0  0  0  0
   -5.0693   -0.1253   -8.9322 C   0  0  0  0  0  0  0  0  0  0  0  0
   -5.4721   -0.9986  -10.0851 C   0  0  0  0  0  0  0  0  0  0  0  0
   -4.6054   -0.6885  -11.3068 C   0  0  0  0  0  0  0  0  0  0  0  0
   -4.1029   -0.5477   -8.0343 C   0  0  0  0  0  0  0  0  0  0  0  0
   -1.3795   -0.5812   -6.4092 C   0  0  0  0  0  0  0  0  0  0  0  0
   -0.4430   -1.1314   -5.0181 S   0  0  0  0  0  0  0  0  0  0  0  0
   -1.7604   -0.7793   -3.9594 C   0  0  0  0  0  0  0  0  0  0  0  0
   -2.0100   -0.8339   -2.5845 C   0  0  0  0  0  0  0  0  0  0  0  0
   -1.3311   -1.1646   -1.4430 N   0  0  0  0  0  0  0  0  0  0  0  0
   -2.1619   -0.9006   -0.3654 C   0  0  0  0  0  0  0  0  0  0  0  0
   -1.9909   -1.0212    1.0387 C   0  0  0  0  0  0  0  0  0  0  0  0
   -0.9800   -1.5545    1.8240 N   0  0  0  0  0  0  0  0  0  0  0  0
   -1.2860   -1.2885    3.1312 C   0  0  0  0  0  0  0  0  0  0  0  0
   -0.7022   -1.4848    4.3862 C   0  0  0  0  0  0  0  0  0  0  0  0
    0.7402   -2.2064    5.0051 S   0  0  0  0  0  0  0  0  0  0  0  0
   -0.0073   -2.5819    1.5221 C   0  0  0  0  0  0  0  0  0  0  0  0
   -0.6701   -3.8256    0.9360 C   0  0  0  0  0  0  0  0  0  0  0  0
    0.1030   -1.3359   -1.4948 C   0  0  0  0  0  0  0  0  0  0  0  0
    0.8332   -0.1397   -0.8893 C   0  0  0  0  0  0  0  0  0  0  0  0
   -0.7339   -0.4837   -7.6665 C   0  0  0  0  0  0  0  0  0  0  0  0
    0.5364   -0.9591   -7.9566 C   0  0  0  0  0  0  0  0  0  0  0  0
    0.9483   -0.6520   -9.2457 C   0  0  0  0  0  0  0  0  0  0  0  0
    2.4865   -1.0483   -9.9655 S   0  0  0  0  0  0  0  0  0  0  0  0
    3.1700   -2.3180   -8.8425 C   0  0  0  0  0  0  0  0  0  0  0  0
    2.4139   -3.6290   -8.9348 C   0  0  0  0  0  0  0  0  0  0  0  0
   -0.0103    0.0897   -9.9757 C   0  0  0  0  0  0  0  0  0  0  0  0
   -1.4290    0.3902   -8.9907 S   0  0  0  0  0  0  0  0  0  0  0  0
    0.1706    0.4647  -11.3023 C   0  0  0  0  0  0  0  0  0  0  0  0
   -0.6513    1.1901  -12.1419 C   0  0  0  0  0  0  0  0  0  0  0  0
   -1.9107    1.8180  -11.7554 C   0  0  0  0  0  0  0  0  0  0  0  0
   -2.4525    1.8063  -10.6640 O   0  0  0  0  0  0  0  0  0  0  0  0
   -2.4106    2.5067  -12.9641 C   0  0  0  0  0  0  0  0  0  0  0  0
   -1.4979    2.3165  -14.0169 C   0  0  0  0  0  0  0  0  0  0  0  0
   -1.7523    2.8784  -15.2571 C   0  0  0  0  0  0  0  0  0  0  0  0
   -2.9150    3.6175  -15.4266 C   0  0  0  0  0  0  0  0  0  0  0  0
   -3.8133    3.7951  -14.3863 C   0  0  0  0  0  0  0  0  0  0  0  0
   -5.3826    4.8061  -14.6840 Br  0  0  0  0  0  0  0  0  0  0  0  0
   -3.5745    3.2380  -13.1256 C   0  0  0  0  0  0  0  0  0  0  0  0
   -4.6772    3.4477  -11.8315 Cl  0  0  0  0  0  0  0  0  0  0  0  0
   -0.3907    1.4898  -13.5289 C   0  0  0  0  0  0  0  0  0  0  0  0
    0.6746    1.0796  -14.2927 C   0  0  0  0  0  0  0  0  0  0  0  0
    0.8573    1.4288  -15.6463 C   0  0  0  0  0  0  0  0  0  0  0  0
    1.0704    1.6772  -16.7472 N   0  0  0  0  0  0  0  0  0  0  0  0
    1.7329    0.2523  -13.8632 C   0  0  0  0  0  0  0  0  0  0  0  0
    2.6274   -0.4236  -13.6115 N   0  0  0  0  0  0  0  0  0  0  0  0
    2.4275   -0.1745   11.3339 H   0  0  0  0  0  0  0  0  0  0  0  0
    7.9758   -3.0967   11.9144 H   0  0  0  0  0  0  0  0  0  0  0  0
    9.3671   -2.4062   13.8699 H   0  0  0  0  0  0  0  0  0  0  0  0
    6.3401    0.3415   15.1153 H   0  0  0  0  0  0  0  0  0  0  0  0
    4.0996   -2.9257    9.0946 H   0  0  0  0  0  0  0  0  0  0  0  0
    5.0779   -3.7709    7.1812 H   0  0  0  0  0  0  0  0  0  0  0  0
    4.1215   -4.9964    8.0602 H   0  0  0  0  0  0  0  0  0  0  0  0
    5.6919   -6.0805    6.4402 H   0  0  0  0  0  0  0  0  0  0  0  0
    4.9514   -5.1723    5.1159 H   0  0  0  0  0  0  0  0  0  0  0  0
    4.0096   -6.3839    5.9885 H   0  0  0  0  0  0  0  0  0  0  0  0
   -1.6070   -2.5625    8.7878 H   0  0  0  0  0  0  0  0  0  0  0  0
   -2.7099   -1.8036   10.8614 H   0  0  0  0  0  0  0  0  0  0  0  0
   -3.2583    0.5755   11.1669 H   0  0  0  0  0  0  0  0  0  0  0  0
   -3.0676    3.0928    8.5085 H   0  0  0  0  0  0  0  0  0  0  0  0
   -3.6271    2.7526   10.1529 H   0  0  0  0  0  0  0  0  0  0  0  0
   -0.7196    3.2330    9.3352 H   0  0  0  0  0  0  0  0  0  0  0  0
   -1.7545    4.3811   10.1916 H   0  0  0  0  0  0  0  0  0  0  0  0
   -1.2637    2.8728   10.9711 H   0  0  0  0  0  0  0  0  0  0  0  0
   -1.6851    1.4378    7.2959 H   0  0  0  0  0  0  0  0  0  0  0  0
   -3.9458    2.1696   -6.0257 H   0  0  0  0  0  0  0  0  0  0  0  0
   -5.6635    2.9386   -7.6187 H   0  0  0  0  0  0  0  0  0  0  0  0
   -6.3677    1.4851   -9.4753 H   0  0  0  0  0  0  0  0  0  0  0  0
   -5.3538   -2.0502   -9.8153 H   0  0  0  0  0  0  0  0  0  0  0  0
   -6.5207   -0.8246  -10.3346 H   0  0  0  0  0  0  0  0  0  0  0  0
   -3.5562   -0.8661  -11.0799 H   0  0  0  0  0  0  0  0  0  0  0  0
   -4.8936   -1.3120  -12.1505 H   0  0  0  0  0  0  0  0  0  0  0  0
   -4.7158    0.3554  -11.5890 H   0  0  0  0  0  0  0  0  0  0  0  0
   -3.6668   -1.5320   -8.1378 H   0  0  0  0  0  0  0  0  0  0  0  0
    0.7747   -2.1958    0.8674 H   0  0  0  0  0  0  0  0  0  0  0  0
    0.4705   -2.8420    2.4699 H   0  0  0  0  0  0  0  0  0  0  0  0
    0.0830   -4.5774    0.7159 H   0  0  0  0  0  0  0  0  0  0  0  0
   -1.3753   -4.2416    1.6518 H   0  0  0  0  0  0  0  0  0  0  0  0
   -1.2131   -3.5918    0.0233 H   0  0  0  0  0  0  0  0  0  0  0  0
    0.3950   -2.2712   -1.0172 H   0  0  0  0  0  0  0  0  0  0  0  0
    0.3667   -1.4203   -2.5520 H   0  0  0  0  0  0  0  0  0  0  0  0
    0.5360    0.0215    0.1441 H   0  0  0  0  0  0  0  0  0  0  0  0
    0.5996    0.7605   -1.4531 H   0  0  0  0  0  0  0  0  0  0  0  0
    1.9070   -0.3021   -0.9264 H   0  0  0  0  0  0  0  0  0  0  0  0
    1.1220   -1.4950   -7.2311 H   0  0  0  0  0  0  0  0  0  0  0  0
    4.1961   -2.4363   -9.1901 H   0  0  0  0  0  0  0  0  0  0  0  0
    3.1864   -1.9139   -7.8315 H   0  0  0  0  0  0  0  0  0  0  0  0
    1.3771   -3.5056   -8.6297 H   0  0  0  0  0  0  0  0  0  0  0  0
    2.4301   -3.9996   -9.9568 H   0  0  0  0  0  0  0  0  0  0  0  0
    2.8806   -4.3695   -8.2883 H   0  0  0  0  0  0  0  0  0  0  0  0
    1.1098    0.1224  -11.7218 H   0  0  0  0  0  0  0  0  0  0  0  0
   -1.0764    2.7587  -16.0868 H   0  0  0  0  0  0  0  0  0  0  0  0
   -3.1299    4.0640  -16.3853 H   0  0  0  0  0  0  0  0  0  0  0  0
  1  2  2  0  0  0  0
  2  3  1  0  0  0  0
  3  4  2  0  0  0  0
  3  5  1  0  0  0  0
  5  6  2  0  0  0  0
  6  7  1  0  0  0  0
  7  8  2  0  0  0  0
  8  9  1  0  0  0  0
  8 10  1  0  0  0  0
 10 11  2  0  0  0  0
 11 12  1  0  0  0  0
 12 13  2  0  0  0  0
 13 14  1  0  0  0  0
 14 15  3  0  0  0  0
 13 16  1  0  0  0  0
 16 17  3  0  0  0  0
  1 18  1  0  0  0  0
 18 19  2  0  0  0  0
 19 20  1  0  0  0  0
 20 21  1  0  0  0  0
 21 22  1  0  0  0  0
 22 23  1  0  0  0  0
 20 24  2  0  0  0  0
 24 25  1  0  0  0  0
 24 26  1  0  0  0  0
 26 27  2  0  0  0  0
 27 28  1  0  0  0  0
 28 29  2  0  0  0  0
 29 30  1  0  0  0  0
 30 31  2  0  0  0  0
 31 32  1  0  0  0  0
 32 33  1  0  0  0  0
 33 34  1  0  0  0  0
 32 35  2  0  0  0  0
 27 36  1  0  0  0  0
 36 37  1  0  0  0  0
 37 38  1  0  0  0  0
 38 39  1  0  0  0  0
 39 40  1  0  0  0  0
 40 41  1  0  0  0  0
 41 42  2  0  0  0  0
 42 43  1  0  0  0  0
 43 44  1  0  0  0  0
 41 45  1  0  0  0  0
 45 46  1  0  0  0  0
 46 47  1  0  0  0  0
 47 48  1  0  0  0  0
 48 49  1  0  0  0  0
 49 50  1  0  0  0  0
 50 51  2  0  0  0  0
 51 52  1  0  0  0  0
 52 53  2  0  0  0  0
 53 54  1  0  0  0  0
 54 55  1  0  0  0  0
 55 56  1  0  0  0  0
 54 57  2  0  0  0  0
 49 58  2  0  0  0  0
 58 59  1  0  0  0  0
 59 60  1  0  0  0  0
 60 61  1  0  0  0  0
 61 62  1  0  0  0  0
 62 63  1  0  0  0  0
 63 64  1  0  0  0  0
 64 65  1  0  0  0  0
 65 66  1  0  0  0  0
 66 67  1  0  0  0  0
 67 68  1  0  0  0  0
 65 69  1  0  0  0  0
 69 70  1  0  0  0  0
 62 71  1  0  0  0  0
 71 72  1  0  0  0  0
 58 73  1  0  0  0  0
 73 74  2  0  0  0  0
 74 75  1  0  0  0  0
 75 76  1  0  0  0  0
 76 77  1  0  0  0  0
 77 78  1  0  0  0  0
 75 79  2  0  0  0  0
 79 80  1  0  0  0  0
 79 81  1  0  0  0  0
 81 82  2  0  0  0  0
 82 83  1  0  0  0  0
 83 84  2  0  0  0  0
 83 85  1  0  0  0  0
 85 86  2  0  0  0  0
 86 87  1  0  0  0  0
 87 88  2  0  0  0  0
 88 89  1  0  0  0  0
 89 90  1  0  0  0  0
 89 91  2  0  0  0  0
 91 92  1  0  0  0  0
 86 93  1  0  0  0  0
 93 94  2  0  0  0  0
 94 95  1  0  0  0  0
 95 96  3  0  0  0  0
 94 97  1  0  0  0  0
 97 98  3  0  0  0  0
 12  2  1  0  0  0  0
 25 18  1  0  0  0  0
 68 26  1  0  0  0  0
 80 73  1  0  0  0  0
 93 82  1  0  0  0  0
 11  5  1  0  0  0  0
 35 28  1  0  0  0  0
 67 36  2  0  0  0  0
 91 85  1  0  0  0  0
 66 38  2  0  0  0  0
 64 39  2  0  0  0  0
 44 40  2  0  0  0  0
 63 45  2  0  0  0  0
 61 46  2  0  0  0  0
 60 48  2  0  0  0  0
 57 50  1  0  0  0  0
  1 99  1  0  0  0  0
  6100  1  0  0  0  0
  7101  1  0  0  0  0
 10102  1  0  0  0  0
 19103  1  0  0  0  0
 22104  1  0  0  0  0
 22105  1  0  0  0  0
 23106  1  0  0  0  0
 23107  1  0  0  0  0
 23108  1  0  0  0  0
 29109  1  0  0  0  0
 30110  1  0  0  0  0
 31111  1  0  0  0  0
 33112  1  0  0  0  0
 33113  1  0  0  0  0
 34114  1  0  0  0  0
 34115  1  0  0  0  0
 34116  1  0  0  0  0
 35117  1  0  0  0  0
 51118  1  0  0  0  0
 52119  1  0  0  0  0
 53120  1  0  0  0  0
 55121  1  0  0  0  0
 55122  1  0  0  0  0
 56123  1  0  0  0  0
 56124  1  0  0  0  0
 56125  1  0  0  0  0
 57126  1  0  0  0  0
 69127  1  0  0  0  0
 69128  1  0  0  0  0
 70129  1  0  0  0  0
 70130  1  0  0  0  0
 70131  1  0  0  0  0
 71132  1  0  0  0  0
 71133  1  0  0  0  0
 72134  1  0  0  0  0
 72135  1  0  0  0  0
 72136  1  0  0  0  0
 74137  1  0  0  0  0
 77138  1  0  0  0  0
 77139  1  0  0  0  0
 78140  1  0  0  0  0
 78141  1  0  0  0  0
 78142  1  0  0  0  0
 81143  1  0  0  0  0
 87144  1  0  0  0  0
 88145  1  0  0  0  0
M  END
