131

C         -6.20820        4.84190        7.56750
C         -6.60250        6.14990        7.69150
C         -6.26050        7.30180        6.82720
O         -5.64570        7.31420        5.78000
C         -6.85000        8.48350        7.48520
C         -6.77670        9.80850        7.09920
C         -7.40230       10.76290        7.88440
C         -8.08470       10.37230        9.03110
Cl        -8.85250       11.57280        9.99940
C         -8.16950        9.04090        9.42710
C         -7.54350        8.08870        8.64020
C         -7.44290        6.63440        8.77340
C         -8.06970        5.89810        9.74530
C         -8.88020        6.45180       10.76020
N         -9.55060        6.82450       11.61450
C         -8.04190        4.49440        9.88980
N         -8.08920        3.36390       10.08890
C         -5.37540        4.20190        6.63510
C         -4.64220        4.63520        5.54370
C         -3.94190        3.62200        4.90420
S         -2.95570        3.94820        3.47160
C         -4.22360        3.67680        2.17220
C         -5.30810        4.73310        2.19190
C         -4.08410        2.35780        5.48800
S         -5.15220        2.47100        6.84950
C         -3.48710        1.14030        5.08430
C         -3.57290       -0.12310        5.66110
C         -4.36260       -0.52530        6.86270
C         -5.80580       -0.86140        6.48460
C         -2.82510       -1.06770        4.94870
Se        -2.53290       -2.92230        5.21650
C         -1.46480       -2.79580        3.69860
C         -0.61640       -3.60680        2.93650
C         -0.21120       -4.94120        3.14720
C          0.79460       -5.49460        2.29480
N          1.12740       -6.73020        2.63290
S          0.24090       -7.16010        3.92120
N         -0.59790       -5.78290        4.09270
C          1.25920       -4.72490        1.20810
C          2.13570       -5.07360        0.17320
Se         3.17790       -6.52210       -0.34890
C          3.58070       -5.46330       -1.86770
C          4.36700       -5.70600       -3.00440
C          5.15250       -6.96880       -3.15970
C          6.65210       -6.71840       -3.00240
C          4.35210       -4.62120       -3.86560
S          3.35930       -3.30160       -3.25580
C          2.95480       -4.21200       -1.84750
C          2.15630       -3.99560       -0.71640
N          1.35060       -2.98630       -0.25240
C          0.78570       -3.41000        0.94150
C         -0.08270       -2.80170        1.88930
N         -0.56910       -1.51920        2.05460
C         -1.40760       -1.51460        3.13780
C         -2.15840       -0.55740        3.83110
S         -2.44970        1.13600        3.65620
C         -0.13600       -0.26430        1.48440
C         -1.15310        0.29990        0.49280
C          0.87020       -2.01090       -1.20720
C         -0.33980       -2.54570       -1.97090
C          4.98700       -4.41780       -5.11980
C          5.53580       -5.32060       -6.00640
C          6.02190       -4.72690       -7.17300
S          6.73720       -5.68070       -8.46220
C          5.74700       -5.17880       -9.92460
C          4.29290       -5.57260       -9.77290
C          5.88080       -3.34060       -7.20680
S          5.08340       -2.79680       -5.74920
C          6.44890       -2.46460       -8.14700
C          6.23020       -1.12700       -8.32170
C          7.26960       -0.29080       -8.97140
O          8.21820       -0.67840       -9.61670
C          6.92230        1.09980       -8.61150
C          7.61690        2.24910       -8.85140
C          7.10140        3.47760       -8.37870
C          7.78100        4.69310       -8.59720
C          7.27740        5.87610       -8.13180
C          6.06550        5.86610       -7.42870
F          5.58430        7.03970       -6.97750
C          5.36610        4.71620       -7.18910
C          5.86950        3.48900       -7.66200
C          5.16560        2.28270       -7.43610
C          5.68350        1.10760       -7.90690
C          5.17520       -0.26020       -7.85790
C          3.86360       -0.61600       -7.65930
C          3.37010       -1.90040       -7.95810
N          2.93030       -2.92000       -8.25300
C          2.86100        0.27170       -7.22810
N          2.01300        0.94630       -6.84700
H         -6.58410        4.16260        8.32330
H         -6.23870       10.08240        6.20500
H         -7.36430       11.80700        7.61710
H         -8.70830        8.78540       10.32400
H         -4.61670        5.66070        5.22370
H         -3.65690        3.70680        1.24260
H         -4.62880        2.67450        2.31340
H         -4.87410        5.72470        2.09150
H         -5.87060        4.69660        3.12270
H         -5.99660        4.56660        1.36580
H         -3.89010       -1.41870        7.28520
H         -4.34760        0.25920        7.62050
H         -6.36090       -1.16190        7.36840
H         -6.30120       -0.00050        6.04260
H         -5.82040       -1.67930        5.76680
H          4.94710       -7.42880       -4.12740
H          4.81940       -7.66410       -2.38180
H          6.85840       -6.29110       -2.02370
H          7.19860       -7.65320       -3.09420
H          7.01160       -6.02950       -3.76290
H         -0.02450        0.44930        2.30830
H          0.85050       -0.39930        1.03840
H         -1.41490       -0.42790       -0.27050
H         -2.06150        0.58110        1.01870
H         -0.74790        1.18710        0.01430
H          1.68880       -1.81650       -1.90520
H          0.61900       -1.07630       -0.71940
H         -0.67620       -1.80750       -2.69340
H         -1.15530       -2.77040       -1.28580
H         -0.07870       -3.45680       -2.50400
H          5.56270       -6.38210       -5.85510
H          5.85970       -4.10820      -10.07970
H          6.22360       -5.71480      -10.74520
H          3.81510       -4.99120       -8.98720
H          3.76640       -5.37910      -10.70510
H          4.20450       -6.63070       -9.53580
H          7.26450       -2.88120       -8.73330
H          8.54970        2.22360       -9.39460
H          8.71320        4.67490       -9.14150
H          7.78550        6.81400       -8.29020
H          4.43410        4.74680       -6.64650
H          4.23830        2.31620       -6.88590
