183

C         11.95390       -1.02450        5.20040
C         12.75980       -0.81220        6.29220
C         13.40080        0.44330        6.73880
O         13.44710        1.52350        6.18200
C         13.98880        0.14530        8.05850
C         14.66440        0.99820        8.91040
C         15.12390        0.50060       10.11890
C         14.89720       -0.83140       10.44630
Cl        15.46920       -1.43190       11.95640
C         14.22110       -1.70050        9.59510
C         13.76470       -1.20090        8.38700
C         13.03630       -1.83430        7.28700
C         12.72920       -3.16900        7.22370
C         12.09150       -3.83600        6.15560
N         11.59520       -4.47310        5.33850
C         13.03760       -4.10110        8.23790
N         13.25020       -4.91580        9.01820
C         11.57720       -0.18090        4.14280
C         11.96420        1.09540        3.77220
C         11.30220        1.58840        2.65060
S         11.47460        3.22010        2.03010
C         12.01650        4.14450        3.51600
C         10.96800        4.16190        4.60970
C         10.39930        0.67120        2.10170
S         10.38000       -0.79910        3.01780
C          9.50080        0.83950        1.01520
C          9.63760        1.57790       -0.15090
C         10.88880        2.13130       -0.65970
C         12.08180        1.42210       -0.52660
C         13.24920        1.93200       -1.05900
C         13.24130        3.14230       -1.73060
C         12.06130        3.86020       -1.87750
C         12.02680        5.14640       -2.65090
C         11.58430        4.88430       -4.09200
C         10.89240        3.34370       -1.34180
C          8.42750        1.60560       -0.87350
S          7.95490        2.40220       -2.35550
C          6.36520        1.74420       -2.17950
C          5.09750        1.86240       -2.77150
C          4.60660        2.72660       -3.77640
C          3.18530        2.84230       -3.96230
N          2.86810        3.75930       -4.86220
S          4.23350        4.41310       -5.43520
N          5.28590        3.55730       -4.55070
C          2.32710        1.98170       -3.24210
C          0.92910        1.82630       -3.22850
S         -0.48430        2.60330       -3.86030
C         -1.47080        1.43650       -3.01460
C         -2.86360        1.30250       -2.86720
C         -3.82490        2.22080       -3.49710
C         -4.00570        2.19700       -4.87410
C         -4.91210        3.06100       -5.46030
C         -5.63590        3.94600       -4.68150
C         -5.45270        3.99320       -3.30550
C         -6.20540        4.98310       -2.46470
C         -5.47640        6.32770       -2.43580
C         -4.53290        3.13340       -2.72470
C         -3.18590        0.21730       -2.07800
S         -1.75760       -0.63800       -1.49920
C         -0.72810        0.48670       -2.31060
C          0.64690        0.72290       -2.41760
N          1.80850        0.20240       -1.90550
C          2.84910        0.99100       -2.36800
C          4.21930        1.03980       -2.01440
N          4.92620        0.47830       -0.96900
C          6.22090        0.91710       -1.06030
C          7.39720        0.85250       -0.30410
S          7.90810        0.10430        1.16570
C          4.44130       -0.12950        0.25020
C          4.89680       -1.58140        0.39260
C          1.86630       -1.19430       -1.53140
C          1.48790       -2.09810       -2.70470
C         -4.46230       -0.28840       -1.69550
C         -4.71750       -1.52470       -1.16870
C         -6.07630       -1.73790       -0.83890
C         -6.66810       -2.89760       -0.30930
C         -5.90690       -4.14320       -0.14060
C         -5.17380       -4.66610       -1.20570
C         -4.49940       -5.86140       -1.05460
C         -4.53470       -6.55260        0.14490
C         -5.25120       -6.03200        1.21330
S         -5.40710       -6.80480        2.79450
C         -4.21060       -8.18470        2.77620
C         -2.77410       -7.70830        2.88100
C         -5.93540       -4.82980        1.06380
C         -8.01440       -2.81620        0.00750
C         -8.79160       -1.64630       -0.21070
C         -8.21050       -0.50160       -0.79190
C         -9.00570        0.70300       -1.06250
C         -8.54670        1.95470       -0.65200
C         -9.31200        3.07970       -0.88670
C        -10.53340        2.98740       -1.53160
C        -10.98910        1.74790       -1.96100
S        -12.53040        1.47230       -2.77670
C        -13.12540        3.13840       -3.23680
C        -12.31480        3.74980       -4.36390
C        -10.22360        0.61030       -1.72360
C         -6.86200       -0.58180       -1.08550
S         -5.91180        0.68770       -1.81560
C        -10.12720       -1.80580        0.20060
C        -10.42370       -3.06110        0.66770
S         -8.98840       -4.09220        0.67550
C        -11.61240       -3.60890        1.20290
C        -12.90970       -3.16320        1.13020
C        -13.33050       -2.11640        0.17100
O        -12.66960       -1.79780       -0.79750
N        -14.55860       -1.52590        0.39350
C        -14.91430       -0.38040       -0.43840
C        -14.46410        0.92150        0.21130
C        -15.48990       -1.93360        1.33390
O        -16.51550       -1.31210        1.51260
C        -15.14750       -3.17030        2.04760
C        -13.92330       -3.76530        1.95540
C        -13.62930       -4.99730        2.75380
C        -16.16430       -3.69260        2.87470
N        -16.99070       -4.12570        3.54220
H         11.49620       -2.00440        5.13680
H         14.82420        2.02800        8.63070
H         15.65460        1.13600       10.81000
H         14.06660       -2.72440        9.89160
H         12.70240        1.63930        4.32950
H         12.96080        3.72890        3.86250
H         12.19430        5.14740        3.12750
H         10.79690        3.16080        4.99910
H         11.30670        4.79270        5.42860
H         10.02770        4.55500        4.22940
H         12.08570        0.46690       -0.02240
H         14.17140        1.37950       -0.95380
H         14.15960        3.53320       -2.14480
H         13.01660        5.60660       -2.65290
H         11.32660        5.83990       -2.18130
H         11.55470        5.81370       -4.65560
H         12.27650        4.20290       -4.58160
H         10.59370        4.43560       -4.10750
H          9.97440        3.90470       -1.43360
H         -3.44620        1.49650       -5.47630
H         -5.05830        3.03910       -6.53010
H         -6.35170        4.60900       -5.14590
H         -7.20840        5.12310       -2.87330
H         -6.30220        4.60040       -1.44710
H         -6.02020        7.04380       -1.82390
H         -5.38380        6.73010       -3.44200
H         -4.47690        6.20660       -2.02420
H         -4.36440        3.16810       -1.65760
H          4.84650        0.44390        1.09220
H          3.35510       -0.04190        0.28190
H          5.97570       -1.62620        0.51130
H          4.43680       -2.02440        1.27120
H          4.63130       -2.17510       -0.47930
H          2.87780       -1.43680       -1.22300
H          1.17680       -1.36180       -0.69750
H          2.14540       -1.91000       -3.55100
H          1.58690       -3.13880       -2.40860
H          0.46160       -1.92450       -3.01540
H         -3.94790       -2.25980       -1.01090
H         -5.16100       -4.14840       -2.15290
H         -3.94210       -6.27260       -1.88370
H         -4.01090       -7.49150        0.22360
H         -4.48650       -8.77640        3.64910
H         -4.38860       -8.78270        1.88310
H         -2.10040       -8.56320        2.88970
H         -2.63320       -7.14420        3.79990
H         -2.51220       -7.06640        2.04260
H         -6.48070       -4.43220        1.90630
H         -7.60980        2.03740       -0.12340
H         -8.96290        4.04630       -0.55440
H        -11.11530        3.88240       -1.68160
H        -14.15520        2.96690       -3.55020
H        -13.13570        3.76310       -2.34420
H        -11.27100        3.86210       -4.07820
H        -12.71420        4.72960       -4.61980
H        -12.36060        3.11370       -5.24450
H        -10.59130       -0.34440       -2.06810
H        -10.84170       -1.00720        0.16710
H        -11.43760       -4.50740        1.78120
H        -15.99900       -0.38680       -0.55680
H        -14.42540       -0.51020       -1.40550
H        -13.38260        0.92990        0.33150
H        -14.75000        1.75810       -0.41950
H        -14.93410        1.03870        1.18500
H        -14.53620       -5.36230        3.22940
H        -13.23010       -5.78290        2.11380
H        -12.89890       -4.78390        3.53370
