159

C         10.22700        4.53460       -4.37770
C          9.87280        4.21890       -5.66760
C          8.82020        3.27480       -6.05220
O          8.06900        2.65800       -5.31590
C          8.84320        3.21560       -7.52480
C          8.05880        2.46410       -8.37800
C          8.27000        2.57600       -9.74330
C          9.25560        3.43130      -10.22130
Cl         9.50550        3.55630      -11.92120
C         10.05140        4.19510       -9.37150
C          9.83810        4.08300       -8.00880
C         10.48820        4.73730       -6.87010
C         11.48340        5.67660       -6.96380
C         12.03470        6.13070       -8.18050
N         12.53260        6.54470       -9.12860
C         12.09780        6.33650       -5.87960
N         12.64540        6.92260       -5.05680
C          9.71040        4.07340       -3.16120
C         10.22120        4.49540       -1.93360
C          9.59490        3.93780       -0.82920
S          9.92610        4.35240        0.84640
C         10.45140        6.10240        0.70420
C          9.35730        6.99510        0.15380
C          8.58590        3.04110       -1.19750
S          8.40910        2.93370       -2.91940
C          7.71560        2.29530       -0.35730
C          7.96940        1.66490        0.85210
C          9.29360        1.48880        1.44230
C          9.46650        1.56500        2.82200
C         10.72190        1.38720        3.36940
C         11.80980        1.12630        2.55530
C         11.65430        1.03140        1.17780
C         12.82240        0.69730        0.29500
C         12.97360       -0.81900        0.15930
C         10.39230        1.20590        0.63420
C          6.79220        1.10260        1.38410
S          6.46390        0.18630        2.83620
C          4.80450        0.05880        2.36070
C          3.59070       -0.46060        2.84770
C          3.21330       -1.04960        4.07630
C          1.81940       -1.31220        4.33230
N          1.61370       -1.78550        5.55080
S          3.03900       -1.90230        6.30830
N          3.97960       -1.34860        5.11300
C          0.87640       -1.11060        3.29840
C         -0.50400       -1.35850        3.18680
S         -1.83160       -1.86750        4.17470
C         -2.89110       -1.71320        2.79110
C         -4.28270       -1.86550        2.64090
C         -5.12860       -2.16380        3.79970
C         -4.75780       -3.18640        4.66820
C         -5.50450       -3.43330        5.80380
C         -6.60840       -2.65250        6.09320
C         -6.98020       -1.61140        5.24990
C         -8.19120       -0.78390        5.57170
C         -9.46580       -1.47950        5.09150
C         -6.23520       -1.37550        4.10570
C         -4.68280       -1.58520        1.34220
S         -3.34150       -1.05850        0.33550
C         -2.23110       -1.29880        1.63320
C         -0.86620       -1.09230        1.86090
N          0.22930       -0.67230        1.14700
C          1.29560       -0.64170        2.02620
C          2.61360       -0.16810        1.86160
N          3.19240        0.55610        0.83460
C          4.52570        0.68410        1.14040
C          5.66160        1.27790        0.58120
S          6.03830        2.14140       -0.86480
C          2.53630        1.55890        0.01900
C          2.69610        2.95410        0.62270
C          0.30180       -0.87900       -0.28530
C          0.03240       -2.33880       -0.64950
C         -5.98300       -1.70430        0.74400
C         -6.32340       -0.95700       -0.38690
O         -5.34450       -0.16440       -0.90340
C         -5.13830       -0.08740       -2.31010
C         -4.98780       -1.45770       -2.95530
C         -7.65290       -0.93990       -0.88360
O         -7.89050       -0.07830       -1.90520
C         -9.08500        0.69840       -1.95920
C         -9.66390        0.67160       -3.36480
C         -8.63790       -1.74480       -0.31740
C         -8.28900       -2.58250        0.78340
C         -6.96030       -2.59390        1.28150
N         -6.60250       -3.48920        2.21090
C         -7.52070       -4.27110        2.71570
C         -8.85170       -4.21060        2.27910
N         -9.20750       -3.40880        1.30950
C         -9.95280       -1.89670       -0.88830
C        -11.04860       -2.12300       -0.12320
C        -11.07160       -1.86840        1.34500
O        -10.39420       -1.07100        1.95890
C        -12.26050       -2.59300        1.83820
C        -12.68400       -2.79850        3.13710
C        -13.86950       -3.48410        3.34850
C        -14.61180       -3.93580        2.26250
Cl       -16.08590       -4.78170        2.54860
C        -14.20470       -3.72510        0.94970
C        -13.01420       -3.04750        0.74070
C        -12.32850       -2.68640       -0.49970
C        -12.81240       -2.85560       -1.76920
C        -14.06630       -3.42280       -2.07830
N        -15.07320       -3.87330       -2.39520
C        -12.12830       -2.44240       -2.93000
N        -11.61520       -2.11280       -3.90340
H         11.04100        5.23820       -4.25310
H          7.30130        1.80690       -7.98010
H          7.67700        2.00530      -10.44020
H         10.80450        4.84470       -9.78560
H         11.03170        5.20010       -1.87930
H         11.36010        6.14710        0.10620
H         10.69640        6.37200        1.73130
H          9.69580        8.02910        0.14430
H          9.09560        6.70850       -0.86280
H          8.46600        6.92470        0.77290
H          8.62360        1.78960        3.45700
H         10.85390        1.45730        4.43890
H         12.79010        0.99490        2.99060
H         13.73750        1.11370        0.72070
H         12.67540        1.13530       -0.69450
H         12.07440       -1.25100       -0.27440
H         13.13340       -1.27180        1.13520
H         13.81940       -1.06190       -0.47980
H         10.25570        1.11240       -0.43410
H         -3.89990       -3.79930        4.43830
H         -5.21890       -4.23360        6.47090
H         -7.18430       -2.84260        6.98790
H         -8.24960       -0.63220        6.65240
H         -8.11560        0.19300        5.09170
H         -9.52680       -2.48650        5.50160
H         -9.47580       -1.54120        4.00600
H        -10.34070       -0.91660        5.41030
H         -6.51200       -0.56730        3.44260
H          1.47420        1.33250       -0.04180
H          2.97610        1.53450       -0.98310
H          2.29040        2.97380        1.63200
H          2.15810        3.67630        0.01510
H          3.74170        3.24600        0.66070
H         -0.43790       -0.23560       -0.77310
H          1.30170       -0.61910       -0.62960
H          0.73310       -2.99000       -0.13140
H         -0.97910       -2.62670       -0.37870
H          0.15630       -2.47380       -1.72040
H         -4.20680        0.47870       -2.39360
H         -5.94550        0.47220       -2.78860
H         -4.71470       -1.33840       -3.99970
H         -5.92310       -2.01000       -2.90120
H         -4.21230       -2.02780       -2.44840
H         -9.81400        0.34380       -1.22510
H         -8.79900        1.72630       -1.69600
H        -10.51180        1.34840       -3.41810
H         -9.99990       -0.32530       -3.63920
H         -8.91160        0.99250       -4.08060
H         -7.19480       -4.97890        3.46410
H         -9.62400       -4.84540        2.69130
H        -10.00290       -1.96940       -1.96670
H        -12.09300       -2.43430        3.96280
H        -14.22640       -3.66940        4.34930
H        -14.80970       -4.08780        0.13500
