
  xtb     02052214383D
 energy: -305.973365215724 gnorm: 0.000275415760 xtb: 6.4.1 (unknown)
165181  0     0  0            999 V2000
    4.3338   -4.0830    9.6693 C   0  0  0  0  0  0  0  0  0  0  0  0
    5.6120   -3.8218    9.2361 C   0  0  0  0  0  0  0  0  0  0  0  0
    6.0039   -3.5820    7.8450 C   0  0  0  0  0  0  0  0  0  0  0  0
    5.2802   -3.5443    6.8640 O   0  0  0  0  0  0  0  0  0  0  0  0
    7.4652   -3.3928    7.8583 C   0  0  0  0  0  0  0  0  0  0  0  0
    8.3207   -3.1523    6.8008 C   0  0  0  0  0  0  0  0  0  0  0  0
    9.6747   -3.0135    7.0627 C   0  0  0  0  0  0  0  0  0  0  0  0
   10.1389   -3.1180    8.3684 C   0  0  0  0  0  0  0  0  0  0  0  0
   11.8253   -2.9454    8.6751 Cl  0  0  0  0  0  0  0  0  0  0  0  0
    9.2863   -3.3596    9.4426 C   0  0  0  0  0  0  0  0  0  0  0  0
    7.9347   -3.4974    9.1793 C   0  0  0  0  0  0  0  0  0  0  0  0
    6.7963   -3.7567   10.0652 C   0  0  0  0  0  0  0  0  0  0  0  0
    6.8747   -3.9010   11.4270 C   0  0  0  0  0  0  0  0  0  0  0  0
    8.0733   -3.8155   12.1663 C   0  0  0  0  0  0  0  0  0  0  0  0
    9.0079   -3.7592   12.8305 N   0  0  0  0  0  0  0  0  0  0  0  0
    5.7900   -4.1512   12.2927 C   0  0  0  0  0  0  0  0  0  0  0  0
    4.9647   -4.3561   13.0657 N   0  0  0  0  0  0  0  0  0  0  0  0
    3.1396   -4.1850    8.9461 C   0  0  0  0  0  0  0  0  0  0  0  0
    1.9204   -4.4654    9.5652 C   0  0  0  0  0  0  0  0  0  0  0  0
    0.8442   -4.5563    8.6950 C   0  0  0  0  0  0  0  0  0  0  0  0
   -0.8478   -4.7284    9.1313 S   0  0  0  0  0  0  0  0  0  0  0  0
   -0.7789   -5.3011   10.8642 C   0  0  0  0  0  0  0  0  0  0  0  0
   -0.2624   -6.7212   10.9794 C   0  0  0  0  0  0  0  0  0  0  0  0
    1.2319   -4.3504    7.3663 C   0  0  0  0  0  0  0  0  0  0  0  0
    2.9227   -4.0026    7.2236 S   0  0  0  0  0  0  0  0  0  0  0  0
    0.4246   -4.3872    6.1936 C   0  0  0  0  0  0  0  0  0  0  0  0
   -0.5705   -5.2828    5.8390 C   0  0  0  0  0  0  0  0  0  0  0  0
   -0.9143   -6.4880    6.5910 C   0  0  0  0  0  0  0  0  0  0  0  0
   -2.2439   -6.8684    6.7435 C   0  0  0  0  0  0  0  0  0  0  0  0
   -2.5540   -8.0131    7.4528 C   0  0  0  0  0  0  0  0  0  0  0  0
   -1.5486   -8.7903    8.0003 C   0  0  0  0  0  0  0  0  0  0  0  0
   -0.2137   -8.4357    7.8399 C   0  0  0  0  0  0  0  0  0  0  0  0
    0.8806   -9.3097    8.3829 C   0  0  0  0  0  0  0  0  0  0  0  0
    1.2156  -10.4225    7.3880 C   0  0  0  0  0  0  0  0  0  0  0  0
    0.0909   -7.2853    7.1313 C   0  0  0  0  0  0  0  0  0  0  0  0
   -1.1205   -4.9598    4.5841 C   0  0  0  0  0  0  0  0  0  0  0  0
   -2.3321   -5.7357    3.5924 S   0  0  0  0  0  0  0  0  0  0  0  0
   -2.0452   -4.5552    2.3592 C   0  0  0  0  0  0  0  0  0  0  0  0
   -2.4336   -4.2805    1.0391 C   0  0  0  0  0  0  0  0  0  0  0  0
   -3.2273   -5.0126    0.1285 C   0  0  0  0  0  0  0  0  0  0  0  0
   -3.2697   -4.5954   -1.2448 C   0  0  0  0  0  0  0  0  0  0  0  0
   -3.9826   -5.4156   -2.0001 N   0  0  0  0  0  0  0  0  0  0  0  0
   -4.5587   -6.6050   -1.0648 S   0  0  0  0  0  0  0  0  0  0  0  0
   -3.9162   -6.1225    0.3412 N   0  0  0  0  0  0  0  0  0  0  0  0
   -2.6359   -3.3879   -1.6130 C   0  0  0  0  0  0  0  0  0  0  0  0
   -2.6184   -2.6801   -2.8248 C   0  0  0  0  0  0  0  0  0  0  0  0
   -3.1627   -2.8578   -4.4571 S   0  0  0  0  0  0  0  0  0  0  0  0
   -2.5296   -1.2665   -4.8139 C   0  0  0  0  0  0  0  0  0  0  0  0
   -2.5445   -0.4763   -5.9756 C   0  0  0  0  0  0  0  0  0  0  0  0
   -3.2495   -0.8741   -7.1923 C   0  0  0  0  0  0  0  0  0  0  0  0
   -4.0964    0.0183   -7.8464 C   0  0  0  0  0  0  0  0  0  0  0  0
   -4.7916   -0.3908   -8.9670 C   0  0  0  0  0  0  0  0  0  0  0  0
   -4.6555   -1.6848   -9.4406 C   0  0  0  0  0  0  0  0  0  0  0  0
   -3.8194   -2.5881   -8.7979 C   0  0  0  0  0  0  0  0  0  0  0  0
   -3.6996   -4.0087   -9.2676 C   0  0  0  0  0  0  0  0  0  0  0  0
   -4.5874   -4.9241   -8.4219 C   0  0  0  0  0  0  0  0  0  0  0  0
   -3.1246   -2.1724   -7.6725 C   0  0  0  0  0  0  0  0  0  0  0  0
   -1.9371    0.7527   -5.7484 C   0  0  0  0  0  0  0  0  0  0  0  0
   -1.4161    0.9555   -4.0887 S   0  0  0  0  0  0  0  0  0  0  0  0
   -1.9344   -0.6454   -3.7105 C   0  0  0  0  0  0  0  0  0  0  0  0
   -1.9790   -1.4617   -2.5755 C   0  0  0  0  0  0  0  0  0  0  0  0
   -1.5650   -1.3993   -1.2696 N   0  0  0  0  0  0  0  0  0  0  0  0
   -1.9445   -2.5863   -0.6611 C   0  0  0  0  0  0  0  0  0  0  0  0
   -1.7250   -3.1119    0.6376 C   0  0  0  0  0  0  0  0  0  0  0  0
   -0.8938   -2.7293    1.6718 N   0  0  0  0  0  0  0  0  0  0  0  0
   -1.0845   -3.6009    2.7088 C   0  0  0  0  0  0  0  0  0  0  0  0
   -0.5401   -3.8431    3.9756 C   0  0  0  0  0  0  0  0  0  0  0  0
    0.7092   -3.1700    4.9600 S   0  0  0  0  0  0  0  0  0  0  0  0
    0.2476   -1.8445    1.6742 C   0  0  0  0  0  0  0  0  0  0  0  0
    0.0092   -0.6029    2.5318 C   0  0  0  0  0  0  0  0  0  0  0  0
   -1.3917   -0.0930   -0.6655 C   0  0  0  0  0  0  0  0  0  0  0  0
   -2.6728    0.3609    0.0287 C   0  0  0  0  0  0  0  0  0  0  0  0
   -1.6634    1.8119   -6.6716 C   0  0  0  0  0  0  0  0  0  0  0  0
   -1.3600    1.6212   -8.0159 C   0  0  0  0  0  0  0  0  0  0  0  0
   -1.2590    0.3816   -8.5186 F   0  0  0  0  0  0  0  0  0  0  0  0
   -1.0851    2.6802   -8.8874 C   0  0  0  0  0  0  0  0  0  0  0  0
   -0.8573    2.3677  -10.1673 F   0  0  0  0  0  0  0  0  0  0  0  0
   -1.1127    4.0093   -8.4841 C   0  0  0  0  0  0  0  0  0  0  0  0
   -1.4638    4.2442   -7.1239 C   0  0  0  0  0  0  0  0  0  0  0  0
   -1.6496    5.4953   -6.6943 N   0  0  0  0  0  0  0  0  0  0  0  0
   -1.9059    5.7275   -5.4249 C   0  0  0  0  0  0  0  0  0  0  0  0
   -2.2902    7.0827   -5.1211 C   0  0  0  0  0  0  0  0  0  0  0  0
   -1.8063    8.3228   -6.2334 S   0  0  0  0  0  0  0  0  0  0  0  0
   -2.6538    9.5452   -5.3599 C   0  0  0  0  0  0  0  0  0  0  0  0
   -2.6706   10.9715   -5.7895 C   0  0  0  0  0  0  0  0  0  0  0  0
   -1.3239   11.4205   -6.3468 C   0  0  0  0  0  0  0  0  0  0  0  0
   -3.2949    8.9982   -4.2826 C   0  0  0  0  0  0  0  0  0  0  0  0
   -3.1011    7.6084   -4.1455 C   0  0  0  0  0  0  0  0  0  0  0  0
   -3.6904    6.8882   -3.1815 F   0  0  0  0  0  0  0  0  0  0  0  0
   -4.0366    9.7170   -3.4263 F   0  0  0  0  0  0  0  0  0  0  0  0
   -1.8146    4.6596   -4.4757 C   0  0  0  0  0  0  0  0  0  0  0  0
   -1.7483    3.4212   -4.9103 N   0  0  0  0  0  0  0  0  0  0  0  0
   -1.6459    3.1654   -6.2153 C   0  0  0  0  0  0  0  0  0  0  0  0
   -1.7184    4.8624   -3.0469 C   0  0  0  0  0  0  0  0  0  0  0  0
   -0.8420    6.1983   -2.3664 S   0  0  0  0  0  0  0  0  0  0  0  0
   -1.1197    5.6699   -0.7452 C   0  0  0  0  0  0  0  0  0  0  0  0
   -0.6058    6.4218    0.4326 C   0  0  0  0  0  0  0  0  0  0  0  0
    0.9172    6.5472    0.4056 C   0  0  0  0  0  0  0  0  0  0  0  0
   -1.8438    4.5147   -0.7537 C   0  0  0  0  0  0  0  0  0  0  0  0
   -2.1983    3.8642    0.3667 F   0  0  0  0  0  0  0  0  0  0  0  0
   -2.1784    4.0472   -2.0455 C   0  0  0  0  0  0  0  0  0  0  0  0
   -2.9137    2.9529   -2.2398 F   0  0  0  0  0  0  0  0  0  0  0  0
   -0.8502    5.1506   -9.3167 C   0  0  0  0  0  0  0  0  0  0  0  0
    0.0024    5.2595  -10.3611 C   0  0  0  0  0  0  0  0  0  0  0  0
    0.9096    4.2690  -10.7888 C   0  0  0  0  0  0  0  0  0  0  0  0
    1.7061    3.5084  -11.1089 N   0  0  0  0  0  0  0  0  0  0  0  0
    0.0926    6.5777  -11.0537 C   0  0  0  0  0  0  0  0  0  0  0  0
   -0.5486    7.5478  -10.7324 O   0  0  0  0  0  0  0  0  0  0  0  0
    0.9575    6.5334  -12.0650 O   0  0  0  0  0  0  0  0  0  0  0  0
    1.1658    7.7379  -12.8017 C   0  0  0  0  0  0  0  0  0  0  0  0
    2.1827    8.6361  -12.1123 C   0  0  0  0  0  0  0  0  0  0  0  0
    4.2034   -4.2541   10.7309 H   0  0  0  0  0  0  0  0  0  0  0  0
    7.9331   -3.0770    5.7967 H   0  0  0  0  0  0  0  0  0  0  0  0
   10.3732   -2.8259    6.2627 H   0  0  0  0  0  0  0  0  0  0  0  0
    9.6904   -3.4343   10.4384 H   0  0  0  0  0  0  0  0  0  0  0  0
    1.8569   -4.5773   10.6325 H   0  0  0  0  0  0  0  0  0  0  0  0
   -1.8159   -5.2368   11.1933 H   0  0  0  0  0  0  0  0  0  0  0  0
   -0.1857   -4.5917   11.4396 H   0  0  0  0  0  0  0  0  0  0  0  0
   -0.2681   -7.0317   12.0222 H   0  0  0  0  0  0  0  0  0  0  0  0
   -0.8934   -7.3960   10.4057 H   0  0  0  0  0  0  0  0  0  0  0  0
    0.7536   -6.7996   10.5989 H   0  0  0  0  0  0  0  0  0  0  0  0
   -3.0276   -6.2537    6.3291 H   0  0  0  0  0  0  0  0  0  0  0  0
   -3.5871   -8.3000    7.5817 H   0  0  0  0  0  0  0  0  0  0  0  0
   -1.7985   -9.6829    8.5564 H   0  0  0  0  0  0  0  0  0  0  0  0
    1.7756   -8.7119    8.5687 H   0  0  0  0  0  0  0  0  0  0  0  0
    0.5651   -9.7557    9.3286 H   0  0  0  0  0  0  0  0  0  0  0  0
    0.3388  -11.0375    7.1987 H   0  0  0  0  0  0  0  0  0  0  0  0
    1.5447   -9.9971    6.4426 H   0  0  0  0  0  0  0  0  0  0  0  0
    2.0078  -11.0568    7.7789 H   0  0  0  0  0  0  0  0  0  0  0  0
    1.1253   -7.0062    6.9865 H   0  0  0  0  0  0  0  0  0  0  0  0
   -4.2181    1.0223   -7.4641 H   0  0  0  0  0  0  0  0  0  0  0  0
   -5.4475    0.3024   -9.4732 H   0  0  0  0  0  0  0  0  0  0  0  0
   -5.2036   -1.9949  -10.3185 H   0  0  0  0  0  0  0  0  0  0  0  0
   -3.9967   -4.0806  -10.3154 H   0  0  0  0  0  0  0  0  0  0  0  0
   -2.6617   -4.3368   -9.1830 H   0  0  0  0  0  0  0  0  0  0  0  0
   -4.4951   -5.9554   -8.7542 H   0  0  0  0  0  0  0  0  0  0  0  0
   -4.3009   -4.8684   -7.3742 H   0  0  0  0  0  0  0  0  0  0  0  0
   -5.6294   -4.6237   -8.5072 H   0  0  0  0  0  0  0  0  0  0  0  0
   -2.4572   -2.8599   -7.1744 H   0  0  0  0  0  0  0  0  0  0  0  0
    1.0940   -2.3997    2.0948 H   0  0  0  0  0  0  0  0  0  0  0  0
    0.5002   -1.5937    0.6434 H   0  0  0  0  0  0  0  0  0  0  0  0
   -0.1126   -0.8916    3.5724 H   0  0  0  0  0  0  0  0  0  0  0  0
    0.8648    0.0630    2.4607 H   0  0  0  0  0  0  0  0  0  0  0  0
   -0.8836   -0.0679    2.2208 H   0  0  0  0  0  0  0  0  0  0  0  0
   -0.5580   -0.0867    0.0316 H   0  0  0  0  0  0  0  0  0  0  0  0
   -1.1528    0.5950   -1.4800 H   0  0  0  0  0  0  0  0  0  0  0  0
   -2.5268    1.3385    0.4781 H   0  0  0  0  0  0  0  0  0  0  0  0
   -3.4834    0.4323   -0.6924 H   0  0  0  0  0  0  0  0  0  0  0  0
   -2.9606   -0.3455    0.8049 H   0  0  0  0  0  0  0  0  0  0  0  0
   -2.9574   11.5866   -4.9335 H   0  0  0  0  0  0  0  0  0  0  0  0
   -3.4374   11.0998   -6.5602 H   0  0  0  0  0  0  0  0  0  0  0  0
   -0.5446   11.3104   -5.5968 H   0  0  0  0  0  0  0  0  0  0  0  0
   -1.3735   12.4636   -6.6461 H   0  0  0  0  0  0  0  0  0  0  0  0
   -1.0572   10.8214   -7.2143 H   0  0  0  0  0  0  0  0  0  0  0  0
   -0.9246    5.8999    1.3370 H   0  0  0  0  0  0  0  0  0  0  0  0
   -1.0480    7.4215    0.4410 H   0  0  0  0  0  0  0  0  0  0  0  0
    1.3810    5.5638    0.4172 H   0  0  0  0  0  0  0  0  0  0  0  0
    1.2365    7.0714   -0.4922 H   0  0  0  0  0  0  0  0  0  0  0  0
    1.2594    7.1025    1.2743 H   0  0  0  0  0  0  0  0  0  0  0  0
   -1.3623    6.0590   -9.0186 H   0  0  0  0  0  0  0  0  0  0  0  0
    0.2085    8.2588  -12.9095 H   0  0  0  0  0  0  0  0  0  0  0  0
    1.5266    7.4108  -13.7786 H   0  0  0  0  0  0  0  0  0  0  0  0
    1.7999    8.9601  -11.1473 H   0  0  0  0  0  0  0  0  0  0  0  0
    2.3727    9.5107  -12.7277 H   0  0  0  0  0  0  0  0  0  0  0  0
    3.1149    8.0972  -11.9606 H   0  0  0  0  0  0  0  0  0  0  0  0
  1  2  2  0  0  0  0
  2  3  1  0  0  0  0
  3  4  2  0  0  0  0
  3  5  1  0  0  0  0
  5  6  2  0  0  0  0
  6  7  1  0  0  0  0
  7  8  2  0  0  0  0
  8  9  1  0  0  0  0
  8 10  1  0  0  0  0
 10 11  2  0  0  0  0
 11 12  1  0  0  0  0
 12 13  2  0  0  0  0
 13 14  1  0  0  0  0
 14 15  3  0  0  0  0
 13 16  1  0  0  0  0
 16 17  3  0  0  0  0
  1 18  1  0  0  0  0
 18 19  2  0  0  0  0
 19 20  1  0  0  0  0
 20 21  1  0  0  0  0
 21 22  1  0  0  0  0
 22 23  1  0  0  0  0
 20 24  2  0  0  0  0
 24 25  1  0  0  0  0
 24 26  1  0  0  0  0
 26 27  2  0  0  0  0
 27 28  1  0  0  0  0
 28 29  2  0  0  0  0
 29 30  1  0  0  0  0
 30 31  2  0  0  0  0
 31 32  1  0  0  0  0
 32 33  1  0  0  0  0
 33 34  1  0  0  0  0
 32 35  2  0  0  0  0
 27 36  1  0  0  0  0
 36 37  1  0  0  0  0
 37 38  1  0  0  0  0
 38 39  1  0  0  0  0
 39 40  1  0  0  0  0
 40 41  1  0  0  0  0
 41 42  2  0  0  0  0
 42 43  1  0  0  0  0
 43 44  1  0  0  0  0
 41 45  1  0  0  0  0
 45 46  1  0  0  0  0
 46 47  1  0  0  0  0
 47 48  1  0  0  0  0
 48 49  1  0  0  0  0
 49 50  1  0  0  0  0
 50 51  2  0  0  0  0
 51 52  1  0  0  0  0
 52 53  2  0  0  0  0
 53 54  1  0  0  0  0
 54 55  1  0  0  0  0
 55 56  1  0  0  0  0
 54 57  2  0  0  0  0
 49 58  2  0  0  0  0
 58 59  1  0  0  0  0
 59 60  1  0  0  0  0
 60 61  1  0  0  0  0
 61 62  1  0  0  0  0
 62 63  1  0  0  0  0
 63 64  1  0  0  0  0
 64 65  1  0  0  0  0
 65 66  1  0  0  0  0
 66 67  1  0  0  0  0
 67 68  1  0  0  0  0
 65 69  1  0  0  0  0
 69 70  1  0  0  0  0
 62 71  1  0  0  0  0
 71 72  1  0  0  0  0
 58 73  1  0  0  0  0
 73 74  2  0  0  0  0
 74 75  1  0  0  0  0
 74 76  1  0  0  0  0
 76 77  1  0  0  0  0
 76 78  2  0  0  0  0
 78 79  1  0  0  0  0
 79 80  2  0  0  0  0
 80 81  1  0  0  0  0
 81 82  1  0  0  0  0
 82 83  1  0  0  0  0
 83 84  1  0  0  0  0
 84 85  1  0  0  0  0
 85 86  1  0  0  0  0
 84 87  2  0  0  0  0
 87 88  1  0  0  0  0
 88 89  1  0  0  0  0
 87 90  1  0  0  0  0
 81 91  2  0  0  0  0
 91 92  1  0  0  0  0
 92 93  2  0  0  0  0
 91 94  1  0  0  0  0
 94 95  1  0  0  0  0
 95 96  1  0  0  0  0
 96 97  1  0  0  0  0
 97 98  1  0  0  0  0
 96 99  2  0  0  0  0
 99100  1  0  0  0  0
 99101  1  0  0  0  0
101102  1  0  0  0  0
 78103  1  0  0  0  0
103104  2  0  0  0  0
104105  1  0  0  0  0
105106  3  0  0  0  0
104107  1  0  0  0  0
107108  2  0  0  0  0
107109  1  0  0  0  0
109110  1  0  0  0  0
110111  1  0  0  0  0
 12  2  1  0  0  0  0
 25 18  1  0  0  0  0
 68 26  1  0  0  0  0
 93 73  1  0  0  0  0
101 94  2  0  0  0  0
 11  5  1  0  0  0  0
 35 28  1  0  0  0  0
 67 36  2  0  0  0  0
 93 79  1  0  0  0  0
 66 38  2  0  0  0  0
 88 82  2  0  0  0  0
 64 39  2  0  0  0  0
 44 40  2  0  0  0  0
 63 45  2  0  0  0  0
 61 46  2  0  0  0  0
 60 48  2  0  0  0  0
 57 50  1  0  0  0  0
  1112  1  0  0  0  0
  6113  1  0  0  0  0
  7114  1  0  0  0  0
 10115  1  0  0  0  0
 19116  1  0  0  0  0
 22117  1  0  0  0  0
 22118  1  0  0  0  0
 23119  1  0  0  0  0
 23120  1  0  0  0  0
 23121  1  0  0  0  0
 29122  1  0  0  0  0
 30123  1  0  0  0  0
 31124  1  0  0  0  0
 33125  1  0  0  0  0
 33126  1  0  0  0  0
 34127  1  0  0  0  0
 34128  1  0  0  0  0
 34129  1  0  0  0  0
 35130  1  0  0  0  0
 51131  1  0  0  0  0
 52132  1  0  0  0  0
 53133  1  0  0  0  0
 55134  1  0  0  0  0
 55135  1  0  0  0  0
 56136  1  0  0  0  0
 56137  1  0  0  0  0
 56138  1  0  0  0  0
 57139  1  0  0  0  0
 69140  1  0  0  0  0
 69141  1  0  0  0  0
 70142  1  0  0  0  0
 70143  1  0  0  0  0
 70144  1  0  0  0  0
 71145  1  0  0  0  0
 71146  1  0  0  0  0
 72147  1  0  0  0  0
 72148  1  0  0  0  0
 72149  1  0  0  0  0
 85150  1  0  0  0  0
 85151  1  0  0  0  0
 86152  1  0  0  0  0
 86153  1  0  0  0  0
 86154  1  0  0  0  0
 97155  1  0  0  0  0
 97156  1  0  0  0  0
 98157  1  0  0  0  0
 98158  1  0  0  0  0
 98159  1  0  0  0  0
103160  1  0  0  0  0
110161  1  0  0  0  0
110162  1  0  0  0  0
111163  1  0  0  0  0
111164  1  0  0  0  0
111165  1  0  0  0  0
M  END
