151

C          1.91390        6.67630       -9.51650
C          0.83710        6.11690      -10.16140
C         -0.23410        5.35190       -9.51770
O         -0.34740        5.08280       -8.33360
C         -1.16010        4.95960      -10.59480
C         -2.32990        4.22940      -10.51400
C         -3.03810        3.98170      -11.67940
C         -2.56330        4.46740      -12.89190
Cl        -3.45620        4.14940      -14.33040
C         -1.38590        5.20490      -12.98610
C         -0.67990        5.45090      -11.82160
C          0.57030        6.17690      -11.58250
C          1.32760        6.78350      -12.55190
C          2.53550        7.47950      -12.33880
N          3.52500        8.05740      -12.25320
C          1.00130        6.79210      -13.92460
N          0.79860        6.84060      -15.05340
C          2.25870        6.66370       -8.15990
C          3.42140        7.27270       -7.68750
C          3.62330        7.14650       -6.32100
S          5.05170        7.68570       -5.45210
C          6.33820        7.64270       -6.75580
C          6.58720        6.24460       -7.28550
C          2.57580        6.45400       -5.70090
S          1.37900        5.92960       -6.84300
C          2.42160        6.09940       -4.33420
C          2.78310        6.77930       -3.17970
C          3.24260        8.16420       -3.14130
C          4.22120        8.56680       -2.23570
C          4.64210        9.88190       -2.21880
C          4.09810       10.80410       -3.09650
C          3.10610       10.42570       -3.99150
C          2.54370       11.39670       -4.98940
C          3.21880       11.19900       -6.34820
C          2.67940        9.10760       -3.99690
C          2.52080        6.00360       -2.03290
S          2.76840        6.28830       -0.32590
C          2.07350        4.74000        0.01240
C          1.82730        3.89710        1.10870
C          2.18590        4.01060        2.47000
C          1.95480        2.89570        3.34430
N          2.40270        3.11370        4.57080
S          3.05320        4.59540        4.62350
N          2.79130        5.01580        3.08260
C          1.25240        1.77500        2.84960
C          0.76640        0.62610        3.49310
S          0.81910       -0.12010        5.05390
C         -0.24290       -1.37170        4.45790
C         -0.77380       -2.52110        5.06620
C         -0.45640       -2.89620        6.44990
C          0.24880       -4.06260        6.72680
C          0.56640       -4.37550        8.03410
C          0.19180       -3.53090        9.06340
C         -0.49820       -2.35490        8.80080
C         -0.84820       -1.40000        9.90520
C          0.25120       -0.34700       10.06110
C         -0.81140       -2.04330        7.48630
C         -1.59960       -3.21780        4.20110
S         -1.68100       -2.45660        2.60950
C         -0.61260       -1.19980        3.12030
C         -0.01640       -0.06420        2.56130
N         -0.00420        0.59650        1.36120
C          0.79220        1.71780        1.50390
C          1.20580        2.72480        0.59460
N          1.11580        2.84030       -0.78520
C          1.65590        4.05270       -1.12970
C          1.92170        4.76980       -2.30160
S          1.68590        4.53770       -3.99580
C          1.08530        1.79340       -1.78430
C          2.35830        0.95140       -1.73140
C         -0.99880        0.29090        0.35850
C         -0.64160       -0.95430       -0.45180
C         -2.39770       -4.36370        4.44350
C         -3.29810       -4.90590        3.53940
C         -3.96830       -6.01380        4.03930
S         -5.20080       -6.93930        3.22240
C         -5.16070       -6.29750        1.51180
C         -3.93680       -6.76640        0.74890
C         -3.57950       -6.35080        5.35570
S         -2.37880       -5.22080        5.95010
C         -4.07370       -7.46640        6.02600
C         -3.78060       -7.95400        7.28160
C         -2.87850       -7.32950        8.24860
O         -2.24430       -6.29370        8.12180
C         -2.87670       -8.20370        9.43430
C         -2.18310       -8.06140       10.60010
C         -2.32410       -9.04210       11.60780
C         -1.62750       -8.95190       12.82970
C         -1.76920       -9.91070       13.79440
C         -2.62440      -10.99350       13.55200
F         -2.75110      -11.92830       14.51320
C         -3.32420      -11.12850       12.38520
C         -3.18900      -10.15110       11.38050
C         -3.89730      -10.26770       10.16060
C         -3.74300       -9.30750        9.19780
C         -4.31690       -9.16560        7.85920
C         -5.19180      -10.05420        7.28330
C         -5.74070       -9.96390        5.98790
N         -6.23340       -9.98680        4.94970
C         -5.66980      -11.21560        7.92340
N         -6.10150      -12.17500        8.38480
H          2.62480        7.21620      -10.12980
H         -2.67590        3.86440       -9.55950
H         -3.95550        3.41520      -11.65560
H         -1.05520        5.56220      -13.94710
H          4.09180        7.78310       -8.35580
H          7.21980        8.02860       -6.24420
H          6.06050        8.34110       -7.54370
H          6.86790        5.57820       -6.47320
H          5.69680        5.84550       -7.76730
H          7.39410        6.26580       -8.01510
H          4.66600        7.84450       -1.56900
H          5.40720       10.18940       -1.52150
H          4.44340       11.82790       -3.08430
H          2.70710       12.42040       -4.64850
H          1.46840       11.23830       -5.09640
H          3.04150       10.19000       -6.71460
H          4.29290       11.34640       -6.25910
H          2.82860       11.90660       -7.07610
H          1.89000        8.80770       -4.67170
H          0.54980       -4.71270        5.91870
H          1.10850       -5.28370        8.24980
H          0.43940       -3.78440       10.08420
H         -1.79340       -0.90240        9.67920
H         -0.96460       -1.94420       10.84430
H         -0.00260        0.35450       10.85250
H          1.19760       -0.82260       10.30820
H          0.38010        0.20580        9.13330
H         -1.35120       -1.13340        7.26390
H          1.01240        2.28990       -2.75510
H          0.20860        1.16280       -1.66900
H          2.33210        0.18860       -2.50480
H          3.23090        1.57990       -1.89410
H          2.45970        0.47000       -0.76060
H         -1.94650        0.10640        0.87800
H         -1.13960        1.16880       -0.27330
H          0.35550       -0.88170       -0.87640
H         -0.67410       -1.83310        0.18630
H         -1.36030       -1.08860       -1.25570
H         -3.45050       -4.47760        2.56490
H         -5.24110       -5.21220        1.54970
H         -6.07100       -6.70130        1.06880
H         -3.02160       -6.41630        1.22110
H         -3.97000       -6.38570       -0.27010
H         -3.91110       -7.85280        0.71410
H         -4.78930       -8.03360        5.44140
H         -1.53300       -7.21230       10.75010
H         -0.97410       -8.10790       12.99300
H         -1.24250       -9.85730       14.73400
H         -3.97380      -11.97620       12.23270
H         -4.54260      -11.12000       10.02290
