160

C          5.51620        6.59880       -6.19240
C          6.09230        7.64740       -6.86180
C          7.43330        8.24370       -6.67010
O          8.33480        7.88050       -5.94050
C          7.47560        9.42440       -7.55280
C          8.49950       10.33820       -7.71800
C          8.31660       11.38490       -8.60650
C          7.11950       11.49520       -9.30550
Cl         6.90740       12.80530      -10.40350
C          6.08200       10.58100       -9.14850
C          6.26810        9.53440       -8.26100
C          5.39760        8.42280       -7.87740
C          4.17310        8.16480       -8.43580
C          3.32840        7.07070       -8.14810
N          2.57500        6.21700       -7.99500
C          3.57040        8.96630       -9.43010
N          3.01400        9.56490      -10.23610
C          6.02180        5.71050       -5.22610
C          7.26620        5.54730       -4.64310
C          7.33100        4.51360       -3.70680
C          8.49540        4.28500       -2.82310
O          8.36430        3.90220       -1.68240
C          9.84920        4.63070       -3.40200
C         10.29380        6.01020       -2.90720
C          6.11640        3.82800       -3.57980
S          4.90260        4.50730       -4.60320
C          5.81760        2.67980       -2.79720
C          6.62780        1.59920       -2.48330
C          7.97840        1.37640       -2.99440
C          8.28290        1.59750       -4.33570
C          9.56300        1.36170       -4.79750
C         10.54570        0.90890       -3.93340
C         10.25670        0.67720       -2.59480
C         11.29550        0.13290       -1.65810
C         11.13870       -1.38270       -1.51890
C          8.96760        0.90810       -2.13810
C          5.94480        0.67580       -1.67210
S          6.39720       -0.87330       -1.00200
C          4.80390       -1.03390       -0.34500
C          4.04840       -1.94560        0.41510
C          4.36610       -3.14930        1.08510
C          3.36320       -3.78870        1.89880
N          3.82810       -4.86280        2.51650
S          5.38090       -5.06290        2.10880
N          5.52690       -3.78350        1.12870
C          2.04480       -3.27770        1.90030
C          0.83420       -3.73290        2.45500
S          0.25250       -5.00040        3.48180
C         -1.37180       -4.38610        3.28320
C         -2.61850       -4.82120        3.76930
C         -2.75760       -6.03600        4.58020
C         -2.02750       -6.17400        5.75530
C         -2.15110       -7.32720        6.50900
C         -2.99070       -8.34530        6.09480
C         -3.71150       -8.23210        4.91090
C         -4.58390       -9.35780        4.43450
C         -3.75960      -10.37160        3.63880
C         -3.58050       -7.07580        4.15700
C         -3.64000       -3.98440        3.34600
S         -3.05820       -2.68660        2.31010
C         -1.43800       -3.25860        2.46050
C         -0.17760       -2.88880        1.98220
N          0.35230       -1.91990        1.16640
C          1.71910       -2.12910        1.13360
C          2.75040       -1.38310        0.52670
N          2.72760       -0.14180       -0.08150
C          3.97290        0.05790       -0.62470
C          4.62260        1.03220       -1.38740
S          4.19950        2.53150       -2.12590
C          1.90610        0.98840        0.30590
C          2.66370        1.93010        1.24170
C         -0.45450       -1.34290        0.10790
C         -1.00820       -2.42410       -0.81970
C         -5.02590       -3.99590        3.66700
C         -5.73840       -4.84270        4.48540
C         -7.11120       -4.55480        4.55020
C         -8.09440       -5.33830        5.32740
O         -9.28320       -5.11810        5.28260
C         -7.50870       -6.44110        6.18690
C         -8.58470       -7.15720        6.99130
C         -7.47030       -3.45930        3.76310
S         -6.06990       -2.78560        2.98010
C         -8.74430       -2.84980        3.65980
C         -9.19620       -2.00890        2.69400
C        -10.33440       -1.08780        2.97650
O        -11.12070       -1.16250        3.89070
C        -10.23630       -0.03220        1.94840
C        -10.98290        1.14170        1.87320
C        -10.64000        1.95760        0.82200
C         -9.61780        1.64150       -0.08430
C         -8.87750        0.48500       -0.02790
C         -9.22210       -0.36540        1.02540
C         -8.68850       -1.67740        1.37790
C         -8.05690       -2.53720        0.51880
C         -7.66090       -2.19690       -0.78960
N         -7.29750       -1.96920       -1.85470
C         -7.79590       -3.88970        0.82560
N         -7.59090       -5.00310        1.01630
C         -9.81100        2.91510       -0.86860
C        -10.55420        2.81900       -2.22360
C        -11.45660        1.61330       -2.13040
C        -12.43150        1.90290       -1.27900
C        -12.20640        3.30950       -0.78150
C        -11.58450        3.94400       -2.03580
C        -10.95720        3.26110        0.13350
H          4.47980        6.39930       -6.43760
H          9.41730       10.22860       -7.16140
H          9.09290       12.11720       -8.76200
H          5.17110       10.70710       -9.70920
H          8.08540        6.19970       -4.88130
H         10.55620        3.88060       -3.04160
H          9.82540        4.60400       -4.49050
H         10.26660        6.04080       -1.82060
H          9.64590        6.79280       -3.29390
H         11.30990        6.21110       -3.23730
H          7.51230        1.93050       -5.01570
H          9.79590        1.52810       -5.83900
H         11.54540        0.73100       -4.30300
H         11.18400        0.59760       -0.67660
H         12.29420        0.36120       -2.03520
H         11.25950       -1.86540       -2.48630
H         10.15070       -1.62770       -1.13600
H         11.88570       -1.78070       -0.83630
H          8.73450        0.75080       -1.09610
H         -1.37980       -5.37410        6.08080
H         -1.59030       -7.42990        7.42600
H         -3.08780       -9.24010        6.69230
H         -5.38130       -8.96700        3.79890
H         -5.04030       -9.85890        5.29100
H         -2.96310      -10.78120        4.25600
H         -4.39070      -11.18840        3.29730
H         -3.30930       -9.89410        2.77160
H         -4.12290       -6.97590        3.22710
H          1.60100        1.52780       -0.59670
H          1.02510        0.62260        0.83020
H          3.52610        2.36690        0.74660
H          2.00430        2.73390        1.55700
H          3.00330        1.39000        2.12300
H         -1.27930       -0.78590        0.56370
H          0.16010       -0.66790       -0.48370
H         -1.67260       -3.09740       -0.28590
H         -1.56780       -1.95810       -1.62570
H         -0.19340       -3.00390       -1.24830
H         -5.26980       -5.64650        5.01850
H         -6.99830       -7.14760        5.52750
H         -6.75900       -6.00660        6.85260
H         -8.14630       -7.95470        7.58570
H         -9.33040       -7.58140        6.32420
H         -9.08730       -6.45810        7.65490
H         -9.41820       -3.02590        4.49320
H        -11.75500        1.35490        2.59560
H         -8.08730        0.25180       -0.72290
H         -8.95300        3.58330       -0.91070
H         -9.90950        2.86990       -3.09680
H        -11.26590        0.68320       -2.63280
H        -13.21930        1.26260       -0.92780
H        -13.06730        3.80710       -0.34290
H        -11.13440        4.91870       -1.85150
H        -12.28700        4.01410       -2.86470
H        -10.85300        4.15930        0.73920
