
  xtb     02082207573D
 energy: -276.896770396179 gnorm: 0.000652959893 xtb: 6.4.1 (unknown)
160178  0     0  0            999 V2000
    5.5162    6.5988   -6.1924 C   0  0  0  0  0  0  0  0  0  0  0  0
    6.0923    7.6474   -6.8618 C   0  0  0  0  0  0  0  0  0  0  0  0
    7.4333    8.2437   -6.6701 C   0  0  0  0  0  0  0  0  0  0  0  0
    8.3348    7.8805   -5.9405 O   0  0  0  0  0  0  0  0  0  0  0  0
    7.4756    9.4244   -7.5528 C   0  0  0  0  0  0  0  0  0  0  0  0
    8.4995   10.3382   -7.7180 C   0  0  0  0  0  0  0  0  0  0  0  0
    8.3166   11.3849   -8.6065 C   0  0  0  0  0  0  0  0  0  0  0  0
    7.1195   11.4952   -9.3055 C   0  0  0  0  0  0  0  0  0  0  0  0
    6.9074   12.8053  -10.4035 Cl  0  0  0  0  0  0  0  0  0  0  0  0
    6.0820   10.5810   -9.1485 C   0  0  0  0  0  0  0  0  0  0  0  0
    6.2681    9.5344   -8.2610 C   0  0  0  0  0  0  0  0  0  0  0  0
    5.3976    8.4228   -7.8774 C   0  0  0  0  0  0  0  0  0  0  0  0
    4.1731    8.1648   -8.4358 C   0  0  0  0  0  0  0  0  0  0  0  0
    3.3284    7.0707   -8.1481 C   0  0  0  0  0  0  0  0  0  0  0  0
    2.5750    6.2170   -7.9950 N   0  0  0  0  0  0  0  0  0  0  0  0
    3.5704    8.9663   -9.4301 C   0  0  0  0  0  0  0  0  0  0  0  0
    3.0140    9.5649  -10.2361 N   0  0  0  0  0  0  0  0  0  0  0  0
    6.0218    5.7105   -5.2261 C   0  0  0  0  0  0  0  0  0  0  0  0
    7.2662    5.5473   -4.6431 C   0  0  0  0  0  0  0  0  0  0  0  0
    7.3310    4.5136   -3.7068 C   0  0  0  0  0  0  0  0  0  0  0  0
    8.4954    4.2850   -2.8231 C   0  0  0  0  0  0  0  0  0  0  0  0
    8.3643    3.9022   -1.6824 O   0  0  0  0  0  0  0  0  0  0  0  0
    9.8492    4.6307   -3.4020 C   0  0  0  0  0  0  0  0  0  0  0  0
   10.2938    6.0102   -2.9072 C   0  0  0  0  0  0  0  0  0  0  0  0
    6.1164    3.8280   -3.5798 C   0  0  0  0  0  0  0  0  0  0  0  0
    4.9026    4.5073   -4.6032 S   0  0  0  0  0  0  0  0  0  0  0  0
    5.8176    2.6798   -2.7972 C   0  0  0  0  0  0  0  0  0  0  0  0
    6.6278    1.5992   -2.4833 C   0  0  0  0  0  0  0  0  0  0  0  0
    7.9784    1.3764   -2.9944 C   0  0  0  0  0  0  0  0  0  0  0  0
    8.2829    1.5975   -4.3357 C   0  0  0  0  0  0  0  0  0  0  0  0
    9.5630    1.3617   -4.7975 C   0  0  0  0  0  0  0  0  0  0  0  0
   10.5457    0.9089   -3.9334 C   0  0  0  0  0  0  0  0  0  0  0  0
   10.2567    0.6772   -2.5948 C   0  0  0  0  0  0  0  0  0  0  0  0
   11.2955    0.1329   -1.6581 C   0  0  0  0  0  0  0  0  0  0  0  0
   11.1387   -1.3827   -1.5189 C   0  0  0  0  0  0  0  0  0  0  0  0
    8.9676    0.9081   -2.1381 C   0  0  0  0  0  0  0  0  0  0  0  0
    5.9448    0.6758   -1.6721 C   0  0  0  0  0  0  0  0  0  0  0  0
    6.3972   -0.8733   -1.0020 S   0  0  0  0  0  0  0  0  0  0  0  0
    4.8039   -1.0339   -0.3450 C   0  0  0  0  0  0  0  0  0  0  0  0
    4.0484   -1.9456    0.4151 C   0  0  0  0  0  0  0  0  0  0  0  0
    4.3661   -3.1493    1.0851 C   0  0  0  0  0  0  0  0  0  0  0  0
    3.3632   -3.7887    1.8988 C   0  0  0  0  0  0  0  0  0  0  0  0
    3.8281   -4.8628    2.5165 N   0  0  0  0  0  0  0  0  0  0  0  0
    5.3809   -5.0629    2.1088 S   0  0  0  0  0  0  0  0  0  0  0  0
    5.5269   -3.7835    1.1287 N   0  0  0  0  0  0  0  0  0  0  0  0
    2.0448   -3.2777    1.9003 C   0  0  0  0  0  0  0  0  0  0  0  0
    0.8342   -3.7329    2.4550 C   0  0  0  0  0  0  0  0  0  0  0  0
    0.2525   -5.0004    3.4818 S   0  0  0  0  0  0  0  0  0  0  0  0
   -1.3718   -4.3861    3.2832 C   0  0  0  0  0  0  0  0  0  0  0  0
   -2.6185   -4.8212    3.7693 C   0  0  0  0  0  0  0  0  0  0  0  0
   -2.7576   -6.0360    4.5802 C   0  0  0  0  0  0  0  0  0  0  0  0
   -2.0275   -6.1740    5.7553 C   0  0  0  0  0  0  0  0  0  0  0  0
   -2.1511   -7.3272    6.5090 C   0  0  0  0  0  0  0  0  0  0  0  0
   -2.9907   -8.3453    6.0948 C   0  0  0  0  0  0  0  0  0  0  0  0
   -3.7115   -8.2321    4.9109 C   0  0  0  0  0  0  0  0  0  0  0  0
   -4.5839   -9.3578    4.4345 C   0  0  0  0  0  0  0  0  0  0  0  0
   -3.7596  -10.3716    3.6388 C   0  0  0  0  0  0  0  0  0  0  0  0
   -3.5805   -7.0758    4.1570 C   0  0  0  0  0  0  0  0  0  0  0  0
   -3.6400   -3.9844    3.3460 C   0  0  0  0  0  0  0  0  0  0  0  0
   -3.0582   -2.6866    2.3101 S   0  0  0  0  0  0  0  0  0  0  0  0
   -1.4380   -3.2586    2.4605 C   0  0  0  0  0  0  0  0  0  0  0  0
   -0.1776   -2.8888    1.9822 C   0  0  0  0  0  0  0  0  0  0  0  0
    0.3523   -1.9199    1.1664 N   0  0  0  0  0  0  0  0  0  0  0  0
    1.7191   -2.1291    1.1336 C   0  0  0  0  0  0  0  0  0  0  0  0
    2.7504   -1.3831    0.5267 C   0  0  0  0  0  0  0  0  0  0  0  0
    2.7276   -0.1418   -0.0815 N   0  0  0  0  0  0  0  0  0  0  0  0
    3.9729    0.0579   -0.6247 C   0  0  0  0  0  0  0  0  0  0  0  0
    4.6226    1.0322   -1.3874 C   0  0  0  0  0  0  0  0  0  0  0  0
    4.1995    2.5315   -2.1259 S   0  0  0  0  0  0  0  0  0  0  0  0
    1.9061    0.9884    0.3059 C   0  0  0  0  0  0  0  0  0  0  0  0
    2.6637    1.9301    1.2417 C   0  0  0  0  0  0  0  0  0  0  0  0
   -0.4545   -1.3429    0.1079 C   0  0  0  0  0  0  0  0  0  0  0  0
   -1.0082   -2.4241   -0.8197 C   0  0  0  0  0  0  0  0  0  0  0  0
   -5.0259   -3.9959    3.6670 C   0  0  0  0  0  0  0  0  0  0  0  0
   -5.7384   -4.8427    4.4854 C   0  0  0  0  0  0  0  0  0  0  0  0
   -7.1112   -4.5548    4.5502 C   0  0  0  0  0  0  0  0  0  0  0  0
   -8.0944   -5.3383    5.3274 C   0  0  0  0  0  0  0  0  0  0  0  0
   -9.2832   -5.1181    5.2826 O   0  0  0  0  0  0  0  0  0  0  0  0
   -7.5087   -6.4411    6.1869 C   0  0  0  0  0  0  0  0  0  0  0  0
   -8.5847   -7.1572    6.9913 C   0  0  0  0  0  0  0  0  0  0  0  0
   -7.4703   -3.4593    3.7631 C   0  0  0  0  0  0  0  0  0  0  0  0
   -6.0699   -2.7856    2.9801 S   0  0  0  0  0  0  0  0  0  0  0  0
   -8.7443   -2.8498    3.6598 C   0  0  0  0  0  0  0  0  0  0  0  0
   -9.1962   -2.0089    2.6940 C   0  0  0  0  0  0  0  0  0  0  0  0
  -10.3344   -1.0878    2.9765 C   0  0  0  0  0  0  0  0  0  0  0  0
  -11.1207   -1.1625    3.8907 O   0  0  0  0  0  0  0  0  0  0  0  0
  -10.2363   -0.0322    1.9484 C   0  0  0  0  0  0  0  0  0  0  0  0
  -10.9829    1.1417    1.8732 C   0  0  0  0  0  0  0  0  0  0  0  0
  -10.6400    1.9576    0.8220 C   0  0  0  0  0  0  0  0  0  0  0  0
   -9.6178    1.6415   -0.0843 C   0  0  0  0  0  0  0  0  0  0  0  0
   -8.8775    0.4850   -0.0279 C   0  0  0  0  0  0  0  0  0  0  0  0
   -9.2221   -0.3654    1.0254 C   0  0  0  0  0  0  0  0  0  0  0  0
   -8.6885   -1.6774    1.3779 C   0  0  0  0  0  0  0  0  0  0  0  0
   -8.0569   -2.5372    0.5188 C   0  0  0  0  0  0  0  0  0  0  0  0
   -7.6609   -2.1969   -0.7896 C   0  0  0  0  0  0  0  0  0  0  0  0
   -7.2975   -1.9692   -1.8547 N   0  0  0  0  0  0  0  0  0  0  0  0
   -7.7959   -3.8897    0.8256 C   0  0  0  0  0  0  0  0  0  0  0  0
   -7.5909   -5.0031    1.0163 N   0  0  0  0  0  0  0  0  0  0  0  0
   -9.8110    2.9151   -0.8686 C   0  0  0  0  0  0  0  0  0  0  0  0
  -10.5542    2.8190   -2.2236 C   0  0  0  0  0  0  0  0  0  0  0  0
  -11.4566    1.6133   -2.1304 C   0  0  0  0  0  0  0  0  0  0  0  0
  -12.4315    1.9029   -1.2790 C   0  0  0  0  0  0  0  0  0  0  0  0
  -12.2064    3.3095   -0.7815 C   0  0  0  0  0  0  0  0  0  0  0  0
  -11.5845    3.9440   -2.0358 C   0  0  0  0  0  0  0  0  0  0  0  0
  -10.9572    3.2611    0.1335 C   0  0  0  0  0  0  0  0  0  0  0  0
    4.4798    6.3993   -6.4376 H   0  0  0  0  0  0  0  0  0  0  0  0
    9.4173   10.2286   -7.1614 H   0  0  0  0  0  0  0  0  0  0  0  0
    9.0929   12.1172   -8.7620 H   0  0  0  0  0  0  0  0  0  0  0  0
    5.1711   10.7071   -9.7092 H   0  0  0  0  0  0  0  0  0  0  0  0
    8.0854    6.1997   -4.8813 H   0  0  0  0  0  0  0  0  0  0  0  0
   10.5562    3.8806   -3.0416 H   0  0  0  0  0  0  0  0  0  0  0  0
    9.8254    4.6040   -4.4905 H   0  0  0  0  0  0  0  0  0  0  0  0
   10.2666    6.0408   -1.8206 H   0  0  0  0  0  0  0  0  0  0  0  0
    9.6459    6.7928   -3.2939 H   0  0  0  0  0  0  0  0  0  0  0  0
   11.3099    6.2111   -3.2373 H   0  0  0  0  0  0  0  0  0  0  0  0
    7.5123    1.9305   -5.0157 H   0  0  0  0  0  0  0  0  0  0  0  0
    9.7959    1.5281   -5.8390 H   0  0  0  0  0  0  0  0  0  0  0  0
   11.5454    0.7310   -4.3030 H   0  0  0  0  0  0  0  0  0  0  0  0
   11.1840    0.5976   -0.6766 H   0  0  0  0  0  0  0  0  0  0  0  0
   12.2942    0.3612   -2.0352 H   0  0  0  0  0  0  0  0  0  0  0  0
   11.2595   -1.8654   -2.4863 H   0  0  0  0  0  0  0  0  0  0  0  0
   10.1507   -1.6277   -1.1360 H   0  0  0  0  0  0  0  0  0  0  0  0
   11.8857   -1.7807   -0.8363 H   0  0  0  0  0  0  0  0  0  0  0  0
    8.7345    0.7508   -1.0961 H   0  0  0  0  0  0  0  0  0  0  0  0
   -1.3798   -5.3741    6.0808 H   0  0  0  0  0  0  0  0  0  0  0  0
   -1.5903   -7.4299    7.4260 H   0  0  0  0  0  0  0  0  0  0  0  0
   -3.0878   -9.2401    6.6923 H   0  0  0  0  0  0  0  0  0  0  0  0
   -5.3813   -8.9670    3.7989 H   0  0  0  0  0  0  0  0  0  0  0  0
   -5.0403   -9.8589    5.2910 H   0  0  0  0  0  0  0  0  0  0  0  0
   -2.9631  -10.7812    4.2560 H   0  0  0  0  0  0  0  0  0  0  0  0
   -4.3907  -11.1884    3.2973 H   0  0  0  0  0  0  0  0  0  0  0  0
   -3.3093   -9.8941    2.7716 H   0  0  0  0  0  0  0  0  0  0  0  0
   -4.1229   -6.9759    3.2271 H   0  0  0  0  0  0  0  0  0  0  0  0
    1.6010    1.5278   -0.5967 H   0  0  0  0  0  0  0  0  0  0  0  0
    1.0251    0.6226    0.8302 H   0  0  0  0  0  0  0  0  0  0  0  0
    3.5261    2.3669    0.7466 H   0  0  0  0  0  0  0  0  0  0  0  0
    2.0043    2.7339    1.5570 H   0  0  0  0  0  0  0  0  0  0  0  0
    3.0033    1.3900    2.1230 H   0  0  0  0  0  0  0  0  0  0  0  0
   -1.2793   -0.7859    0.5637 H   0  0  0  0  0  0  0  0  0  0  0  0
    0.1601   -0.6679   -0.4837 H   0  0  0  0  0  0  0  0  0  0  0  0
   -1.6726   -3.0974   -0.2859 H   0  0  0  0  0  0  0  0  0  0  0  0
   -1.5678   -1.9581   -1.6257 H   0  0  0  0  0  0  0  0  0  0  0  0
   -0.1934   -3.0039   -1.2483 H   0  0  0  0  0  0  0  0  0  0  0  0
   -5.2698   -5.6465    5.0185 H   0  0  0  0  0  0  0  0  0  0  0  0
   -6.9983   -7.1476    5.5275 H   0  0  0  0  0  0  0  0  0  0  0  0
   -6.7590   -6.0066    6.8526 H   0  0  0  0  0  0  0  0  0  0  0  0
   -8.1463   -7.9547    7.5857 H   0  0  0  0  0  0  0  0  0  0  0  0
   -9.3304   -7.5814    6.3242 H   0  0  0  0  0  0  0  0  0  0  0  0
   -9.0873   -6.4581    7.6549 H   0  0  0  0  0  0  0  0  0  0  0  0
   -9.4182   -3.0259    4.4932 H   0  0  0  0  0  0  0  0  0  0  0  0
  -11.7550    1.3549    2.5956 H   0  0  0  0  0  0  0  0  0  0  0  0
   -8.0873    0.2518   -0.7229 H   0  0  0  0  0  0  0  0  0  0  0  0
   -8.9530    3.5833   -0.9107 H   0  0  0  0  0  0  0  0  0  0  0  0
   -9.9095    2.8699   -3.0968 H   0  0  0  0  0  0  0  0  0  0  0  0
  -11.2659    0.6832   -2.6328 H   0  0  0  0  0  0  0  0  0  0  0  0
  -13.2193    1.2626   -0.9278 H   0  0  0  0  0  0  0  0  0  0  0  0
  -13.0673    3.8071   -0.3429 H   0  0  0  0  0  0  0  0  0  0  0  0
  -11.1344    4.9187   -1.8515 H   0  0  0  0  0  0  0  0  0  0  0  0
  -12.2870    4.0141   -2.8647 H   0  0  0  0  0  0  0  0  0  0  0  0
  -10.8530    4.1593    0.7392 H   0  0  0  0  0  0  0  0  0  0  0  0
  1  2  2  0  0  0  0
  2  3  1  0  0  0  0
  3  4  2  0  0  0  0
  3  5  1  0  0  0  0
  5  6  2  0  0  0  0
  6  7  1  0  0  0  0
  7  8  2  0  0  0  0
  8  9  1  0  0  0  0
  8 10  1  0  0  0  0
 10 11  2  0  0  0  0
 11 12  1  0  0  0  0
 12 13  2  0  0  0  0
 13 14  1  0  0  0  0
 14 15  3  0  0  0  0
 13 16  1  0  0  0  0
 16 17  3  0  0  0  0
  1 18  1  0  0  0  0
 18 19  2  0  0  0  0
 19 20  1  0  0  0  0
 20 21  1  0  0  0  0
 21 22  2  0  0  0  0
 21 23  1  0  0  0  0
 23 24  1  0  0  0  0
 20 25  2  0  0  0  0
 25 26  1  0  0  0  0
 25 27  1  0  0  0  0
 27 28  2  0  0  0  0
 28 29  1  0  0  0  0
 29 30  2  0  0  0  0
 30 31  1  0  0  0  0
 31 32  2  0  0  0  0
 32 33  1  0  0  0  0
 33 34  1  0  0  0  0
 34 35  1  0  0  0  0
 33 36  2  0  0  0  0
 28 37  1  0  0  0  0
 37 38  1  0  0  0  0
 38 39  1  0  0  0  0
 39 40  1  0  0  0  0
 40 41  1  0  0  0  0
 41 42  1  0  0  0  0
 42 43  2  0  0  0  0
 43 44  1  0  0  0  0
 44 45  1  0  0  0  0
 42 46  1  0  0  0  0
 46 47  1  0  0  0  0
 47 48  1  0  0  0  0
 48 49  1  0  0  0  0
 49 50  1  0  0  0  0
 50 51  1  0  0  0  0
 51 52  2  0  0  0  0
 52 53  1  0  0  0  0
 53 54  2  0  0  0  0
 54 55  1  0  0  0  0
 55 56  1  0  0  0  0
 56 57  1  0  0  0  0
 55 58  2  0  0  0  0
 50 59  2  0  0  0  0
 59 60  1  0  0  0  0
 60 61  1  0  0  0  0
 61 62  1  0  0  0  0
 62 63  1  0  0  0  0
 63 64  1  0  0  0  0
 64 65  1  0  0  0  0
 65 66  1  0  0  0  0
 66 67  1  0  0  0  0
 67 68  1  0  0  0  0
 68 69  1  0  0  0  0
 66 70  1  0  0  0  0
 70 71  1  0  0  0  0
 63 72  1  0  0  0  0
 72 73  1  0  0  0  0
 59 74  1  0  0  0  0
 74 75  2  0  0  0  0
 75 76  1  0  0  0  0
 76 77  1  0  0  0  0
 77 78  2  0  0  0  0
 77 79  1  0  0  0  0
 79 80  1  0  0  0  0
 76 81  2  0  0  0  0
 81 82  1  0  0  0  0
 81 83  1  0  0  0  0
 83 84  2  0  0  0  0
 84 85  1  0  0  0  0
 85 86  2  0  0  0  0
 85 87  1  0  0  0  0
 87 88  2  0  0  0  0
 88 89  1  0  0  0  0
 89 90  2  0  0  0  0
 90 91  1  0  0  0  0
 91 92  2  0  0  0  0
 92 93  1  0  0  0  0
 93 94  2  0  0  0  0
 94 95  1  0  0  0  0
 95 96  3  0  0  0  0
 94 97  1  0  0  0  0
 97 98  3  0  0  0  0
 90 99  1  0  0  0  0
 99100  1  0  0  0  0
100101  1  0  0  0  0
101102  2  0  0  0  0
102103  1  0  0  0  0
103104  1  0  0  0  0
103105  1  0  0  0  0
 12  2  1  0  0  0  0
 26 18  1  0  0  0  0
 69 27  1  0  0  0  0
 82 74  1  0  0  0  0
 93 84  1  0  0  0  0
105 99  1  0  0  0  0
 11  5  1  0  0  0  0
 36 29  1  0  0  0  0
 68 37  2  0  0  0  0
 92 87  1  0  0  0  0
104100  1  0  0  0  0
 67 39  2  0  0  0  0
105 89  1  0  0  0  0
 65 40  2  0  0  0  0
 45 41  2  0  0  0  0
 64 46  2  0  0  0  0
 62 47  2  0  0  0  0
 61 49  2  0  0  0  0
 58 51  1  0  0  0  0
  1106  1  0  0  0  0
  6107  1  0  0  0  0
  7108  1  0  0  0  0
 10109  1  0  0  0  0
 19110  1  0  0  0  0
 23111  1  0  0  0  0
 23112  1  0  0  0  0
 24113  1  0  0  0  0
 24114  1  0  0  0  0
 24115  1  0  0  0  0
 30116  1  0  0  0  0
 31117  1  0  0  0  0
 32118  1  0  0  0  0
 34119  1  0  0  0  0
 34120  1  0  0  0  0
 35121  1  0  0  0  0
 35122  1  0  0  0  0
 35123  1  0  0  0  0
 36124  1  0  0  0  0
 52125  1  0  0  0  0
 53126  1  0  0  0  0
 54127  1  0  0  0  0
 56128  1  0  0  0  0
 56129  1  0  0  0  0
 57130  1  0  0  0  0
 57131  1  0  0  0  0
 57132  1  0  0  0  0
 58133  1  0  0  0  0
 70134  1  0  0  0  0
 70135  1  0  0  0  0
 71136  1  0  0  0  0
 71137  1  0  0  0  0
 71138  1  0  0  0  0
 72139  1  0  0  0  0
 72140  1  0  0  0  0
 73141  1  0  0  0  0
 73142  1  0  0  0  0
 73143  1  0  0  0  0
 75144  1  0  0  0  0
 79145  1  0  0  0  0
 79146  1  0  0  0  0
 80147  1  0  0  0  0
 80148  1  0  0  0  0
 80149  1  0  0  0  0
 83150  1  0  0  0  0
 88151  1  0  0  0  0
 91152  1  0  0  0  0
 99153  1  0  0  0  0
100154  1  0  0  0  0
101155  1  0  0  0  0
102156  1  0  0  0  0
103157  1  0  0  0  0
104158  1  0  0  0  0
104159  1  0  0  0  0
105160  1  0  0  0  0
M  END
