
  xtb     02042218123D
 energy: -284.253699854565 gnorm: 0.000268493720 xtb: 6.4.1 (unknown)
161180  0     0  0            999 V2000
  -12.7828   -2.1951   -0.5060 C   0  0  0  0  0  0  0  0  0  0  0  0
  -14.0831   -2.4362   -0.8847 C   0  0  0  0  0  0  0  0  0  0  0  0
  -14.6135   -3.5273   -1.7254 C   0  0  0  0  0  0  0  0  0  0  0  0
  -14.0491   -4.5199   -2.1462 O   0  0  0  0  0  0  0  0  0  0  0  0
  -16.0249   -3.1810   -1.9864 C   0  0  0  0  0  0  0  0  0  0  0  0
  -16.9467   -3.8542   -2.7649 C   0  0  0  0  0  0  0  0  0  0  0  0
  -18.2246   -3.3313   -2.8805 C   0  0  0  0  0  0  0  0  0  0  0  0
  -18.5490   -2.1532   -2.2183 C   0  0  0  0  0  0  0  0  0  0  0  0
  -20.1409   -1.5126   -2.3793 Cl  0  0  0  0  0  0  0  0  0  0  0  0
  -17.6309   -1.4686   -1.4278 C   0  0  0  0  0  0  0  0  0  0  0  0
  -16.3554   -1.9946   -1.3131 C   0  0  0  0  0  0  0  0  0  0  0  0
  -15.1776   -1.5350   -0.5753 C   0  0  0  0  0  0  0  0  0  0  0  0
  -15.1674   -0.4677    0.2860 C   0  0  0  0  0  0  0  0  0  0  0  0
  -14.0824   -0.0392    1.0805 C   0  0  0  0  0  0  0  0  0  0  0  0
  -13.2712    0.3776    1.7794 N   0  0  0  0  0  0  0  0  0  0  0  0
  -16.2835    0.3593    0.5345 C   0  0  0  0  0  0  0  0  0  0  0  0
  -17.1437    1.0774    0.7851 N   0  0  0  0  0  0  0  0  0  0  0  0
  -11.5992   -2.9147   -0.7111 C   0  0  0  0  0  0  0  0  0  0  0  0
  -10.1136   -2.1090   -0.1571 S   0  0  0  0  0  0  0  0  0  0  0  0
   -9.1750   -3.4310   -0.7108 C   0  0  0  0  0  0  0  0  0  0  0  0
   -7.8611   -3.8674   -0.8191 C   0  0  0  0  0  0  0  0  0  0  0  0
   -7.8967   -5.1377   -1.4419 C   0  0  0  0  0  0  0  0  0  0  0  0
   -9.1897   -5.4763   -1.7276 N   0  0  0  0  0  0  0  0  0  0  0  0
   -9.6460   -6.7145   -2.3052 C   0  0  0  0  0  0  0  0  0  0  0  0
   -9.9316   -7.7615   -1.2311 C   0  0  0  0  0  0  0  0  0  0  0  0
   -9.9875   -4.4522   -1.2804 C   0  0  0  0  0  0  0  0  0  0  0  0
  -11.3404   -4.1596   -1.2764 C   0  0  0  0  0  0  0  0  0  0  0  0
   -6.6325   -5.6992   -1.6430 C   0  0  0  0  0  0  0  0  0  0  0  0
   -5.6300   -4.8602   -1.2019 C   0  0  0  0  0  0  0  0  0  0  0  0
   -6.2449   -3.3704   -0.4890 S   0  0  0  0  0  0  0  0  0  0  0  0
   -4.2177   -5.0214   -1.2718 C   0  0  0  0  0  0  0  0  0  0  0  0
   -3.4440   -5.8740   -2.0432 C   0  0  0  0  0  0  0  0  0  0  0  0
   -3.9317   -6.8259   -3.0454 C   0  0  0  0  0  0  0  0  0  0  0  0
   -3.4691   -8.1377   -3.0362 C   0  0  0  0  0  0  0  0  0  0  0  0
   -3.9115   -9.0305   -3.9951 C   0  0  0  0  0  0  0  0  0  0  0  0
   -4.8056   -8.6230   -4.9687 C   0  0  0  0  0  0  0  0  0  0  0  0
   -5.2635   -7.3107   -5.0035 C   0  0  0  0  0  0  0  0  0  0  0  0
   -6.1883   -6.8498   -6.0937 C   0  0  0  0  0  0  0  0  0  0  0  0
   -5.3857   -6.3791   -7.3080 C   0  0  0  0  0  0  0  0  0  0  0  0
   -4.8147   -6.4199   -4.0412 C   0  0  0  0  0  0  0  0  0  0  0  0
   -2.0698   -5.6647   -1.8120 C   0  0  0  0  0  0  0  0  0  0  0  0
   -0.6289   -6.3349   -2.5471 S   0  0  0  0  0  0  0  0  0  0  0  0
    0.3318   -5.2175   -1.6327 C   0  0  0  0  0  0  0  0  0  0  0  0
    1.6616   -4.7778   -1.5341 C   0  0  0  0  0  0  0  0  0  0  0  0
    2.8044   -5.1511   -2.2737 C   0  0  0  0  0  0  0  0  0  0  0  0
    4.0050   -4.3820   -2.1255 C   0  0  0  0  0  0  0  0  0  0  0  0
    4.9757   -4.7995   -2.9231 N   0  0  0  0  0  0  0  0  0  0  0  0
    4.4270   -6.0576   -3.7821 S   0  0  0  0  0  0  0  0  0  0  0  0
    2.9271   -6.1147   -3.1731 N   0  0  0  0  0  0  0  0  0  0  0  0
    4.0329   -3.3359   -1.1788 C   0  0  0  0  0  0  0  0  0  0  0  0
    5.0627   -2.4498   -0.8244 C   0  0  0  0  0  0  0  0  0  0  0  0
    6.6626   -2.0195   -1.3292 S   0  0  0  0  0  0  0  0  0  0  0  0
    6.6826   -0.7581   -0.1189 C   0  0  0  0  0  0  0  0  0  0  0  0
    7.6247    0.2408    0.2096 C   0  0  0  0  0  0  0  0  0  0  0  0
    8.9251    0.4008   -0.4397 C   0  0  0  0  0  0  0  0  0  0  0  0
    9.0403    0.2996   -1.8229 C   0  0  0  0  0  0  0  0  0  0  0  0
   10.2735    0.4671   -2.4232 C   0  0  0  0  0  0  0  0  0  0  0  0
   11.3941    0.7367   -1.6572 C   0  0  0  0  0  0  0  0  0  0  0  0
   11.3001    0.8250   -0.2739 C   0  0  0  0  0  0  0  0  0  0  0  0
   12.4969    1.1677    0.5652 C   0  0  0  0  0  0  0  0  0  0  0  0
   12.5092    2.6659    0.8761 C   0  0  0  0  0  0  0  0  0  0  0  0
   10.0624    0.6473    0.3234 C   0  0  0  0  0  0  0  0  0  0  0  0
    7.1686    1.0410    1.2394 C   0  0  0  0  0  0  0  0  0  0  0  0
    5.5954    0.5290    1.8406 S   0  0  0  0  0  0  0  0  0  0  0  0
    5.5190   -0.7207    0.6504 C   0  0  0  0  0  0  0  0  0  0  0  0
    4.5827   -1.6741    0.2311 C   0  0  0  0  0  0  0  0  0  0  0  0
    3.2990   -2.0367    0.5337 N   0  0  0  0  0  0  0  0  0  0  0  0
    2.9159   -3.0362   -0.3456 C   0  0  0  0  0  0  0  0  0  0  0  0
    1.6845   -3.7074   -0.5902 C   0  0  0  0  0  0  0  0  0  0  0  0
    0.3883   -3.5039   -0.1529 N   0  0  0  0  0  0  0  0  0  0  0  0
   -0.4208   -4.4056   -0.7840 C   0  0  0  0  0  0  0  0  0  0  0  0
   -1.7934   -4.6531   -0.8906 C   0  0  0  0  0  0  0  0  0  0  0  0
   -3.2436   -3.9694   -0.2549 S   0  0  0  0  0  0  0  0  0  0  0  0
   -0.2276   -2.5109    0.6933 C   0  0  0  0  0  0  0  0  0  0  0  0
   -0.5597   -3.0748    2.0749 C   0  0  0  0  0  0  0  0  0  0  0  0
    2.6837   -1.5071    1.7277 C   0  0  0  0  0  0  0  0  0  0  0  0
    2.1642   -0.0816    1.5263 C   0  0  0  0  0  0  0  0  0  0  0  0
    7.6726    2.2755    1.7453 C   0  0  0  0  0  0  0  0  0  0  0  0
    8.6006    3.3602    0.7161 S   0  0  0  0  0  0  0  0  0  0  0  0
    8.5165    4.5878    1.9299 C   0  0  0  0  0  0  0  0  0  0  0  0
    8.8523    5.9232    2.1494 C   0  0  0  0  0  0  0  0  0  0  0  0
    8.3639    6.2428    3.4457 C   0  0  0  0  0  0  0  0  0  0  0  0
    7.7816    5.1362    4.0142 N   0  0  0  0  0  0  0  0  0  0  0  0
    7.0637    5.0977    5.2616 C   0  0  0  0  0  0  0  0  0  0  0  0
    5.5925    5.4647    5.0762 C   0  0  0  0  0  0  0  0  0  0  0  0
    7.8348    4.1366    3.0811 C   0  0  0  0  0  0  0  0  0  0  0  0
    7.3514    2.8313    2.9654 C   0  0  0  0  0  0  0  0  0  0  0  0
    8.5554    7.5682    3.7833 C   0  0  0  0  0  0  0  0  0  0  0  0
    9.1667    8.2910    2.7534 C   0  0  0  0  0  0  0  0  0  0  0  0
    9.5496    7.2817    1.3564 S   0  0  0  0  0  0  0  0  0  0  0  0
    9.3677    9.6744    2.8614 C   0  0  0  0  0  0  0  0  0  0  0  0
    9.8156   10.5870    1.9422 C   0  0  0  0  0  0  0  0  0  0  0  0
   10.2165   10.2910    0.5647 C   0  0  0  0  0  0  0  0  0  0  0  0
   10.3719    9.1975    0.0513 O   0  0  0  0  0  0  0  0  0  0  0  0
   10.3804   11.5987   -0.1004 C   0  0  0  0  0  0  0  0  0  0  0  0
   10.6676   11.8558   -1.4248 C   0  0  0  0  0  0  0  0  0  0  0  0
   10.6851   13.1816   -1.8343 C   0  0  0  0  0  0  0  0  0  0  0  0
   10.3782   14.2035   -0.9531 C   0  0  0  0  0  0  0  0  0  0  0  0
   10.0727   13.9491    0.3887 C   0  0  0  0  0  0  0  0  0  0  0  0
    9.6765   14.8842    1.2708 O   0  0  0  0  0  0  0  0  0  0  0  0
    9.6871   16.2464    0.9114 C   0  0  0  0  0  0  0  0  0  0  0  0
   10.1302   12.6206    0.8300 C   0  0  0  0  0  0  0  0  0  0  0  0
    9.9086   12.0248    2.1430 C   0  0  0  0  0  0  0  0  0  0  0  0
    9.9164   12.6727    3.3519 C   0  0  0  0  0  0  0  0  0  0  0  0
    9.7078   12.0504    4.6016 C   0  0  0  0  0  0  0  0  0  0  0  0
    9.5377   11.6358    5.6602 N   0  0  0  0  0  0  0  0  0  0  0  0
   10.2354   14.0284    3.5866 C   0  0  0  0  0  0  0  0  0  0  0  0
   10.5430   15.0785    3.9357 N   0  0  0  0  0  0  0  0  0  0  0  0
  -12.6176   -1.2643    0.0240 H   0  0  0  0  0  0  0  0  0  0  0  0
  -16.6661   -4.7658   -3.2694 H   0  0  0  0  0  0  0  0  0  0  0  0
  -18.9705   -3.8276   -3.4808 H   0  0  0  0  0  0  0  0  0  0  0  0
  -17.9257   -0.5574   -0.9347 H   0  0  0  0  0  0  0  0  0  0  0  0
  -10.5543   -6.5073   -2.8768 H   0  0  0  0  0  0  0  0  0  0  0  0
   -8.8734   -7.0760   -2.9895 H   0  0  0  0  0  0  0  0  0  0  0  0
  -10.2716   -8.6839   -1.6930 H   0  0  0  0  0  0  0  0  0  0  0  0
  -10.7041   -7.4044   -0.5544 H   0  0  0  0  0  0  0  0  0  0  0  0
   -9.0323   -7.9684   -0.6555 H   0  0  0  0  0  0  0  0  0  0  0  0
  -12.1249   -4.7848   -1.6601 H   0  0  0  0  0  0  0  0  0  0  0  0
   -6.4425   -6.6622   -2.0782 H   0  0  0  0  0  0  0  0  0  0  0  0
   -2.7754   -8.4553   -2.2726 H   0  0  0  0  0  0  0  0  0  0  0  0
   -3.5559  -10.0500   -3.9821 H   0  0  0  0  0  0  0  0  0  0  0  0
   -5.1499   -9.3264   -5.7130 H   0  0  0  0  0  0  0  0  0  0  0  0
   -6.8456   -7.6691   -6.3928 H   0  0  0  0  0  0  0  0  0  0  0  0
   -6.8085   -6.0269   -5.7313 H   0  0  0  0  0  0  0  0  0  0  0  0
   -4.7696   -7.1892   -7.6912 H   0  0  0  0  0  0  0  0  0  0  0  0
   -4.7323   -5.5546   -7.0320 H   0  0  0  0  0  0  0  0  0  0  0  0
   -6.0530   -6.0449   -8.0989 H   0  0  0  0  0  0  0  0  0  0  0  0
   -5.1495   -5.3923   -4.0644 H   0  0  0  0  0  0  0  0  0  0  0  0
    8.1638    0.1084   -2.4229 H   0  0  0  0  0  0  0  0  0  0  0  0
   10.3600    0.3926   -3.4971 H   0  0  0  0  0  0  0  0  0  0  0  0
   12.3526    0.8757   -2.1360 H   0  0  0  0  0  0  0  0  0  0  0  0
   13.4128    0.9000    0.0352 H   0  0  0  0  0  0  0  0  0  0  0  0
   12.4667    0.6058    1.5014 H   0  0  0  0  0  0  0  0  0  0  0  0
   11.6102    2.9486    1.4191 H   0  0  0  0  0  0  0  0  0  0  0  0
   12.5429    3.2431   -0.0449 H   0  0  0  0  0  0  0  0  0  0  0  0
   13.3760    2.9230    1.4804 H   0  0  0  0  0  0  0  0  0  0  0  0
    9.9784    0.6931    1.4004 H   0  0  0  0  0  0  0  0  0  0  0  0
    0.4076   -1.6349    0.7571 H   0  0  0  0  0  0  0  0  0  0  0  0
   -1.1620   -2.2071    0.2090 H   0  0  0  0  0  0  0  0  0  0  0  0
   -1.3130   -3.8534    1.9876 H   0  0  0  0  0  0  0  0  0  0  0  0
    0.3185   -3.5085    2.5494 H   0  0  0  0  0  0  0  0  0  0  0  0
   -0.9521   -2.2866    2.7110 H   0  0  0  0  0  0  0  0  0  0  0  0
    3.4519   -1.4869    2.5089 H   0  0  0  0  0  0  0  0  0  0  0  0
    1.8994   -2.1830    2.0589 H   0  0  0  0  0  0  0  0  0  0  0  0
    2.9959    0.6119    1.4423 H   0  0  0  0  0  0  0  0  0  0  0  0
    1.5560    0.2138    2.3769 H   0  0  0  0  0  0  0  0  0  0  0  0
    1.5710    0.0049    0.6183 H   0  0  0  0  0  0  0  0  0  0  0  0
    7.1501    4.0888    5.6743 H   0  0  0  0  0  0  0  0  0  0  0  0
    7.5424    5.7976    5.9510 H   0  0  0  0  0  0  0  0  0  0  0  0
    5.1147    4.7701    4.3890 H   0  0  0  0  0  0  0  0  0  0  0  0
    5.5036    6.4694    4.6700 H   0  0  0  0  0  0  0  0  0  0  0  0
    5.0749    5.4260    6.0306 H   0  0  0  0  0  0  0  0  0  0  0  0
    6.7843    2.3045    3.7120 H   0  0  0  0  0  0  0  0  0  0  0  0
    8.2617    8.0311    4.7084 H   0  0  0  0  0  0  0  0  0  0  0  0
    9.0564   10.0683    3.8213 H   0  0  0  0  0  0  0  0  0  0  0  0
   10.8641   11.0446   -2.1071 H   0  0  0  0  0  0  0  0  0  0  0  0
   10.9174   13.4264   -2.8598 H   0  0  0  0  0  0  0  0  0  0  0  0
   10.3636   15.2183   -1.3181 H   0  0  0  0  0  0  0  0  0  0  0  0
    9.4257   16.7804    1.8231 H   0  0  0  0  0  0  0  0  0  0  0  0
    8.9486   16.4593    0.1322 H   0  0  0  0  0  0  0  0  0  0  0  0
   10.6793   16.5643    0.5803 H   0  0  0  0  0  0  0  0  0  0  0  0
  1  2  2  0  0  0  0
  2  3  1  0  0  0  0
  3  4  2  0  0  0  0
  3  5  1  0  0  0  0
  5  6  2  0  0  0  0
  6  7  1  0  0  0  0
  7  8  2  0  0  0  0
  8  9  1  0  0  0  0
  8 10  1  0  0  0  0
 10 11  2  0  0  0  0
 11 12  1  0  0  0  0
 12 13  2  0  0  0  0
 13 14  1  0  0  0  0
 14 15  3  0  0  0  0
 13 16  1  0  0  0  0
 16 17  3  0  0  0  0
  1 18  1  0  0  0  0
 18 19  1  0  0  0  0
 19 20  1  0  0  0  0
 20 21  1  0  0  0  0
 21 22  2  0  0  0  0
 22 23  1  0  0  0  0
 23 24  1  0  0  0  0
 24 25  1  0  0  0  0
 23 26  1  0  0  0  0
 26 27  1  0  0  0  0
 22 28  1  0  0  0  0
 28 29  2  0  0  0  0
 29 30  1  0  0  0  0
 29 31  1  0  0  0  0
 31 32  2  0  0  0  0
 32 33  1  0  0  0  0
 33 34  2  0  0  0  0
 34 35  1  0  0  0  0
 35 36  2  0  0  0  0
 36 37  1  0  0  0  0
 37 38  1  0  0  0  0
 38 39  1  0  0  0  0
 37 40  2  0  0  0  0
 32 41  1  0  0  0  0
 41 42  1  0  0  0  0
 42 43  1  0  0  0  0
 43 44  1  0  0  0  0
 44 45  1  0  0  0  0
 45 46  1  0  0  0  0
 46 47  2  0  0  0  0
 47 48  1  0  0  0  0
 48 49  1  0  0  0  0
 46 50  1  0  0  0  0
 50 51  1  0  0  0  0
 51 52  1  0  0  0  0
 52 53  1  0  0  0  0
 53 54  1  0  0  0  0
 54 55  1  0  0  0  0
 55 56  2  0  0  0  0
 56 57  1  0  0  0  0
 57 58  2  0  0  0  0
 58 59  1  0  0  0  0
 59 60  1  0  0  0  0
 60 61  1  0  0  0  0
 59 62  2  0  0  0  0
 54 63  2  0  0  0  0
 63 64  1  0  0  0  0
 64 65  1  0  0  0  0
 65 66  1  0  0  0  0
 66 67  1  0  0  0  0
 67 68  1  0  0  0  0
 68 69  1  0  0  0  0
 69 70  1  0  0  0  0
 70 71  1  0  0  0  0
 71 72  1  0  0  0  0
 72 73  1  0  0  0  0
 70 74  1  0  0  0  0
 74 75  1  0  0  0  0
 67 76  1  0  0  0  0
 76 77  1  0  0  0  0
 63 78  1  0  0  0  0
 78 79  1  0  0  0  0
 79 80  1  0  0  0  0
 80 81  1  0  0  0  0
 81 82  2  0  0  0  0
 82 83  1  0  0  0  0
 83 84  1  0  0  0  0
 84 85  1  0  0  0  0
 83 86  1  0  0  0  0
 86 87  1  0  0  0  0
 82 88  1  0  0  0  0
 88 89  2  0  0  0  0
 89 90  1  0  0  0  0
 89 91  1  0  0  0  0
 91 92  2  0  0  0  0
 92 93  1  0  0  0  0
 93 94  2  0  0  0  0
 93 95  1  0  0  0  0
 95 96  2  0  0  0  0
 96 97  1  0  0  0  0
 97 98  2  0  0  0  0
 98 99  1  0  0  0  0
 99100  1  0  0  0  0
100101  1  0  0  0  0
 99102  2  0  0  0  0
102103  1  0  0  0  0
103104  2  0  0  0  0
104105  1  0  0  0  0
105106  3  0  0  0  0
104107  1  0  0  0  0
107108  3  0  0  0  0
 12  2  1  0  0  0  0
 27 18  2  0  0  0  0
 73 31  1  0  0  0  0
 87 78  2  0  0  0  0
103 92  1  0  0  0  0
 11  5  1  0  0  0  0
 26 20  2  0  0  0  0
 40 33  1  0  0  0  0
 72 41  2  0  0  0  0
 86 80  2  0  0  0  0
102 95  1  0  0  0  0
 30 21  1  0  0  0  0
 71 43  2  0  0  0  0
 90 81  1  0  0  0  0
 69 44  2  0  0  0  0
 49 45  2  0  0  0  0
 68 50  2  0  0  0  0
 66 51  2  0  0  0  0
 65 53  2  0  0  0  0
 62 55  1  0  0  0  0
  1109  1  0  0  0  0
  6110  1  0  0  0  0
  7111  1  0  0  0  0
 10112  1  0  0  0  0
 24113  1  0  0  0  0
 24114  1  0  0  0  0
 25115  1  0  0  0  0
 25116  1  0  0  0  0
 25117  1  0  0  0  0
 27118  1  0  0  0  0
 28119  1  0  0  0  0
 34120  1  0  0  0  0
 35121  1  0  0  0  0
 36122  1  0  0  0  0
 38123  1  0  0  0  0
 38124  1  0  0  0  0
 39125  1  0  0  0  0
 39126  1  0  0  0  0
 39127  1  0  0  0  0
 40128  1  0  0  0  0
 56129  1  0  0  0  0
 57130  1  0  0  0  0
 58131  1  0  0  0  0
 60132  1  0  0  0  0
 60133  1  0  0  0  0
 61134  1  0  0  0  0
 61135  1  0  0  0  0
 61136  1  0  0  0  0
 62137  1  0  0  0  0
 74138  1  0  0  0  0
 74139  1  0  0  0  0
 75140  1  0  0  0  0
 75141  1  0  0  0  0
 75142  1  0  0  0  0
 76143  1  0  0  0  0
 76144  1  0  0  0  0
 77145  1  0  0  0  0
 77146  1  0  0  0  0
 77147  1  0  0  0  0
 84148  1  0  0  0  0
 84149  1  0  0  0  0
 85150  1  0  0  0  0
 85151  1  0  0  0  0
 85152  1  0  0  0  0
 87153  1  0  0  0  0
 88154  1  0  0  0  0
 91155  1  0  0  0  0
 96156  1  0  0  0  0
 97157  1  0  0  0  0
 98158  1  0  0  0  0
101159  1  0  0  0  0
101160  1  0  0  0  0
101161  1  0  0  0  0
M  END
