165

C        -10.31090        0.26970      -10.27550
C        -11.52040        0.43660       -9.64110
C        -11.73610        0.43480       -8.19120
O        -10.90660        0.27940       -7.31260
C        -13.18030        0.66290       -7.99410
C        -13.89280        0.75210       -6.81430
C        -15.25910        0.97640       -6.88090
C        -15.87660        1.10570       -8.11900
Cl       -17.57580        1.38590       -8.18300
C        -15.16940        1.01690       -9.31480
C        -13.80540        0.79230       -9.24600
C        -12.79210        0.64960      -10.29540
C        -13.04450        0.70740      -11.64340
C        -14.32180        0.91770      -12.20360
N        -15.32780        1.08380      -12.73180
C        -12.08960        0.56530      -12.67080
N        -11.38160        0.46020      -13.57030
C         -9.02880        0.05850       -9.76110
S         -8.59140       -0.06790       -8.05430
C         -6.94800       -0.31170       -8.49660
C         -5.69440       -0.54150       -7.93760
C         -4.77390       -0.65020       -9.00500
N         -5.42150       -0.47510      -10.19740
C         -4.83370       -0.62850      -11.50310
C         -4.68320       -2.10060      -11.88150
C         -6.75130       -0.28930       -9.90760
C         -7.92050       -0.08260      -10.60860
C         -3.46300       -0.89910       -8.59620
C         -3.37330       -0.99660       -7.22240
S         -4.91520       -0.74820       -6.41260
C         -2.21370       -1.26130       -6.44050
C         -1.02370       -1.85920       -6.82040
C         -0.75630       -2.49100       -8.11520
C         -1.65520       -3.40590       -8.65890
C         -1.37370       -4.01150       -9.86800
C         -0.20000       -3.71640      -10.54120
C          0.71590       -2.82120      -10.00410
C          1.97540       -2.47240      -10.74330
C          1.74500       -1.26050      -11.64860
C          0.42760       -2.21580       -8.78930
C         -0.09450       -1.85940       -5.76210
S          1.53750       -2.47060       -5.62510
C          1.56330       -1.96240       -3.97000
C          2.45400       -1.91130       -2.88580
C          3.82390       -2.23790       -2.79010
C          4.52630       -1.93120       -1.57630
N          5.81400       -2.22990       -1.64860
S          6.11580       -2.84990       -3.11290
N          4.61500       -2.75830       -3.71540
C          3.80140       -1.42450       -0.47590
C          4.19380       -1.15560        0.84630
S          5.62110       -1.17450        1.82590
C          4.65570       -0.70120        3.20450
C          4.96320       -0.47100        4.56180
C          6.26530       -0.72950        5.17160
C          7.44530       -0.40520        4.50730
C          8.66400       -0.70740        5.08430
C          8.71990       -1.33330        6.31950
C          7.55240       -1.67240        6.99310
C          7.58990       -2.33780        8.33920
C          7.14400       -1.38150        9.44660
C          6.33290       -1.36870        6.40630
C          3.83730       -0.10890        5.27260
S          2.38460       -0.11860        4.30120
C          3.30170       -0.54590        2.90070
C          3.04050       -0.80340        1.54830
N          1.95230       -0.81170        0.71320
C          2.40030       -1.18550       -0.54690
C          1.74950       -1.31520       -1.80120
N          0.48510       -0.97050       -2.24220
C          0.37220       -1.36710       -3.54780
C         -0.57570       -1.29960       -4.57610
S         -2.19510       -0.72980       -4.76700
C         -0.47950       -0.04760       -1.69040
C         -1.75550       -0.75220       -1.23160
C          0.64720       -0.99840        1.31110
C          0.31590       -2.48350        1.44350
C          3.73670        0.30680        6.65340
C          4.59470        1.28830        7.17650
O          5.46130        1.79840        6.27790
C          6.55040        2.65160        6.60090
C          7.61160        2.00170        7.47620
C          4.44200        1.68820        8.52480
O          5.18570        2.72530        9.04080
C          4.48970        3.97260        9.09970
C          5.29190        4.92420        9.96850
C          3.58100        1.00110        9.38650
C          2.64910        0.07470        8.84330
C          2.71490       -0.24540        7.46320
N          1.84800       -1.12580        6.92880
C          0.93910       -1.64130        7.71140
C          0.82240       -1.25720        9.05900
N          1.66080       -0.41820        9.60740
C          3.57550        1.27400       10.79490
C          3.33510        0.32860       11.74020
C          3.37280       -1.14210       11.50560
O          3.82810       -1.73270       10.55060
C          2.89980       -1.74730       12.76600
C          2.66540       -3.07860       13.05420
C          2.23210       -3.41730       14.32570
C          2.05530       -2.42390       15.28310
Cl         1.51830       -2.86510       16.85930
C          2.30010       -1.08190       15.01100
C          2.72590       -0.74490       13.73620
C          3.05450        0.55230       13.14620
C          3.06360        1.74960       13.81080
C          3.39900        2.99500       13.23970
N          3.66350        4.04370       12.85260
C          2.75940        1.90360       15.18050
N          2.52380        2.10310       16.28600
H        -10.32850        0.30540      -11.35810
H        -13.38700        0.64820       -5.86690
H        -15.84880        1.05220       -5.98110
H        -15.68980        1.12360      -10.25200
H         -3.85320       -0.14290      -11.49870
H         -5.47360       -0.11510      -12.22420
H         -5.65400       -2.59080      -11.88210
H         -4.24700       -2.18700      -12.87260
H         -4.03620       -2.60780      -11.16920
H         -8.01430       -0.03280      -11.67880
H         -2.61500       -0.99510       -9.24760
H         -2.56380       -3.64360       -8.12570
H         -2.07000       -4.72410      -10.28640
H          0.01190       -4.19410      -11.48680
H          2.76940       -2.24420      -10.03010
H          2.29420       -3.32070      -11.35170
H          2.65710       -1.00660      -12.18330
H          1.43820       -0.39960      -11.05840
H          0.96440       -1.47330      -12.37600
H          1.12940       -1.51370       -8.36280
H          7.40390        0.09060        3.54970
H          9.57880       -0.45350        4.56910
H          9.67850       -1.56570        6.76120
H          6.92420       -3.20400        8.33470
H          8.60300       -2.68760        8.54800
H          7.77550       -0.49560        9.46200
H          6.11200       -1.07320        9.29630
H          7.21130       -1.87230       10.41480
H          5.42010       -1.65560        6.90820
H         -0.00560        0.51810       -0.88730
H         -0.74270        0.66510       -2.48060
H         -1.53760       -1.56370       -0.54300
H         -2.41520       -0.03970       -0.74390
H         -2.27760       -1.16760       -2.08930
H          0.69150       -0.54200        2.30320
H         -0.12560       -0.48920        0.74410
H          1.05960       -2.97980        2.06260
H         -0.65920       -2.60700        1.90690
H          0.30780       -2.96250        0.46620
H          6.97100        2.87920        5.61650
H          6.20030        3.58430        7.05140
H          8.46200        2.67380        7.55500
H          7.93930        1.06550        7.03430
H          7.22400        1.81230        8.47280
H          4.38190        4.37510        8.08010
H          3.48150        3.83250        9.50880
H          6.31480        4.98470        9.60630
H          4.84030        5.91120        9.93800
H          5.30250        4.57710       10.99790
H          0.26390       -2.35820        7.26480
H          0.02570       -1.62770        9.68960
H          3.77120        2.29030       11.10290
H          2.81460       -3.83030       12.29470
H          2.03030       -4.44510       14.58310
H          2.15530       -0.34450       15.78300
