
  xtb     02052204183D
 energy: -281.068616056563 gnorm: 0.000196091841 xtb: 6.4.1 (unknown)
157176  0     0  0            999 V2000
   -0.7489   -3.3669   12.3690 C   0  0  0  0  0  0  0  0  0  0  0  0
   -1.0561   -2.3199   13.2072 C   0  0  0  0  0  0  0  0  0  0  0  0
   -2.0011   -1.2061   12.9901 C   0  0  0  0  0  0  0  0  0  0  0  0
   -2.8475   -1.0679   12.1266 O   0  0  0  0  0  0  0  0  0  0  0  0
   -1.7219   -0.2302   14.0622 C   0  0  0  0  0  0  0  0  0  0  0  0
   -2.2888    1.0139   14.2624 C   0  0  0  0  0  0  0  0  0  0  0  0
   -1.8534    1.7758   15.3347 C   0  0  0  0  0  0  0  0  0  0  0  0
   -0.8666    1.2781   16.1775 C   0  0  0  0  0  0  0  0  0  0  0  0
   -0.3295    2.2439   17.5000 Cl  0  0  0  0  0  0  0  0  0  0  0  0
   -0.2930    0.0240   15.9902 C   0  0  0  0  0  0  0  0  0  0  0  0
   -0.7314   -0.7353   14.9188 C   0  0  0  0  0  0  0  0  0  0  0  0
   -0.3457   -2.0662   14.4474 C   0  0  0  0  0  0  0  0  0  0  0  0
    0.4965   -2.9163   15.1166 C   0  0  0  0  0  0  0  0  0  0  0  0
    1.1503   -2.5919   16.3242 C   0  0  0  0  0  0  0  0  0  0  0  0
    1.7192   -2.3965   17.3022 N   0  0  0  0  0  0  0  0  0  0  0  0
    0.8127   -4.2407   14.7450 C   0  0  0  0  0  0  0  0  0  0  0  0
    1.1120   -5.3307   14.5397 N   0  0  0  0  0  0  0  0  0  0  0  0
   -1.2686   -3.7417   11.1235 C   0  0  0  0  0  0  0  0  0  0  0  0
   -0.3742   -5.0138   10.2583 S   0  0  0  0  0  0  0  0  0  0  0  0
   -1.4232   -4.8564    8.9101 C   0  0  0  0  0  0  0  0  0  0  0  0
   -1.6082   -5.3050    7.6068 C   0  0  0  0  0  0  0  0  0  0  0  0
   -2.7266   -4.6076    7.0912 C   0  0  0  0  0  0  0  0  0  0  0  0
   -3.2245   -3.7564    8.0355 N   0  0  0  0  0  0  0  0  0  0  0  0
   -4.3860   -2.9140    7.9114 C   0  0  0  0  0  0  0  0  0  0  0  0
   -5.6565   -3.6465    8.3369 C   0  0  0  0  0  0  0  0  0  0  0  0
   -2.4406   -3.8901    9.1531 C   0  0  0  0  0  0  0  0  0  0  0  0
   -2.3538   -3.2755   10.3895 C   0  0  0  0  0  0  0  0  0  0  0  0
   -2.9786   -4.8829    5.7470 C   0  0  0  0  0  0  0  0  0  0  0  0
   -2.0647   -5.7769    5.2252 C   0  0  0  0  0  0  0  0  0  0  0  0
   -0.8946   -6.3372    6.4153 S   0  0  0  0  0  0  0  0  0  0  0  0
   -1.9081   -6.0663    3.8416 C   0  0  0  0  0  0  0  0  0  0  0  0
   -1.0702   -6.9640    3.2026 C   0  0  0  0  0  0  0  0  0  0  0  0
   -0.3853   -8.0768    3.8598 C   0  0  0  0  0  0  0  0  0  0  0  0
   -1.0815   -8.9135    4.7295 C   0  0  0  0  0  0  0  0  0  0  0  0
   -0.4363   -9.9831    5.3185 C   0  0  0  0  0  0  0  0  0  0  0  0
    0.8984  -10.2282    5.0465 C   0  0  0  0  0  0  0  0  0  0  0  0
    1.6044   -9.4110    4.1725 C   0  0  0  0  0  0  0  0  0  0  0  0
    3.0617   -9.6504    3.9038 C   0  0  0  0  0  0  0  0  0  0  0  0
    3.9206   -8.8748    4.9047 C   0  0  0  0  0  0  0  0  0  0  0  0
    0.9520   -8.3385    3.5840 C   0  0  0  0  0  0  0  0  0  0  0  0
   -0.9757   -6.6853    1.8227 C   0  0  0  0  0  0  0  0  0  0  0  0
    0.0097   -7.3439    0.5348 S   0  0  0  0  0  0  0  0  0  0  0  0
   -0.5917   -6.1161   -0.5315 C   0  0  0  0  0  0  0  0  0  0  0  0
   -0.3578   -5.6021   -1.8198 C   0  0  0  0  0  0  0  0  0  0  0  0
    0.4762   -6.0445   -2.8697 C   0  0  0  0  0  0  0  0  0  0  0  0
    0.5716   -5.2555   -4.0658 C   0  0  0  0  0  0  0  0  0  0  0  0
    1.3757   -5.7985   -4.9661 N   0  0  0  0  0  0  0  0  0  0  0  0
    1.9622   -7.1819   -4.3638 S   0  0  0  0  0  0  0  0  0  0  0  0
    1.2177   -7.1397   -2.9270 N   0  0  0  0  0  0  0  0  0  0  0  0
   -0.0967   -4.0123   -4.1197 C   0  0  0  0  0  0  0  0  0  0  0  0
    0.0163   -2.9398   -5.0210 C   0  0  0  0  0  0  0  0  0  0  0  0
    0.8978   -2.5012   -6.4486 S   0  0  0  0  0  0  0  0  0  0  0  0
    0.2996   -0.8639   -6.2934 C   0  0  0  0  0  0  0  0  0  0  0  0
    0.5604    0.3268   -7.0039 C   0  0  0  0  0  0  0  0  0  0  0  0
    1.4071    0.3941   -8.1956 C   0  0  0  0  0  0  0  0  0  0  0  0
    0.9567    1.0385   -9.3452 C   0  0  0  0  0  0  0  0  0  0  0  0
    1.7553    1.0710  -10.4717 C   0  0  0  0  0  0  0  0  0  0  0  0
    3.0003    0.4665  -10.4618 C   0  0  0  0  0  0  0  0  0  0  0  0
    3.4595   -0.1906   -9.3273 C   0  0  0  0  0  0  0  0  0  0  0  0
    4.8258   -0.8115   -9.2971 C   0  0  0  0  0  0  0  0  0  0  0  0
    5.8560    0.1997   -8.7899 C   0  0  0  0  0  0  0  0  0  0  0  0
    2.6526   -0.2232   -8.2002 C   0  0  0  0  0  0  0  0  0  0  0  0
   -0.0999    1.4044   -6.4421 C   0  0  0  0  0  0  0  0  0  0  0  0
   -1.1021    0.9318   -5.0703 S   0  0  0  0  0  0  0  0  0  0  0  0
   -0.5702   -0.7035   -5.2146 C   0  0  0  0  0  0  0  0  0  0  0  0
   -0.7326   -1.8880   -4.4889 C   0  0  0  0  0  0  0  0  0  0  0  0
   -1.3402   -2.2779   -3.3280 N   0  0  0  0  0  0  0  0  0  0  0  0
   -0.9452   -3.5778   -3.0619 C   0  0  0  0  0  0  0  0  0  0  0  0
   -1.1549   -4.4298   -1.9474 C   0  0  0  0  0  0  0  0  0  0  0  0
   -1.9099   -4.2830   -0.7917 N   0  0  0  0  0  0  0  0  0  0  0  0
   -1.5409   -5.2853    0.0654 C   0  0  0  0  0  0  0  0  0  0  0  0
   -1.7624   -5.6108    1.4063 C   0  0  0  0  0  0  0  0  0  0  0  0
   -2.6586   -4.9336    2.7159 S   0  0  0  0  0  0  0  0  0  0  0  0
   -3.1834   -3.6236   -0.5910 C   0  0  0  0  0  0  0  0  0  0  0  0
   -4.1715   -3.9614   -1.7038 C   0  0  0  0  0  0  0  0  0  0  0  0
   -1.9292   -1.2804   -2.4663 C   0  0  0  0  0  0  0  0  0  0  0  0
   -1.0227   -0.9532   -1.2820 C   0  0  0  0  0  0  0  0  0  0  0  0
    0.0404    2.8018   -6.6671 C   0  0  0  0  0  0  0  0  0  0  0  0
    1.4396    3.4691   -7.4999 S   0  0  0  0  0  0  0  0  0  0  0  0
    0.9419    5.0678   -7.0620 C   0  0  0  0  0  0  0  0  0  0  0  0
    1.3530    6.3952   -7.1281 C   0  0  0  0  0  0  0  0  0  0  0  0
    0.3672    7.1576   -6.4389 C   0  0  0  0  0  0  0  0  0  0  0  0
   -0.6322    6.3278   -5.9976 N   0  0  0  0  0  0  0  0  0  0  0  0
   -1.7359    6.7134   -5.1559 C   0  0  0  0  0  0  0  0  0  0  0  0
   -1.3393    6.7234   -3.6813 C   0  0  0  0  0  0  0  0  0  0  0  0
   -0.2754    5.0552   -6.3403 C   0  0  0  0  0  0  0  0  0  0  0  0
   -0.7759    3.7721   -6.1207 C   0  0  0  0  0  0  0  0  0  0  0  0
    0.6575    8.5064   -6.3442 C   0  0  0  0  0  0  0  0  0  0  0  0
    1.8700    8.8181   -6.9498 C   0  0  0  0  0  0  0  0  0  0  0  0
    2.6342    7.3900   -7.6869 S   0  0  0  0  0  0  0  0  0  0  0  0
    2.5779   10.0212   -7.0613 C   0  0  0  0  0  0  0  0  0  0  0  0
    2.3734   11.2558   -6.4885 C   0  0  0  0  0  0  0  0  0  0  0  0
    1.3831   11.6486   -5.4660 C   0  0  0  0  0  0  0  0  0  0  0  0
    0.4371   11.0225   -5.0252 O   0  0  0  0  0  0  0  0  0  0  0  0
    1.7699   13.0063   -5.0343 C   0  0  0  0  0  0  0  0  0  0  0  0
    1.1934   13.7947   -4.0570 C   0  0  0  0  0  0  0  0  0  0  0  0
    1.7375   15.0442   -3.8072 C   0  0  0  0  0  0  0  0  0  0  0  0
    2.8404   15.4731   -4.5363 C   0  0  0  0  0  0  0  0  0  0  0  0
    3.5097   17.0265   -4.2062 Cl  0  0  0  0  0  0  0  0  0  0  0  0
    3.4268   14.6900   -5.5262 C   0  0  0  0  0  0  0  0  0  0  0  0
    2.8791   13.4430   -5.7750 C   0  0  0  0  0  0  0  0  0  0  0  0
    3.2421   12.3935   -6.7287 C   0  0  0  0  0  0  0  0  0  0  0  0
    4.1983   12.5238   -7.7028 C   0  0  0  0  0  0  0  0  0  0  0  0
    4.5101   11.5750   -8.7002 C   0  0  0  0  0  0  0  0  0  0  0  0
    4.8210   10.8804   -9.5608 N   0  0  0  0  0  0  0  0  0  0  0  0
    5.0007   13.6718   -7.8740 C   0  0  0  0  0  0  0  0  0  0  0  0
    5.6918   14.5673   -8.0704 N   0  0  0  0  0  0  0  0  0  0  0  0
    0.0795   -3.9909   12.6838 H   0  0  0  0  0  0  0  0  0  0  0  0
   -3.0513    1.3760   13.5903 H   0  0  0  0  0  0  0  0  0  0  0  0
   -2.2701    2.7529   15.5212 H   0  0  0  0  0  0  0  0  0  0  0  0
    0.4710   -0.3204   16.6670 H   0  0  0  0  0  0  0  0  0  0  0  0
   -4.4660   -2.5934    6.8692 H   0  0  0  0  0  0  0  0  0  0  0  0
   -4.2337   -2.0325    8.5393 H   0  0  0  0  0  0  0  0  0  0  0  0
   -5.5807   -3.9573    9.3760 H   0  0  0  0  0  0  0  0  0  0  0  0
   -6.5165   -2.9915    8.2308 H   0  0  0  0  0  0  0  0  0  0  0  0
   -5.8095   -4.5292    7.7202 H   0  0  0  0  0  0  0  0  0  0  0  0
   -3.0107   -2.5128   10.7630 H   0  0  0  0  0  0  0  0  0  0  0  0
   -3.7631   -4.4443    5.1567 H   0  0  0  0  0  0  0  0  0  0  0  0
   -2.1283   -8.7311    4.9248 H   0  0  0  0  0  0  0  0  0  0  0  0
   -0.9782  -10.6324    5.9900 H   0  0  0  0  0  0  0  0  0  0  0  0
    1.3962  -11.0670    5.5110 H   0  0  0  0  0  0  0  0  0  0  0  0
    3.3080   -9.3282    2.8903 H   0  0  0  0  0  0  0  0  0  0  0  0
    3.2836  -10.7159    3.9882 H   0  0  0  0  0  0  0  0  0  0  0  0
    3.6960   -9.1906    5.9210 H   0  0  0  0  0  0  0  0  0  0  0  0
    4.9769   -9.0465    4.7123 H   0  0  0  0  0  0  0  0  0  0  0  0
    3.7214   -7.8083    4.8275 H   0  0  0  0  0  0  0  0  0  0  0  0
    1.4929   -7.6899    2.9103 H   0  0  0  0  0  0  0  0  0  0  0  0
   -0.0223    1.4950   -9.3549 H   0  0  0  0  0  0  0  0  0  0  0  0
    1.4039    1.5679  -11.3638 H   0  0  0  0  0  0  0  0  0  0  0  0
    3.6201    0.4985  -11.3462 H   0  0  0  0  0  0  0  0  0  0  0  0
    4.8210   -1.6831   -8.6398 H   0  0  0  0  0  0  0  0  0  0  0  0
    5.1061   -1.1396  -10.2998 H   0  0  0  0  0  0  0  0  0  0  0  0
    6.8473   -0.2467   -8.7662 H   0  0  0  0  0  0  0  0  0  0  0  0
    5.8823    1.0717   -9.4394 H   0  0  0  0  0  0  0  0  0  0  0  0
    5.5991    0.5304   -7.7860 H   0  0  0  0  0  0  0  0  0  0  0  0
    3.0004   -0.7247   -7.3086 H   0  0  0  0  0  0  0  0  0  0  0  0
   -3.0547   -2.5458   -0.4810 H   0  0  0  0  0  0  0  0  0  0  0  0
   -3.5734   -3.9936    0.3607 H   0  0  0  0  0  0  0  0  0  0  0  0
   -4.3507   -5.0339   -1.7288 H   0  0  0  0  0  0  0  0  0  0  0  0
   -3.7895   -3.6608   -2.6765 H   0  0  0  0  0  0  0  0  0  0  0  0
   -5.1170   -3.4561   -1.5255 H   0  0  0  0  0  0  0  0  0  0  0  0
   -2.0608   -0.3825   -3.0752 H   0  0  0  0  0  0  0  0  0  0  0  0
   -2.9209   -1.5951   -2.1428 H   0  0  0  0  0  0  0  0  0  0  0  0
   -0.8073   -1.8417   -0.6936 H   0  0  0  0  0  0  0  0  0  0  0  0
   -1.4971   -0.2128   -0.6435 H   0  0  0  0  0  0  0  0  0  0  0  0
   -0.0800   -0.5472   -1.6411 H   0  0  0  0  0  0  0  0  0  0  0  0
   -2.5538    6.0080   -5.3243 H   0  0  0  0  0  0  0  0  0  0  0  0
   -2.0637    7.7104   -5.4607 H   0  0  0  0  0  0  0  0  0  0  0  0
   -0.5399    7.4409   -3.5134 H   0  0  0  0  0  0  0  0  0  0  0  0
   -0.9944    5.7381   -3.3755 H   0  0  0  0  0  0  0  0  0  0  0  0
   -2.1921    7.0025   -3.0692 H   0  0  0  0  0  0  0  0  0  0  0  0
   -1.6730    3.5372   -5.5765 H   0  0  0  0  0  0  0  0  0  0  0  0
    0.0570    9.2472   -5.8510 H   0  0  0  0  0  0  0  0  0  0  0  0
    3.4630    9.9330   -7.6804 H   0  0  0  0  0  0  0  0  0  0  0  0
    0.3390   13.4346   -3.5050 H   0  0  0  0  0  0  0  0  0  0  0  0
    1.3158   15.6875   -3.0513 H   0  0  0  0  0  0  0  0  0  0  0  0
    4.2824   15.0622   -6.0643 H   0  0  0  0  0  0  0  0  0  0  0  0
  1  2  2  0  0  0  0
  2  3  1  0  0  0  0
  3  4  2  0  0  0  0
  3  5  1  0  0  0  0
  5  6  2  0  0  0  0
  6  7  1  0  0  0  0
  7  8  2  0  0  0  0
  8  9  1  0  0  0  0
  8 10  1  0  0  0  0
 10 11  2  0  0  0  0
 11 12  1  0  0  0  0
 12 13  2  0  0  0  0
 13 14  1  0  0  0  0
 14 15  3  0  0  0  0
 13 16  1  0  0  0  0
 16 17  3  0  0  0  0
  1 18  1  0  0  0  0
 18 19  1  0  0  0  0
 19 20  1  0  0  0  0
 20 21  1  0  0  0  0
 21 22  2  0  0  0  0
 22 23  1  0  0  0  0
 23 24  1  0  0  0  0
 24 25  1  0  0  0  0
 23 26  1  0  0  0  0
 26 27  1  0  0  0  0
 22 28  1  0  0  0  0
 28 29  2  0  0  0  0
 29 30  1  0  0  0  0
 29 31  1  0  0  0  0
 31 32  2  0  0  0  0
 32 33  1  0  0  0  0
 33 34  2  0  0  0  0
 34 35  1  0  0  0  0
 35 36  2  0  0  0  0
 36 37  1  0  0  0  0
 37 38  1  0  0  0  0
 38 39  1  0  0  0  0
 37 40  2  0  0  0  0
 32 41  1  0  0  0  0
 41 42  1  0  0  0  0
 42 43  1  0  0  0  0
 43 44  1  0  0  0  0
 44 45  1  0  0  0  0
 45 46  1  0  0  0  0
 46 47  2  0  0  0  0
 47 48  1  0  0  0  0
 48 49  1  0  0  0  0
 46 50  1  0  0  0  0
 50 51  1  0  0  0  0
 51 52  1  0  0  0  0
 52 53  1  0  0  0  0
 53 54  1  0  0  0  0
 54 55  1  0  0  0  0
 55 56  2  0  0  0  0
 56 57  1  0  0  0  0
 57 58  2  0  0  0  0
 58 59  1  0  0  0  0
 59 60  1  0  0  0  0
 60 61  1  0  0  0  0
 59 62  2  0  0  0  0
 54 63  2  0  0  0  0
 63 64  1  0  0  0  0
 64 65  1  0  0  0  0
 65 66  1  0  0  0  0
 66 67  1  0  0  0  0
 67 68  1  0  0  0  0
 68 69  1  0  0  0  0
 69 70  1  0  0  0  0
 70 71  1  0  0  0  0
 71 72  1  0  0  0  0
 72 73  1  0  0  0  0
 70 74  1  0  0  0  0
 74 75  1  0  0  0  0
 67 76  1  0  0  0  0
 76 77  1  0  0  0  0
 63 78  1  0  0  0  0
 78 79  1  0  0  0  0
 79 80  1  0  0  0  0
 80 81  1  0  0  0  0
 81 82  2  0  0  0  0
 82 83  1  0  0  0  0
 83 84  1  0  0  0  0
 84 85  1  0  0  0  0
 83 86  1  0  0  0  0
 86 87  1  0  0  0  0
 82 88  1  0  0  0  0
 88 89  2  0  0  0  0
 89 90  1  0  0  0  0
 89 91  1  0  0  0  0
 91 92  2  0  0  0  0
 92 93  1  0  0  0  0
 93 94  2  0  0  0  0
 93 95  1  0  0  0  0
 95 96  2  0  0  0  0
 96 97  1  0  0  0  0
 97 98  2  0  0  0  0
 98 99  1  0  0  0  0
 98100  1  0  0  0  0
100101  2  0  0  0  0
101102  1  0  0  0  0
102103  2  0  0  0  0
103104  1  0  0  0  0
104105  3  0  0  0  0
103106  1  0  0  0  0
106107  3  0  0  0  0
 12  2  1  0  0  0  0
 27 18  2  0  0  0  0
 73 31  1  0  0  0  0
 87 78  2  0  0  0  0
102 92  1  0  0  0  0
 11  5  1  0  0  0  0
 26 20  2  0  0  0  0
 40 33  1  0  0  0  0
 72 41  2  0  0  0  0
 86 80  2  0  0  0  0
101 95  1  0  0  0  0
 30 21  1  0  0  0  0
 71 43  2  0  0  0  0
 90 81  1  0  0  0  0
 69 44  2  0  0  0  0
 49 45  2  0  0  0  0
 68 50  2  0  0  0  0
 66 51  2  0  0  0  0
 65 53  2  0  0  0  0
 62 55  1  0  0  0  0
  1108  1  0  0  0  0
  6109  1  0  0  0  0
  7110  1  0  0  0  0
 10111  1  0  0  0  0
 24112  1  0  0  0  0
 24113  1  0  0  0  0
 25114  1  0  0  0  0
 25115  1  0  0  0  0
 25116  1  0  0  0  0
 27117  1  0  0  0  0
 28118  1  0  0  0  0
 34119  1  0  0  0  0
 35120  1  0  0  0  0
 36121  1  0  0  0  0
 38122  1  0  0  0  0
 38123  1  0  0  0  0
 39124  1  0  0  0  0
 39125  1  0  0  0  0
 39126  1  0  0  0  0
 40127  1  0  0  0  0
 56128  1  0  0  0  0
 57129  1  0  0  0  0
 58130  1  0  0  0  0
 60131  1  0  0  0  0
 60132  1  0  0  0  0
 61133  1  0  0  0  0
 61134  1  0  0  0  0
 61135  1  0  0  0  0
 62136  1  0  0  0  0
 74137  1  0  0  0  0
 74138  1  0  0  0  0
 75139  1  0  0  0  0
 75140  1  0  0  0  0
 75141  1  0  0  0  0
 76142  1  0  0  0  0
 76143  1  0  0  0  0
 77144  1  0  0  0  0
 77145  1  0  0  0  0
 77146  1  0  0  0  0
 84147  1  0  0  0  0
 84148  1  0  0  0  0
 85149  1  0  0  0  0
 85150  1  0  0  0  0
 85151  1  0  0  0  0
 87152  1  0  0  0  0
 88153  1  0  0  0  0
 91154  1  0  0  0  0
 96155  1  0  0  0  0
 97156  1  0  0  0  0
100157  1  0  0  0  0
M  END
