
  xtb     02042219153D
 energy: -251.219023295351 gnorm: 0.000506174898 xtb: 6.4.1 (unknown)
137154  0     0  0            999 V2000
   -6.1999  -13.2418   -5.6122 C   0  0  0  0  0  0  0  0  0  0  0  0
   -7.2840  -13.5923   -4.8579 C   0  0  0  0  0  0  0  0  0  0  0  0
   -8.4332  -14.2826   -5.4936 C   0  0  0  0  0  0  0  0  0  0  0  0
   -8.4585  -14.8051   -6.5860 O   0  0  0  0  0  0  0  0  0  0  0  0
   -9.5468  -14.1359   -4.5310 C   0  0  0  0  0  0  0  0  0  0  0  0
  -10.8760  -14.4861   -4.6710 C   0  0  0  0  0  0  0  0  0  0  0  0
  -11.7479  -14.2142   -3.6280 C   0  0  0  0  0  0  0  0  0  0  0  0
  -11.2774  -13.6000   -2.4733 C   0  0  0  0  0  0  0  0  0  0  0  0
  -12.3833  -13.2563   -1.1971 Cl  0  0  0  0  0  0  0  0  0  0  0  0
   -9.9397  -13.2514   -2.3123 C   0  0  0  0  0  0  0  0  0  0  0  0
   -9.0732  -13.5267   -3.3542 C   0  0  0  0  0  0  0  0  0  0  0  0
   -7.6296  -13.3255   -3.4830 C   0  0  0  0  0  0  0  0  0  0  0  0
   -6.7481  -13.2115   -2.4386 C   0  0  0  0  0  0  0  0  0  0  0  0
   -5.3554  -13.3655   -2.5999 C   0  0  0  0  0  0  0  0  0  0  0  0
   -4.2261  -13.5495   -2.6946 N   0  0  0  0  0  0  0  0  0  0  0  0
   -7.1357  -13.0428   -1.0958 C   0  0  0  0  0  0  0  0  0  0  0  0
   -7.4006  -12.8865    0.0104 N   0  0  0  0  0  0  0  0  0  0  0  0
   -5.2454  -12.2324   -5.3922 C   0  0  0  0  0  0  0  0  0  0  0  0
   -5.5111  -10.9033   -4.2569 S   0  0  0  0  0  0  0  0  0  0  0  0
   -4.0277  -10.1800   -4.7342 C   0  0  0  0  0  0  0  0  0  0  0  0
   -3.2298   -9.0696   -4.4897 C   0  0  0  0  0  0  0  0  0  0  0  0
   -2.1027   -9.1814   -5.3381 C   0  0  0  0  0  0  0  0  0  0  0  0
   -2.1869  -10.3312   -6.0715 N   0  0  0  0  0  0  0  0  0  0  0  0
   -1.2700  -10.7609   -7.0959 C   0  0  0  0  0  0  0  0  0  0  0  0
   -1.6566  -10.2042   -8.4646 C   0  0  0  0  0  0  0  0  0  0  0  0
   -3.3657  -10.9444   -5.7310 C   0  0  0  0  0  0  0  0  0  0  0  0
   -4.0651  -12.0805   -6.1100 C   0  0  0  0  0  0  0  0  0  0  0  0
   -1.2040   -8.1195   -5.2138 C   0  0  0  0  0  0  0  0  0  0  0  0
   -1.6262   -7.2028   -4.2742 C   0  0  0  0  0  0  0  0  0  0  0  0
   -3.1575   -7.6416   -3.5229 S   0  0  0  0  0  0  0  0  0  0  0  0
   -0.9743   -6.0035   -3.8909 C   0  0  0  0  0  0  0  0  0  0  0  0
    0.4740   -5.4806   -4.7502 S   0  0  0  0  0  0  0  0  0  0  0  0
    0.5674   -4.0829   -3.7488 C   0  0  0  0  0  0  0  0  0  0  0  0
    1.3276   -2.9329   -3.5513 C   0  0  0  0  0  0  0  0  0  0  0  0
    2.7158   -2.1852   -4.2783 S   0  0  0  0  0  0  0  0  0  0  0  0
    2.5490   -0.9104   -3.1266 C   0  0  0  0  0  0  0  0  0  0  0  0
    3.2063    0.2935   -2.8525 C   0  0  0  0  0  0  0  0  0  0  0  0
    4.2489    0.9266   -3.5606 C   0  0  0  0  0  0  0  0  0  0  0  0
    4.6620    2.2298   -3.1424 C   0  0  0  0  0  0  0  0  0  0  0  0
    5.6122    2.7351   -3.9141 N   0  0  0  0  0  0  0  0  0  0  0  0
    5.9576    1.6527   -5.0691 S   0  0  0  0  0  0  0  0  0  0  0  0
    4.9064    0.5024   -4.6284 N   0  0  0  0  0  0  0  0  0  0  0  0
    4.0698    2.7897   -1.9912 C   0  0  0  0  0  0  0  0  0  0  0  0
    4.3607    3.9960   -1.3413 C   0  0  0  0  0  0  0  0  0  0  0  0
    5.3998    5.3662   -1.5222 S   0  0  0  0  0  0  0  0  0  0  0  0
    4.7752    6.0057   -0.0182 C   0  0  0  0  0  0  0  0  0  0  0  0
    5.0811    7.1716    0.7041 C   0  0  0  0  0  0  0  0  0  0  0  0
    6.1384    8.1208    0.2437 C   0  0  0  0  0  0  0  0  0  0  0  0
    5.6653    8.9288   -0.9653 C   0  0  0  0  0  0  0  0  0  0  0  0
    4.3412    7.2428    1.8702 C   0  0  0  0  0  0  0  0  0  0  0  0
    3.2772    5.8486    2.0730 S   0  0  0  0  0  0  0  0  0  0  0  0
    3.8152    5.1802    0.5746 C   0  0  0  0  0  0  0  0  0  0  0  0
    3.5709    4.0358   -0.1928 C   0  0  0  0  0  0  0  0  0  0  0  0
    2.7998    2.9070   -0.1143 N   0  0  0  0  0  0  0  0  0  0  0  0
    3.0643    2.1204   -1.2273 C   0  0  0  0  0  0  0  0  0  0  0  0
    2.5693    0.8754   -1.7219 C   0  0  0  0  0  0  0  0  0  0  0  0
    1.5160    0.0437   -1.3714 N   0  0  0  0  0  0  0  0  0  0  0  0
    1.4968   -1.0471   -2.2140 C   0  0  0  0  0  0  0  0  0  0  0  0
    0.7505   -2.2223   -2.4693 C   0  0  0  0  0  0  0  0  0  0  0  0
   -0.3415   -2.9352   -2.0054 N   0  0  0  0  0  0  0  0  0  0  0  0
   -0.4667   -4.0495   -2.7975 C   0  0  0  0  0  0  0  0  0  0  0  0
   -1.3431   -5.1351   -2.8862 C   0  0  0  0  0  0  0  0  0  0  0  0
   -1.3909   -2.5611   -1.0894 C   0  0  0  0  0  0  0  0  0  0  0  0
   -2.4466   -1.6879   -1.7684 C   0  0  0  0  0  0  0  0  0  0  0  0
    0.5708    0.1714   -0.2958 C   0  0  0  0  0  0  0  0  0  0  0  0
    0.9852   -0.6765    0.9096 C   0  0  0  0  0  0  0  0  0  0  0  0
    2.0250    2.7257    1.0924 C   0  0  0  0  0  0  0  0  0  0  0  0
    0.7094    3.5045    1.0476 C   0  0  0  0  0  0  0  0  0  0  0  0
    4.3483    8.1420    2.9693 C   0  0  0  0  0  0  0  0  0  0  0  0
    3.9821    7.4512    4.6935 Se  0  0  0  0  0  2  0  0  0  0  0  0
    4.2055    9.2041    5.3854 C   0  0  0  0  0  0  0  0  0  0  0  0
    4.4896   10.0906    4.3220 C   0  0  0  0  0  0  0  0  0  0  0  0
    4.6742   11.4936    4.2861 C   0  0  0  0  0  0  0  0  0  0  0  0
    4.8710   11.9751    3.0310 C   0  0  0  0  0  0  0  0  0  0  0  0
    5.0536   13.3914    2.6151 C   0  0  0  0  0  0  0  0  0  0  0  0
    3.8048   13.9234    1.9078 C   0  0  0  0  0  0  0  0  0  0  0  0
    4.8452   10.7209    1.8180 S   0  0  0  0  0  0  0  0  0  0  0  0
    4.5741    9.5053    3.0366 C   0  0  0  0  0  0  0  0  0  0  0  0
    4.1288    9.6472    6.6975 C   0  0  0  0  0  0  0  0  0  0  0  0
    3.8772    8.9486    7.8660 C   0  0  0  0  0  0  0  0  0  0  0  0
    3.6329    7.5221    7.9404 C   0  0  0  0  0  0  0  0  0  0  0  0
    3.5790    6.7277    7.0037 O   0  0  0  0  0  0  0  0  0  0  0  0
    3.4592    7.2001    9.3666 C   0  0  0  0  0  0  0  0  0  0  0  0
    3.2188    5.9814    9.9697 C   0  0  0  0  0  0  0  0  0  0  0  0
    3.0985    5.9379   11.3507 C   0  0  0  0  0  0  0  0  0  0  0  0
    3.2202    7.1066   12.0909 C   0  0  0  0  0  0  0  0  0  0  0  0
    3.0700    7.0333   13.8059 Cl  0  0  0  0  0  0  0  0  0  0  0  0
    3.4616    8.3425   11.4942 C   0  0  0  0  0  0  0  0  0  0  0  0
    3.5817    8.3838   10.1177 C   0  0  0  0  0  0  0  0  0  0  0  0
    3.8362    9.4987    9.1977 C   0  0  0  0  0  0  0  0  0  0  0  0
    3.9935   10.8116    9.5697 C   0  0  0  0  0  0  0  0  0  0  0  0
    4.2300   11.8865    8.6895 C   0  0  0  0  0  0  0  0  0  0  0  0
    4.4222   12.8132    8.0367 N   0  0  0  0  0  0  0  0  0  0  0  0
    3.9331   11.2714   10.9010 C   0  0  0  0  0  0  0  0  0  0  0  0
    3.8962   11.7151   11.9595 N   0  0  0  0  0  0  0  0  0  0  0  0
   -6.1234  -13.7531   -6.5675 H   0  0  0  0  0  0  0  0  0  0  0  0
  -11.2196  -14.9606   -5.5771 H   0  0  0  0  0  0  0  0  0  0  0  0
  -12.7922  -14.4731   -3.7045 H   0  0  0  0  0  0  0  0  0  0  0  0
   -9.6091  -12.7734   -1.4044 H   0  0  0  0  0  0  0  0  0  0  0  0
   -0.2685  -10.4207   -6.8206 H   0  0  0  0  0  0  0  0  0  0  0  0
   -1.2725  -11.8537   -7.1181 H   0  0  0  0  0  0  0  0  0  0  0  0
   -1.6453   -9.1169   -8.4467 H   0  0  0  0  0  0  0  0  0  0  0  0
   -0.9540  -10.5487   -9.2180 H   0  0  0  0  0  0  0  0  0  0  0  0
   -2.6552  -10.5357   -8.7393 H   0  0  0  0  0  0  0  0  0  0  0  0
   -3.7485  -12.7948   -6.8483 H   0  0  0  0  0  0  0  0  0  0  0  0
   -0.2887   -8.0012   -5.7646 H   0  0  0  0  0  0  0  0  0  0  0  0
    6.4266    8.7879    1.0549 H   0  0  0  0  0  0  0  0  0  0  0  0
    7.0146    7.5351   -0.0466 H   0  0  0  0  0  0  0  0  0  0  0  0
    4.7710    9.4959   -0.7193 H   0  0  0  0  0  0  0  0  0  0  0  0
    5.4404    8.2653   -1.7965 H   0  0  0  0  0  0  0  0  0  0  0  0
    6.4420    9.6227   -1.2745 H   0  0  0  0  0  0  0  0  0  0  0  0
   -2.2056   -5.3085   -2.2682 H   0  0  0  0  0  0  0  0  0  0  0  0
   -0.9696   -2.0591   -0.2191 H   0  0  0  0  0  0  0  0  0  0  0  0
   -1.8549   -3.4875   -0.7416 H   0  0  0  0  0  0  0  0  0  0  0  0
   -1.9974   -0.7883   -2.1851 H   0  0  0  0  0  0  0  0  0  0  0  0
   -2.9171   -2.2371   -2.5803 H   0  0  0  0  0  0  0  0  0  0  0  0
   -3.2117   -1.4003   -1.0523 H   0  0  0  0  0  0  0  0  0  0  0  0
    0.4670    1.2190   -0.0324 H   0  0  0  0  0  0  0  0  0  0  0  0
   -0.4009   -0.1575   -0.6685 H   0  0  0  0  0  0  0  0  0  0  0  0
    1.9721   -0.3902    1.2677 H   0  0  0  0  0  0  0  0  0  0  0  0
    1.0389   -1.7270    0.6321 H   0  0  0  0  0  0  0  0  0  0  0  0
    0.2697   -0.5599    1.7199 H   0  0  0  0  0  0  0  0  0  0  0  0
    1.8689    1.6693    1.2875 H   0  0  0  0  0  0  0  0  0  0  0  0
    2.6268    3.1205    1.9184 H   0  0  0  0  0  0  0  0  0  0  0  0
    0.1206    3.2534    0.1673 H   0  0  0  0  0  0  0  0  0  0  0  0
    0.1245    3.2903    1.9378 H   0  0  0  0  0  0  0  0  0  0  0  0
    0.9127    4.5716    1.0200 H   0  0  0  0  0  0  0  0  0  0  0  0
    4.6561   12.1291    5.1538 H   0  0  0  0  0  0  0  0  0  0  0  0
    5.9077   13.4668    1.9372 H   0  0  0  0  0  0  0  0  0  0  0  0
    5.2604   13.9941    3.5012 H   0  0  0  0  0  0  0  0  0  0  0  0
    3.9552   14.9579    1.6114 H   0  0  0  0  0  0  0  0  0  0  0  0
    2.9445   13.8731    2.5713 H   0  0  0  0  0  0  0  0  0  0  0  0
    3.5927   13.3339    1.0183 H   0  0  0  0  0  0  0  0  0  0  0  0
    4.3121   10.7080    6.8088 H   0  0  0  0  0  0  0  0  0  0  0  0
    3.1297    5.0880    9.3716 H   0  0  0  0  0  0  0  0  0  0  0  0
    2.9121    5.0040   11.8568 H   0  0  0  0  0  0  0  0  0  0  0  0
    3.5497    9.2240   12.1075 H   0  0  0  0  0  0  0  0  0  0  0  0
  1  2  2  0  0  0  0
  2  3  1  0  0  0  0
  3  4  2  0  0  0  0
  3  5  1  0  0  0  0
  5  6  2  0  0  0  0
  6  7  1  0  0  0  0
  7  8  2  0  0  0  0
  8  9  1  0  0  0  0
  8 10  1  0  0  0  0
 10 11  2  0  0  0  0
 11 12  1  0  0  0  0
 12 13  2  0  0  0  0
 13 14  1  0  0  0  0
 14 15  3  0  0  0  0
 13 16  1  0  0  0  0
 16 17  3  0  0  0  0
  1 18  1  0  0  0  0
 18 19  1  0  0  0  0
 19 20  1  0  0  0  0
 20 21  1  0  0  0  0
 21 22  2  0  0  0  0
 22 23  1  0  0  0  0
 23 24  1  0  0  0  0
 24 25  1  0  0  0  0
 23 26  1  0  0  0  0
 26 27  1  0  0  0  0
 22 28  1  0  0  0  0
 28 29  2  0  0  0  0
 29 30  1  0  0  0  0
 29 31  1  0  0  0  0
 31 32  1  0  0  0  0
 32 33  1  0  0  0  0
 33 34  1  0  0  0  0
 34 35  1  0  0  0  0
 35 36  1  0  0  0  0
 36 37  1  0  0  0  0
 37 38  1  0  0  0  0
 38 39  1  0  0  0  0
 39 40  2  0  0  0  0
 40 41  1  0  0  0  0
 41 42  1  0  0  0  0
 39 43  1  0  0  0  0
 43 44  1  0  0  0  0
 44 45  1  0  0  0  0
 45 46  1  0  0  0  0
 46 47  1  0  0  0  0
 47 48  1  0  0  0  0
 48 49  1  0  0  0  0
 47 50  2  0  0  0  0
 50 51  1  0  0  0  0
 51 52  1  0  0  0  0
 52 53  1  0  0  0  0
 53 54  1  0  0  0  0
 54 55  1  0  0  0  0
 55 56  1  0  0  0  0
 56 57  1  0  0  0  0
 57 58  1  0  0  0  0
 58 59  1  0  0  0  0
 59 60  1  0  0  0  0
 60 61  1  0  0  0  0
 61 62  1  0  0  0  0
 60 63  1  0  0  0  0
 63 64  1  0  0  0  0
 57 65  1  0  0  0  0
 65 66  1  0  0  0  0
 54 67  1  0  0  0  0
 67 68  1  0  0  0  0
 50 69  1  0  0  0  0
 69 70  1  0  0  0  0
 70 71  1  0  0  0  0
 71 72  2  0  0  0  0
 72 73  1  0  0  0  0
 73 74  2  0  0  0  0
 74 75  1  0  0  0  0
 75 76  1  0  0  0  0
 74 77  1  0  0  0  0
 77 78  1  0  0  0  0
 71 79  1  0  0  0  0
 79 80  2  0  0  0  0
 80 81  1  0  0  0  0
 81 82  2  0  0  0  0
 81 83  1  0  0  0  0
 83 84  2  0  0  0  0
 84 85  1  0  0  0  0
 85 86  2  0  0  0  0
 86 87  1  0  0  0  0
 86 88  1  0  0  0  0
 88 89  2  0  0  0  0
 89 90  1  0  0  0  0
 90 91  2  0  0  0  0
 91 92  1  0  0  0  0
 92 93  3  0  0  0  0
 91 94  1  0  0  0  0
 94 95  3  0  0  0  0
 12  2  1  0  0  0  0
 27 18  2  0  0  0  0
 62 31  2  0  0  0  0
 78 69  2  0  0  0  0
 90 80  1  0  0  0  0
 11  5  1  0  0  0  0
 26 20  2  0  0  0  0
 61 33  2  0  0  0  0
 78 72  1  0  0  0  0
 89 83  1  0  0  0  0
 30 21  1  0  0  0  0
 59 34  2  0  0  0  0
 58 36  2  0  0  0  0
 56 37  2  0  0  0  0
 42 38  2  0  0  0  0
 55 43  2  0  0  0  0
 53 44  2  0  0  0  0
 52 46  2  0  0  0  0
  1 96  1  0  0  0  0
  6 97  1  0  0  0  0
  7 98  1  0  0  0  0
 10 99  1  0  0  0  0
 24100  1  0  0  0  0
 24101  1  0  0  0  0
 25102  1  0  0  0  0
 25103  1  0  0  0  0
 25104  1  0  0  0  0
 27105  1  0  0  0  0
 28106  1  0  0  0  0
 48107  1  0  0  0  0
 48108  1  0  0  0  0
 49109  1  0  0  0  0
 49110  1  0  0  0  0
 49111  1  0  0  0  0
 62112  1  0  0  0  0
 63113  1  0  0  0  0
 63114  1  0  0  0  0
 64115  1  0  0  0  0
 64116  1  0  0  0  0
 64117  1  0  0  0  0
 65118  1  0  0  0  0
 65119  1  0  0  0  0
 66120  1  0  0  0  0
 66121  1  0  0  0  0
 66122  1  0  0  0  0
 67123  1  0  0  0  0
 67124  1  0  0  0  0
 68125  1  0  0  0  0
 68126  1  0  0  0  0
 68127  1  0  0  0  0
 73128  1  0  0  0  0
 75129  1  0  0  0  0
 75130  1  0  0  0  0
 76131  1  0  0  0  0
 76132  1  0  0  0  0
 76133  1  0  0  0  0
 79134  1  0  0  0  0
 84135  1  0  0  0  0
 85136  1  0  0  0  0
 88137  1  0  0  0  0
M  END
