
  xtb     02042219183D
 energy: -257.206288847967 gnorm: 0.000659522704 xtb: 6.4.1 (unknown)
145161  0     0  0            999 V2000
    5.2817   -7.2612    7.5113 C   0  0  0  0  0  0  0  0  0  0  0  0
    6.4173   -7.5807    8.2178 C   0  0  0  0  0  0  0  0  0  0  0  0
    7.5156   -6.6961    8.6563 C   0  0  0  0  0  0  0  0  0  0  0  0
    7.5860   -5.4817    8.6270 O   0  0  0  0  0  0  0  0  0  0  0  0
    8.5754   -7.5932    9.1580 C   0  0  0  0  0  0  0  0  0  0  0  0
    9.8313   -7.2623    9.6297 C   0  0  0  0  0  0  0  0  0  0  0  0
   10.6760   -8.2819   10.0377 C   0  0  0  0  0  0  0  0  0  0  0  0
   10.2475   -9.6022    9.9646 C   0  0  0  0  0  0  0  0  0  0  0  0
   11.3145  -10.8584   10.4680 Cl  0  0  0  0  0  0  0  0  0  0  0  0
    8.9833   -9.9477    9.4965 C   0  0  0  0  0  0  0  0  0  0  0  0
    8.1410   -8.9263    9.0914 C   0  0  0  0  0  0  0  0  0  0  0  0
    6.7759   -8.9443    8.5640 C   0  0  0  0  0  0  0  0  0  0  0  0
    5.9860  -10.0622    8.4865 C   0  0  0  0  0  0  0  0  0  0  0  0
    4.6355  -10.1071    8.0784 C   0  0  0  0  0  0  0  0  0  0  0  0
    3.5335  -10.2451    7.7850 N   0  0  0  0  0  0  0  0  0  0  0  0
    6.4103  -11.3572    8.8537 C   0  0  0  0  0  0  0  0  0  0  0  0
    6.6829  -12.4383    9.1278 N   0  0  0  0  0  0  0  0  0  0  0  0
    4.7641   -6.0325    7.0804 C   0  0  0  0  0  0  0  0  0  0  0  0
    3.3166   -6.1269    6.0520 S   0  0  0  0  0  0  0  0  0  0  0  0
    3.2795   -4.4181    5.9231 C   0  0  0  0  0  0  0  0  0  0  0  0
    2.5646   -3.3802    5.3357 C   0  0  0  0  0  0  0  0  0  0  0  0
    3.1988   -2.1764    5.7231 C   0  0  0  0  0  0  0  0  0  0  0  0
    4.2783   -2.4505    6.5141 N   0  0  0  0  0  0  0  0  0  0  0  0
    5.1160   -1.4766    7.1663 C   0  0  0  0  0  0  0  0  0  0  0  0
    4.4224   -0.8682    8.3831 C   0  0  0  0  0  0  0  0  0  0  0  0
    4.3385   -3.8134    6.6588 C   0  0  0  0  0  0  0  0  0  0  0  0
    5.1625   -4.7193    7.3047 C   0  0  0  0  0  0  0  0  0  0  0  0
    2.5961   -1.0310    5.1994 C   0  0  0  0  0  0  0  0  0  0  0  0
    1.5003   -1.3461    4.4238 C   0  0  0  0  0  0  0  0  0  0  0  0
    1.2072   -3.0775    4.3146 S   0  0  0  0  0  0  0  0  0  0  0  0
    0.6568   -0.4470    3.7107 C   0  0  0  0  0  0  0  0  0  0  0  0
    0.4618    0.9078    3.9218 C   0  0  0  0  0  0  0  0  0  0  0  0
    0.9522    1.6740    5.0700 C   0  0  0  0  0  0  0  0  0  0  0  0
    0.7832    1.1967    6.3679 C   0  0  0  0  0  0  0  0  0  0  0  0
    1.2300    1.9447    7.4397 C   0  0  0  0  0  0  0  0  0  0  0  0
    1.8420    3.1693    7.2310 C   0  0  0  0  0  0  0  0  0  0  0  0
    2.0025    3.6683    5.9448 C   0  0  0  0  0  0  0  0  0  0  0  0
    2.6950    4.9794    5.7092 C   0  0  0  0  0  0  0  0  0  0  0  0
    4.2007    4.7649    5.5409 C   0  0  0  0  0  0  0  0  0  0  0  0
    1.5527    2.9121    4.8721 C   0  0  0  0  0  0  0  0  0  0  0  0
   -0.3425    1.4673    2.9095 C   0  0  0  0  0  0  0  0  0  0  0  0
   -0.9149    3.0917    2.6125 S   0  0  0  0  0  0  0  0  0  0  0  0
   -1.7252    2.5247    1.1911 C   0  0  0  0  0  0  0  0  0  0  0  0
   -2.5171    3.0273    0.1420 C   0  0  0  0  0  0  0  0  0  0  0  0
   -3.1114    4.2849   -0.1099 C   0  0  0  0  0  0  0  0  0  0  0  0
   -3.9851    4.4351   -1.2461 C   0  0  0  0  0  0  0  0  0  0  0  0
   -4.5227    5.6426   -1.3101 N   0  0  0  0  0  0  0  0  0  0  0  0
   -3.9762    6.5188   -0.0637 S   0  0  0  0  0  0  0  0  0  0  0  0
   -3.0317    5.3914    0.6118 N   0  0  0  0  0  0  0  0  0  0  0  0
   -4.1098    3.3691   -2.1664 C   0  0  0  0  0  0  0  0  0  0  0  0
   -4.7181    3.2552   -3.4289 C   0  0  0  0  0  0  0  0  0  0  0  0
   -5.7183    4.1853   -4.4881 S   0  0  0  0  0  0  0  0  0  0  0  0
   -5.6426    2.8918   -5.6637 C   0  0  0  0  0  0  0  0  0  0  0  0
   -6.1720    2.7398   -6.9543 C   0  0  0  0  0  0  0  0  0  0  0  0
   -6.9539    3.7632   -7.6384 C   0  0  0  0  0  0  0  0  0  0  0  0
   -6.7580    4.0338   -8.9926 C   0  0  0  0  0  0  0  0  0  0  0  0
   -7.4943    5.0267   -9.6101 C   0  0  0  0  0  0  0  0  0  0  0  0
   -8.4219    5.7611   -8.8915 C   0  0  0  0  0  0  0  0  0  0  0  0
   -8.6271    5.5098   -7.5402 C   0  0  0  0  0  0  0  0  0  0  0  0
   -9.5865    6.3351   -6.7328 C   0  0  0  0  0  0  0  0  0  0  0  0
   -8.8310    7.4190   -5.9610 C   0  0  0  0  0  0  0  0  0  0  0  0
   -7.8887    4.5107   -6.9263 C   0  0  0  0  0  0  0  0  0  0  0  0
   -5.8011    1.5186   -7.5209 C   0  0  0  0  0  0  0  0  0  0  0  0
   -4.7980    0.5657   -6.4324 S   0  0  0  0  0  0  0  0  0  0  0  0
   -4.8703    1.8056   -5.2364 C   0  0  0  0  0  0  0  0  0  0  0  0
   -4.3478    2.0118   -3.9573 C   0  0  0  0  0  0  0  0  0  0  0  0
   -3.5568    1.3330   -3.0609 N   0  0  0  0  0  0  0  0  0  0  0  0
   -3.4226    2.1467   -1.9497 C   0  0  0  0  0  0  0  0  0  0  0  0
   -2.7687    1.9287   -0.7197 C   0  0  0  0  0  0  0  0  0  0  0  0
   -2.2177    0.7800   -0.1812 N   0  0  0  0  0  0  0  0  0  0  0  0
   -1.5701    1.1516    0.9709 C   0  0  0  0  0  0  0  0  0  0  0  0
   -0.7827    0.5465    1.9566 C   0  0  0  0  0  0  0  0  0  0  0  0
   -0.1893   -1.0400    2.2900 S   0  0  0  0  0  0  0  0  0  0  0  0
   -2.7342   -0.5656   -0.3361 C   0  0  0  0  0  0  0  0  0  0  0  0
   -3.6280   -0.9561    0.8407 C   0  0  0  0  0  0  0  0  0  0  0  0
   -2.5685    0.3927   -3.5516 C   0  0  0  0  0  0  0  0  0  0  0  0
   -1.5143    1.1016   -4.4003 C   0  0  0  0  0  0  0  0  0  0  0  0
   -6.3308    1.0003   -8.7297 C   0  0  0  0  0  0  0  0  0  0  0  0
   -5.8921   -0.0232   -9.5184 C   0  0  0  0  0  0  0  0  0  0  0  0
   -4.6223   -0.6481   -9.5448 C   0  0  0  0  0  0  0  0  0  0  0  0
   -3.4535   -0.0987   -9.0975 C   0  0  0  0  0  0  0  0  0  0  0  0
   -2.2281   -0.7757   -9.1781 C   0  0  0  0  0  0  0  0  0  0  0  0
   -1.0403   -0.2974   -8.6760 C   0  0  0  0  0  0  0  0  0  0  0  0
   -0.8963    0.9539   -7.9060 C   0  0  0  0  0  0  0  0  0  0  0  0
   -1.7530    1.7682   -7.6141 O   0  0  0  0  0  0  0  0  0  0  0  0
    0.5241    1.0143   -7.5049 C   0  0  0  0  0  0  0  0  0  0  0  0
    1.1729    1.9770   -6.7558 C   0  0  0  0  0  0  0  0  0  0  0  0
    2.5236    1.8146   -6.4921 C   0  0  0  0  0  0  0  0  0  0  0  0
    3.1916    0.6982   -6.9809 C   0  0  0  0  0  0  0  0  0  0  0  0
    4.8712    0.5107   -6.6411 Cl  0  0  0  0  0  0  0  0  0  0  0  0
    2.5500   -0.2784   -7.7371 C   0  0  0  0  0  0  0  0  0  0  0  0
    1.2007   -0.1134   -7.9991 C   0  0  0  0  0  0  0  0  0  0  0  0
    0.2509   -0.9421   -8.7465 C   0  0  0  0  0  0  0  0  0  0  0  0
    0.5679   -2.1045   -9.4031 C   0  0  0  0  0  0  0  0  0  0  0  0
   -0.3279   -2.8962  -10.1512 C   0  0  0  0  0  0  0  0  0  0  0  0
   -0.9849   -3.5946  -10.7838 N   0  0  0  0  0  0  0  0  0  0  0  0
    1.8573   -2.6753   -9.4299 C   0  0  0  0  0  0  0  0  0  0  0  0
    2.8777   -3.1988   -9.4887 N   0  0  0  0  0  0  0  0  0  0  0  0
    4.6765   -8.1029    7.1953 H   0  0  0  0  0  0  0  0  0  0  0  0
   10.1382   -6.2287    9.6732 H   0  0  0  0  0  0  0  0  0  0  0  0
   11.6642   -8.0627   10.4097 H   0  0  0  0  0  0  0  0  0  0  0  0
    8.6941  -10.9845    9.4547 H   0  0  0  0  0  0  0  0  0  0  0  0
    5.3604   -0.6909    6.4446 H   0  0  0  0  0  0  0  0  0  0  0  0
    6.0391   -1.9764    7.4668 H   0  0  0  0  0  0  0  0  0  0  0  0
    3.5067   -0.3627    8.0840 H   0  0  0  0  0  0  0  0  0  0  0  0
    4.1739   -1.6450    9.1023 H   0  0  0  0  0  0  0  0  0  0  0  0
    5.0789   -0.1471    8.8614 H   0  0  0  0  0  0  0  0  0  0  0  0
    6.0178   -4.4792    7.9081 H   0  0  0  0  0  0  0  0  0  0  0  0
    2.9374   -0.0244    5.3511 H   0  0  0  0  0  0  0  0  0  0  0  0
    0.2944    0.2473    6.5287 H   0  0  0  0  0  0  0  0  0  0  0  0
    1.0948    1.5745    8.4457 H   0  0  0  0  0  0  0  0  0  0  0  0
    2.1887    3.7478    8.0751 H   0  0  0  0  0  0  0  0  0  0  0  0
    2.2949    5.4507    4.8098 H   0  0  0  0  0  0  0  0  0  0  0  0
    2.5189    5.6478    6.5540 H   0  0  0  0  0  0  0  0  0  0  0  0
    4.7026    5.7136    5.3676 H   0  0  0  0  0  0  0  0  0  0  0  0
    4.6211    4.3082    6.4345 H   0  0  0  0  0  0  0  0  0  0  0  0
    4.3977    4.1091    4.6955 H   0  0  0  0  0  0  0  0  0  0  0  0
    1.6783    3.2856    3.8662 H   0  0  0  0  0  0  0  0  0  0  0  0
   -6.0069    3.4893   -9.5453 H   0  0  0  0  0  0  0  0  0  0  0  0
   -7.3369    5.2359  -10.6580 H   0  0  0  0  0  0  0  0  0  0  0  0
   -8.9882    6.5395   -9.3820 H   0  0  0  0  0  0  0  0  0  0  0  0
  -10.1184    5.6960   -6.0248 H   0  0  0  0  0  0  0  0  0  0  0  0
  -10.3211    6.8027   -7.3909 H   0  0  0  0  0  0  0  0  0  0  0  0
   -9.5225    8.0196   -5.3752 H   0  0  0  0  0  0  0  0  0  0  0  0
   -8.1040    6.9689   -5.2889 H   0  0  0  0  0  0  0  0  0  0  0  0
   -8.3005    8.0726   -6.6499 H   0  0  0  0  0  0  0  0  0  0  0  0
   -8.0543    4.2963   -5.8808 H   0  0  0  0  0  0  0  0  0  0  0  0
   -1.8920   -1.2618   -0.4085 H   0  0  0  0  0  0  0  0  0  0  0  0
   -3.3299   -0.6122   -1.2465 H   0  0  0  0  0  0  0  0  0  0  0  0
   -3.0646   -0.9832    1.7689 H   0  0  0  0  0  0  0  0  0  0  0  0
   -4.4424   -0.2424    0.9461 H   0  0  0  0  0  0  0  0  0  0  0  0
   -4.0477   -1.9425    0.6645 H   0  0  0  0  0  0  0  0  0  0  0  0
   -2.0706   -0.0897   -2.7136 H   0  0  0  0  0  0  0  0  0  0  0  0
   -3.0875   -0.3622   -4.1497 H   0  0  0  0  0  0  0  0  0  0  0  0
   -0.7654    0.3846   -4.7273 H   0  0  0  0  0  0  0  0  0  0  0  0
   -1.9606    1.5589   -5.2793 H   0  0  0  0  0  0  0  0  0  0  0  0
   -1.0226    1.8755   -3.8141 H   0  0  0  0  0  0  0  0  0  0  0  0
   -7.2707    1.4626   -9.0142 H   0  0  0  0  0  0  0  0  0  0  0  0
   -6.5971   -0.3892  -10.2553 H   0  0  0  0  0  0  0  0  0  0  0  0
   -4.5713   -1.6081  -10.0468 H   0  0  0  0  0  0  0  0  0  0  0  0
   -3.4497    0.8967   -8.6835 H   0  0  0  0  0  0  0  0  0  0  0  0
   -2.2370   -1.7503   -9.6493 H   0  0  0  0  0  0  0  0  0  0  0  0
    0.6302    2.8346   -6.3895 H   0  0  0  0  0  0  0  0  0  0  0  0
    3.0633    2.5463   -5.9121 H   0  0  0  0  0  0  0  0  0  0  0  0
    3.1069   -1.1281   -8.0955 H   0  0  0  0  0  0  0  0  0  0  0  0
  1  2  2  0  0  0  0
  2  3  1  0  0  0  0
  3  4  2  0  0  0  0
  3  5  1  0  0  0  0
  5  6  2  0  0  0  0
  6  7  1  0  0  0  0
  7  8  2  0  0  0  0
  8  9  1  0  0  0  0
  8 10  1  0  0  0  0
 10 11  2  0  0  0  0
 11 12  1  0  0  0  0
 12 13  2  0  0  0  0
 13 14  1  0  0  0  0
 14 15  3  0  0  0  0
 13 16  1  0  0  0  0
 16 17  3  0  0  0  0
  1 18  1  0  0  0  0
 18 19  1  0  0  0  0
 19 20  1  0  0  0  0
 20 21  1  0  0  0  0
 21 22  2  0  0  0  0
 22 23  1  0  0  0  0
 23 24  1  0  0  0  0
 24 25  1  0  0  0  0
 23 26  1  0  0  0  0
 26 27  1  0  0  0  0
 22 28  1  0  0  0  0
 28 29  2  0  0  0  0
 29 30  1  0  0  0  0
 29 31  1  0  0  0  0
 31 32  2  0  0  0  0
 32 33  1  0  0  0  0
 33 34  2  0  0  0  0
 34 35  1  0  0  0  0
 35 36  2  0  0  0  0
 36 37  1  0  0  0  0
 37 38  1  0  0  0  0
 38 39  1  0  0  0  0
 37 40  2  0  0  0  0
 32 41  1  0  0  0  0
 41 42  1  0  0  0  0
 42 43  1  0  0  0  0
 43 44  1  0  0  0  0
 44 45  1  0  0  0  0
 45 46  1  0  0  0  0
 46 47  2  0  0  0  0
 47 48  1  0  0  0  0
 48 49  1  0  0  0  0
 46 50  1  0  0  0  0
 50 51  1  0  0  0  0
 51 52  1  0  0  0  0
 52 53  1  0  0  0  0
 53 54  1  0  0  0  0
 54 55  1  0  0  0  0
 55 56  2  0  0  0  0
 56 57  1  0  0  0  0
 57 58  2  0  0  0  0
 58 59  1  0  0  0  0
 59 60  1  0  0  0  0
 60 61  1  0  0  0  0
 59 62  2  0  0  0  0
 54 63  2  0  0  0  0
 63 64  1  0  0  0  0
 64 65  1  0  0  0  0
 65 66  1  0  0  0  0
 66 67  1  0  0  0  0
 67 68  1  0  0  0  0
 68 69  1  0  0  0  0
 69 70  1  0  0  0  0
 70 71  1  0  0  0  0
 71 72  1  0  0  0  0
 72 73  1  0  0  0  0
 70 74  1  0  0  0  0
 74 75  1  0  0  0  0
 67 76  1  0  0  0  0
 76 77  1  0  0  0  0
 63 78  1  0  0  0  0
 78 79  2  0  0  0  0
 79 80  1  0  0  0  0
 80 81  2  0  0  0  0
 81 82  1  0  0  0  0
 82 83  2  0  0  0  0
 83 84  1  0  0  0  0
 84 85  2  0  0  0  0
 84 86  1  0  0  0  0
 86 87  2  0  0  0  0
 87 88  1  0  0  0  0
 88 89  2  0  0  0  0
 89 90  1  0  0  0  0
 89 91  1  0  0  0  0
 91 92  2  0  0  0  0
 92 93  1  0  0  0  0
 93 94  2  0  0  0  0
 94 95  1  0  0  0  0
 95 96  3  0  0  0  0
 94 97  1  0  0  0  0
 97 98  3  0  0  0  0
 12  2  1  0  0  0  0
 27 18  2  0  0  0  0
 73 31  1  0  0  0  0
 93 83  1  0  0  0  0
 11  5  1  0  0  0  0
 26 20  2  0  0  0  0
 40 33  1  0  0  0  0
 72 41  2  0  0  0  0
 92 86  1  0  0  0  0
 30 21  1  0  0  0  0
 71 43  2  0  0  0  0
 69 44  2  0  0  0  0
 49 45  2  0  0  0  0
 68 50  2  0  0  0  0
 66 51  2  0  0  0  0
 65 53  2  0  0  0  0
 62 55  1  0  0  0  0
  1 99  1  0  0  0  0
  6100  1  0  0  0  0
  7101  1  0  0  0  0
 10102  1  0  0  0  0
 24103  1  0  0  0  0
 24104  1  0  0  0  0
 25105  1  0  0  0  0
 25106  1  0  0  0  0
 25107  1  0  0  0  0
 27108  1  0  0  0  0
 28109  1  0  0  0  0
 34110  1  0  0  0  0
 35111  1  0  0  0  0
 36112  1  0  0  0  0
 38113  1  0  0  0  0
 38114  1  0  0  0  0
 39115  1  0  0  0  0
 39116  1  0  0  0  0
 39117  1  0  0  0  0
 40118  1  0  0  0  0
 56119  1  0  0  0  0
 57120  1  0  0  0  0
 58121  1  0  0  0  0
 60122  1  0  0  0  0
 60123  1  0  0  0  0
 61124  1  0  0  0  0
 61125  1  0  0  0  0
 61126  1  0  0  0  0
 62127  1  0  0  0  0
 74128  1  0  0  0  0
 74129  1  0  0  0  0
 75130  1  0  0  0  0
 75131  1  0  0  0  0
 75132  1  0  0  0  0
 76133  1  0  0  0  0
 76134  1  0  0  0  0
 77135  1  0  0  0  0
 77136  1  0  0  0  0
 77137  1  0  0  0  0
 78138  1  0  0  0  0
 79139  1  0  0  0  0
 80140  1  0  0  0  0
 81141  1  0  0  0  0
 82142  1  0  0  0  0
 87143  1  0  0  0  0
 88144  1  0  0  0  0
 91145  1  0  0  0  0
M  END
