163

C         -4.97560      -12.86130       -2.71120
C         -4.99130      -14.21980       -2.92690
C         -4.40900      -15.29580       -2.10040
O         -3.92800      -15.23620       -0.98420
C         -4.51180      -16.52440       -2.91290
C         -4.05990      -17.79530       -2.61320
C         -4.25010      -18.80330       -3.54460
C         -4.88340      -18.51820       -4.74860
Cl        -5.10140      -19.78150       -5.90030
C         -5.34840      -17.24380       -5.05930
C         -5.15990      -16.23980       -4.12500
C         -5.52490      -14.82240       -4.13480
C         -6.28940      -14.22270       -5.10230
C         -6.74390      -12.88640       -5.10270
N         -7.18220      -11.82770       -5.18580
C         -6.77750      -14.88580       -6.24840
N         -7.20530      -15.35450       -7.20530
C         -4.50080      -12.09010       -1.64270
S         -4.54880      -10.32910       -1.88680
C         -3.85100      -10.08160       -0.34080
C         -3.40960       -9.07660        0.51160
C         -2.91450       -9.71290        1.67430
N         -3.03510      -11.06830        1.55100
C         -2.71390      -12.04160        2.56360
C         -3.77990      -12.08350        3.65620
C         -3.61300      -11.31480        0.33100
C         -3.98040      -12.43200       -0.39900
C         -2.40680       -8.82680        2.62680
C         -2.51760       -7.51650        2.20950
S         -3.24840       -7.36210        0.61500
C         -2.07460       -6.34150        2.88000
C         -1.75070       -6.15940        4.21510
C         -1.98770       -7.12580        5.29000
C         -0.99010       -7.39830        6.22020
C         -1.22650       -8.30470        7.23780
C         -2.45270       -8.93620        7.34020
C         -3.46760       -8.66180        6.42960
C         -4.81860       -9.30210        6.57590
C         -5.68160       -8.50590        7.55640
C         -3.22540       -7.75200        5.41330
C         -1.20860       -4.87800        4.43670
S         -0.60280       -4.07810        5.86990
C         -0.25890       -2.67540        4.91330
C          0.33130       -1.40960        5.04620
C          0.94750       -0.80620        6.16290
C          1.58600        0.46480        5.99580
N          2.15970        0.89480        7.10900
S          1.91230       -0.20720        8.26960
N          1.06630       -1.27620        7.39510
C          1.51410        1.10210        4.73910
C          1.99220        2.35640        4.33060
S          2.89590        3.69410        4.95920
C          2.71680        4.50830        3.42120
C          3.14580        5.76560        2.94930
C          3.86280        6.73460        3.78070
C          4.94350        6.32730        4.55730
C          5.61050        7.24700        5.34480
C          5.20790        8.57090        5.36770
C          4.11830        8.99040        4.61390
C          3.69450       10.43150        4.59820
C          4.27000       11.14210        3.37120
C          3.45130        8.06300        3.82880
C          2.74740        5.97000        1.63870
S          1.81390        4.62540        1.00200
C          1.98210        3.76980        2.49150
C          1.57760        2.53390        3.01100
N          0.86990        1.44290        2.59000
C          0.83310        0.52480        3.62570
C          0.29410       -0.78700        3.76240
N         -0.27790       -1.68530        2.87790
C         -0.61340       -2.81410        3.57150
C         -1.15090       -4.07690        3.29430
S         -1.75410       -4.91290        1.90960
C         -0.48470       -1.67710        1.44950
C         -1.93750       -1.36260        1.09090
C          0.24420        1.49250        1.28990
C          1.23700        1.17600        0.17030
C          3.04220        7.04410        0.75030
S          2.00250        7.28230       -0.64860
C          2.98940        8.59520       -1.17110
C          3.10010        9.52440       -2.20060
C          4.25860       10.29830       -1.90730
N          4.82170        9.87050       -0.72870
C          6.07110       10.32260       -0.17300
C          7.25980        9.59840       -0.80200
C          4.06710        8.81810       -0.28380
C          4.09460        7.93630        0.79930
C          4.51150       11.26470       -2.85810
C          3.56260       11.25310       -3.89080
S          2.32960       10.00910       -3.65860
C          3.64410       12.14870       -4.96090
C          2.83870       12.30590       -6.06560
C          1.64330       11.51560       -6.37010
O          1.16340       10.60600       -5.71530
C          1.11810       12.03750       -7.64340
C          0.02250       11.63030       -8.34640
C         -0.29670       12.28110       -9.55930
C         -1.41720       11.90420      -10.32650
C         -1.71540       12.54220      -11.49870
C         -0.88540       13.58430      -11.93210
F         -1.19450       14.20110      -13.08850
C          0.21360       13.98890      -11.22660
C          0.53500       13.34350      -10.01690
C          1.66570       13.74170       -9.26430
C          1.95430       13.09860       -8.09080
C          3.03100       13.28050       -7.11750
C          4.02830       14.22010       -7.21750
C          5.08340       14.40820       -6.30300
N          5.97590       14.63040       -5.61310
C          4.13670       15.14760       -8.27370
N          4.28540       15.93360       -9.09800
H         -5.36800      -12.25660       -3.52060
H         -3.56880      -17.98730       -1.67180
H         -3.90950      -19.80730       -3.34680
H         -5.83150      -17.06770       -6.00580
H         -1.74400      -11.78210        2.99920
H         -2.63120      -13.01570        2.07720
H         -3.51750      -12.82930        4.40100
H         -3.85860      -11.11510        4.14490
H         -4.74680      -12.34060        3.23010
H         -3.88380      -13.45440       -0.08480
H         -1.95980       -9.10960        3.56100
H         -0.03010       -6.91230        6.13500
H         -0.44780       -8.51960        7.95430
H         -2.62910       -9.64660        8.13490
H         -5.32000       -9.33970        5.60630
H         -4.70600      -10.32430        6.94410
H         -5.81830       -7.48820        7.19800
H         -6.65860       -8.97040        7.66660
H         -5.20430       -8.46280        8.53260
H         -4.00730       -7.51990        4.70400
H          5.26420        5.29710        4.53170
H          6.45120        6.92910        5.94340
H          5.73770        9.28440        5.98220
H          4.04430       10.93170        5.50280
H          2.60500       10.49590        4.57050
H          5.35710       11.08910        3.38070
H          3.90680       10.67460        2.45800
H          3.97590       12.18890        3.36430
H          2.59340        8.37220        3.24880
H         -0.24790       -2.68250        1.08470
H          0.20880       -0.98790        0.97860
H         -2.04320       -1.28010        0.01280
H         -2.27030       -0.43470        1.55210
H         -2.58740       -2.16100        1.43930
H         -0.12260        2.51480        1.14740
H         -0.61760        0.83200        1.27030
H          0.71530        1.11430       -0.78060
H          1.75800        0.23780        0.35150
H          1.98300        1.96310        0.10160
H          6.04810       10.14270        0.90460
H          6.15220       11.39920       -0.34550
H          7.18470        8.52770       -0.62650
H          8.18800        9.95980       -0.36880
H          7.28330        9.77290       -1.87510
H          4.84150        7.91790        1.57070
H          5.33130       11.96080       -2.84730
H          4.49240       12.81830       -4.88560
H         -0.59320       10.82170       -7.98190
H         -2.04120       11.09780       -9.97120
H         -2.56920       12.26670      -12.09720
H          0.83020       14.79560      -11.59130
H          2.27300       14.54880       -9.64080
