
  xtb     02042221043D
 energy: -292.448433987652 gnorm: 0.000349072785 xtb: 6.4.1 (unknown)
165183  0     0  0            999 V2000
  -10.3109    0.2697  -10.2755 C   0  0  0  0  0  0  0  0  0  0  0  0
  -11.5204    0.4366   -9.6411 C   0  0  0  0  0  0  0  0  0  0  0  0
  -11.7361    0.4348   -8.1912 C   0  0  0  0  0  0  0  0  0  0  0  0
  -10.9066    0.2794   -7.3126 O   0  0  0  0  0  0  0  0  0  0  0  0
  -13.1803    0.6629   -7.9941 C   0  0  0  0  0  0  0  0  0  0  0  0
  -13.8928    0.7521   -6.8143 C   0  0  0  0  0  0  0  0  0  0  0  0
  -15.2591    0.9764   -6.8809 C   0  0  0  0  0  0  0  0  0  0  0  0
  -15.8766    1.1057   -8.1190 C   0  0  0  0  0  0  0  0  0  0  0  0
  -17.5758    1.3859   -8.1830 Cl  0  0  0  0  0  0  0  0  0  0  0  0
  -15.1694    1.0169   -9.3148 C   0  0  0  0  0  0  0  0  0  0  0  0
  -13.8054    0.7923   -9.2460 C   0  0  0  0  0  0  0  0  0  0  0  0
  -12.7921    0.6496  -10.2954 C   0  0  0  0  0  0  0  0  0  0  0  0
  -13.0445    0.7074  -11.6434 C   0  0  0  0  0  0  0  0  0  0  0  0
  -14.3218    0.9177  -12.2036 C   0  0  0  0  0  0  0  0  0  0  0  0
  -15.3278    1.0838  -12.7318 N   0  0  0  0  0  0  0  0  0  0  0  0
  -12.0896    0.5653  -12.6708 C   0  0  0  0  0  0  0  0  0  0  0  0
  -11.3816    0.4602  -13.5703 N   0  0  0  0  0  0  0  0  0  0  0  0
   -9.0288    0.0585   -9.7611 C   0  0  0  0  0  0  0  0  0  0  0  0
   -8.5914   -0.0679   -8.0543 S   0  0  0  0  0  0  0  0  0  0  0  0
   -6.9480   -0.3117   -8.4966 C   0  0  0  0  0  0  0  0  0  0  0  0
   -5.6944   -0.5415   -7.9376 C   0  0  0  0  0  0  0  0  0  0  0  0
   -4.7739   -0.6502   -9.0050 C   0  0  0  0  0  0  0  0  0  0  0  0
   -5.4215   -0.4751  -10.1974 N   0  0  0  0  0  0  0  0  0  0  0  0
   -4.8337   -0.6285  -11.5031 C   0  0  0  0  0  0  0  0  0  0  0  0
   -4.6832   -2.1006  -11.8815 C   0  0  0  0  0  0  0  0  0  0  0  0
   -6.7513   -0.2893   -9.9076 C   0  0  0  0  0  0  0  0  0  0  0  0
   -7.9205   -0.0826  -10.6086 C   0  0  0  0  0  0  0  0  0  0  0  0
   -3.4630   -0.8991   -8.5962 C   0  0  0  0  0  0  0  0  0  0  0  0
   -3.3733   -0.9966   -7.2224 C   0  0  0  0  0  0  0  0  0  0  0  0
   -4.9152   -0.7482   -6.4126 S   0  0  0  0  0  0  0  0  0  0  0  0
   -2.2137   -1.2613   -6.4405 C   0  0  0  0  0  0  0  0  0  0  0  0
   -1.0237   -1.8592   -6.8204 C   0  0  0  0  0  0  0  0  0  0  0  0
   -0.7563   -2.4910   -8.1152 C   0  0  0  0  0  0  0  0  0  0  0  0
   -1.6552   -3.4059   -8.6589 C   0  0  0  0  0  0  0  0  0  0  0  0
   -1.3737   -4.0115   -9.8680 C   0  0  0  0  0  0  0  0  0  0  0  0
   -0.2000   -3.7164  -10.5412 C   0  0  0  0  0  0  0  0  0  0  0  0
    0.7159   -2.8212  -10.0041 C   0  0  0  0  0  0  0  0  0  0  0  0
    1.9754   -2.4724  -10.7433 C   0  0  0  0  0  0  0  0  0  0  0  0
    1.7450   -1.2605  -11.6486 C   0  0  0  0  0  0  0  0  0  0  0  0
    0.4276   -2.2158   -8.7893 C   0  0  0  0  0  0  0  0  0  0  0  0
   -0.0945   -1.8594   -5.7621 C   0  0  0  0  0  0  0  0  0  0  0  0
    1.5375   -2.4706   -5.6251 S   0  0  0  0  0  0  0  0  0  0  0  0
    1.5633   -1.9624   -3.9700 C   0  0  0  0  0  0  0  0  0  0  0  0
    2.4540   -1.9113   -2.8858 C   0  0  0  0  0  0  0  0  0  0  0  0
    3.8239   -2.2379   -2.7901 C   0  0  0  0  0  0  0  0  0  0  0  0
    4.5263   -1.9312   -1.5763 C   0  0  0  0  0  0  0  0  0  0  0  0
    5.8140   -2.2299   -1.6486 N   0  0  0  0  0  0  0  0  0  0  0  0
    6.1158   -2.8499   -3.1129 S   0  0  0  0  0  0  0  0  0  0  0  0
    4.6150   -2.7583   -3.7154 N   0  0  0  0  0  0  0  0  0  0  0  0
    3.8014   -1.4245   -0.4759 C   0  0  0  0  0  0  0  0  0  0  0  0
    4.1938   -1.1556    0.8463 C   0  0  0  0  0  0  0  0  0  0  0  0
    5.6211   -1.1745    1.8259 S   0  0  0  0  0  0  0  0  0  0  0  0
    4.6557   -0.7012    3.2045 C   0  0  0  0  0  0  0  0  0  0  0  0
    4.9632   -0.4710    4.5618 C   0  0  0  0  0  0  0  0  0  0  0  0
    6.2653   -0.7295    5.1716 C   0  0  0  0  0  0  0  0  0  0  0  0
    7.4453   -0.4052    4.5073 C   0  0  0  0  0  0  0  0  0  0  0  0
    8.6640   -0.7074    5.0843 C   0  0  0  0  0  0  0  0  0  0  0  0
    8.7199   -1.3333    6.3195 C   0  0  0  0  0  0  0  0  0  0  0  0
    7.5524   -1.6724    6.9931 C   0  0  0  0  0  0  0  0  0  0  0  0
    7.5899   -2.3378    8.3392 C   0  0  0  0  0  0  0  0  0  0  0  0
    7.1440   -1.3815    9.4466 C   0  0  0  0  0  0  0  0  0  0  0  0
    6.3329   -1.3687    6.4063 C   0  0  0  0  0  0  0  0  0  0  0  0
    3.8373   -0.1089    5.2726 C   0  0  0  0  0  0  0  0  0  0  0  0
    2.3846   -0.1186    4.3012 S   0  0  0  0  0  0  0  0  0  0  0  0
    3.3017   -0.5459    2.9007 C   0  0  0  0  0  0  0  0  0  0  0  0
    3.0405   -0.8034    1.5483 C   0  0  0  0  0  0  0  0  0  0  0  0
    1.9523   -0.8117    0.7132 N   0  0  0  0  0  0  0  0  0  0  0  0
    2.4003   -1.1855   -0.5469 C   0  0  0  0  0  0  0  0  0  0  0  0
    1.7495   -1.3152   -1.8012 C   0  0  0  0  0  0  0  0  0  0  0  0
    0.4851   -0.9705   -2.2422 N   0  0  0  0  0  0  0  0  0  0  0  0
    0.3722   -1.3671   -3.5478 C   0  0  0  0  0  0  0  0  0  0  0  0
   -0.5757   -1.2996   -4.5761 C   0  0  0  0  0  0  0  0  0  0  0  0
   -2.1951   -0.7298   -4.7670 S   0  0  0  0  0  0  0  0  0  0  0  0
   -0.4795   -0.0476   -1.6904 C   0  0  0  0  0  0  0  0  0  0  0  0
   -1.7555   -0.7522   -1.2316 C   0  0  0  0  0  0  0  0  0  0  0  0
    0.6472   -0.9984    1.3111 C   0  0  0  0  0  0  0  0  0  0  0  0
    0.3159   -2.4835    1.4435 C   0  0  0  0  0  0  0  0  0  0  0  0
    3.7367    0.3068    6.6534 C   0  0  0  0  0  0  0  0  0  0  0  0
    4.5947    1.2883    7.1765 C   0  0  0  0  0  0  0  0  0  0  0  0
    5.4613    1.7984    6.2779 O   0  0  0  0  0  0  0  0  0  0  0  0
    6.5504    2.6516    6.6009 C   0  0  0  0  0  0  0  0  0  0  0  0
    7.6116    2.0017    7.4762 C   0  0  0  0  0  0  0  0  0  0  0  0
    4.4420    1.6882    8.5248 C   0  0  0  0  0  0  0  0  0  0  0  0
    5.1857    2.7253    9.0408 O   0  0  0  0  0  0  0  0  0  0  0  0
    4.4897    3.9726    9.0997 C   0  0  0  0  0  0  0  0  0  0  0  0
    5.2919    4.9242    9.9685 C   0  0  0  0  0  0  0  0  0  0  0  0
    3.5810    1.0011    9.3865 C   0  0  0  0  0  0  0  0  0  0  0  0
    2.6491    0.0747    8.8433 C   0  0  0  0  0  0  0  0  0  0  0  0
    2.7149   -0.2454    7.4632 C   0  0  0  0  0  0  0  0  0  0  0  0
    1.8480   -1.1258    6.9288 N   0  0  0  0  0  0  0  0  0  0  0  0
    0.9391   -1.6413    7.7114 C   0  0  0  0  0  0  0  0  0  0  0  0
    0.8224   -1.2572    9.0590 C   0  0  0  0  0  0  0  0  0  0  0  0
    1.6608   -0.4182    9.6074 N   0  0  0  0  0  0  0  0  0  0  0  0
    3.5755    1.2740   10.7949 C   0  0  0  0  0  0  0  0  0  0  0  0
    3.3351    0.3286   11.7402 C   0  0  0  0  0  0  0  0  0  0  0  0
    3.3728   -1.1421   11.5056 C   0  0  0  0  0  0  0  0  0  0  0  0
    3.8281   -1.7327   10.5506 O   0  0  0  0  0  0  0  0  0  0  0  0
    2.8998   -1.7473   12.7660 C   0  0  0  0  0  0  0  0  0  0  0  0
    2.6654   -3.0786   13.0542 C   0  0  0  0  0  0  0  0  0  0  0  0
    2.2321   -3.4173   14.3257 C   0  0  0  0  0  0  0  0  0  0  0  0
    2.0553   -2.4239   15.2831 C   0  0  0  0  0  0  0  0  0  0  0  0
    1.5183   -2.8651   16.8593 Cl  0  0  0  0  0  0  0  0  0  0  0  0
    2.3001   -1.0819   15.0110 C   0  0  0  0  0  0  0  0  0  0  0  0
    2.7259   -0.7449   13.7362 C   0  0  0  0  0  0  0  0  0  0  0  0
    3.0545    0.5523   13.1462 C   0  0  0  0  0  0  0  0  0  0  0  0
    3.0636    1.7496   13.8108 C   0  0  0  0  0  0  0  0  0  0  0  0
    3.3990    2.9950   13.2397 C   0  0  0  0  0  0  0  0  0  0  0  0
    3.6635    4.0437   12.8526 N   0  0  0  0  0  0  0  0  0  0  0  0
    2.7594    1.9036   15.1805 C   0  0  0  0  0  0  0  0  0  0  0  0
    2.5238    2.1031   16.2860 N   0  0  0  0  0  0  0  0  0  0  0  0
  -10.3285    0.3054  -11.3581 H   0  0  0  0  0  0  0  0  0  0  0  0
  -13.3870    0.6482   -5.8669 H   0  0  0  0  0  0  0  0  0  0  0  0
  -15.8488    1.0522   -5.9811 H   0  0  0  0  0  0  0  0  0  0  0  0
  -15.6898    1.1236  -10.2520 H   0  0  0  0  0  0  0  0  0  0  0  0
   -3.8532   -0.1429  -11.4987 H   0  0  0  0  0  0  0  0  0  0  0  0
   -5.4736   -0.1151  -12.2242 H   0  0  0  0  0  0  0  0  0  0  0  0
   -5.6540   -2.5908  -11.8821 H   0  0  0  0  0  0  0  0  0  0  0  0
   -4.2470   -2.1870  -12.8726 H   0  0  0  0  0  0  0  0  0  0  0  0
   -4.0362   -2.6078  -11.1692 H   0  0  0  0  0  0  0  0  0  0  0  0
   -8.0143   -0.0328  -11.6788 H   0  0  0  0  0  0  0  0  0  0  0  0
   -2.6150   -0.9951   -9.2476 H   0  0  0  0  0  0  0  0  0  0  0  0
   -2.5638   -3.6436   -8.1257 H   0  0  0  0  0  0  0  0  0  0  0  0
   -2.0700   -4.7241  -10.2864 H   0  0  0  0  0  0  0  0  0  0  0  0
    0.0119   -4.1941  -11.4868 H   0  0  0  0  0  0  0  0  0  0  0  0
    2.7694   -2.2442  -10.0301 H   0  0  0  0  0  0  0  0  0  0  0  0
    2.2942   -3.3207  -11.3517 H   0  0  0  0  0  0  0  0  0  0  0  0
    2.6571   -1.0066  -12.1833 H   0  0  0  0  0  0  0  0  0  0  0  0
    1.4382   -0.3996  -11.0584 H   0  0  0  0  0  0  0  0  0  0  0  0
    0.9644   -1.4733  -12.3760 H   0  0  0  0  0  0  0  0  0  0  0  0
    1.1294   -1.5137   -8.3628 H   0  0  0  0  0  0  0  0  0  0  0  0
    7.4039    0.0906    3.5497 H   0  0  0  0  0  0  0  0  0  0  0  0
    9.5788   -0.4535    4.5691 H   0  0  0  0  0  0  0  0  0  0  0  0
    9.6785   -1.5657    6.7612 H   0  0  0  0  0  0  0  0  0  0  0  0
    6.9242   -3.2040    8.3347 H   0  0  0  0  0  0  0  0  0  0  0  0
    8.6030   -2.6876    8.5480 H   0  0  0  0  0  0  0  0  0  0  0  0
    7.7755   -0.4956    9.4620 H   0  0  0  0  0  0  0  0  0  0  0  0
    6.1120   -1.0732    9.2963 H   0  0  0  0  0  0  0  0  0  0  0  0
    7.2113   -1.8723   10.4148 H   0  0  0  0  0  0  0  0  0  0  0  0
    5.4201   -1.6556    6.9082 H   0  0  0  0  0  0  0  0  0  0  0  0
   -0.0056    0.5181   -0.8873 H   0  0  0  0  0  0  0  0  0  0  0  0
   -0.7427    0.6651   -2.4806 H   0  0  0  0  0  0  0  0  0  0  0  0
   -1.5376   -1.5637   -0.5430 H   0  0  0  0  0  0  0  0  0  0  0  0
   -2.4152   -0.0397   -0.7439 H   0  0  0  0  0  0  0  0  0  0  0  0
   -2.2776   -1.1676   -2.0893 H   0  0  0  0  0  0  0  0  0  0  0  0
    0.6915   -0.5420    2.3032 H   0  0  0  0  0  0  0  0  0  0  0  0
   -0.1256   -0.4892    0.7441 H   0  0  0  0  0  0  0  0  0  0  0  0
    1.0596   -2.9798    2.0626 H   0  0  0  0  0  0  0  0  0  0  0  0
   -0.6592   -2.6070    1.9069 H   0  0  0  0  0  0  0  0  0  0  0  0
    0.3078   -2.9625    0.4662 H   0  0  0  0  0  0  0  0  0  0  0  0
    6.9710    2.8792    5.6165 H   0  0  0  0  0  0  0  0  0  0  0  0
    6.2003    3.5843    7.0514 H   0  0  0  0  0  0  0  0  0  0  0  0
    8.4620    2.6738    7.5550 H   0  0  0  0  0  0  0  0  0  0  0  0
    7.9393    1.0655    7.0343 H   0  0  0  0  0  0  0  0  0  0  0  0
    7.2240    1.8123    8.4728 H   0  0  0  0  0  0  0  0  0  0  0  0
    4.3819    4.3751    8.0801 H   0  0  0  0  0  0  0  0  0  0  0  0
    3.4815    3.8325    9.5088 H   0  0  0  0  0  0  0  0  0  0  0  0
    6.3148    4.9847    9.6063 H   0  0  0  0  0  0  0  0  0  0  0  0
    4.8403    5.9112    9.9380 H   0  0  0  0  0  0  0  0  0  0  0  0
    5.3025    4.5771   10.9979 H   0  0  0  0  0  0  0  0  0  0  0  0
    0.2639   -2.3582    7.2648 H   0  0  0  0  0  0  0  0  0  0  0  0
    0.0257   -1.6277    9.6896 H   0  0  0  0  0  0  0  0  0  0  0  0
    3.7712    2.2903   11.1029 H   0  0  0  0  0  0  0  0  0  0  0  0
    2.8146   -3.8303   12.2947 H   0  0  0  0  0  0  0  0  0  0  0  0
    2.0303   -4.4451   14.5831 H   0  0  0  0  0  0  0  0  0  0  0  0
    2.1553   -0.3445   15.7830 H   0  0  0  0  0  0  0  0  0  0  0  0
  1  2  2  0  0  0  0
  2  3  1  0  0  0  0
  3  4  2  0  0  0  0
  3  5  1  0  0  0  0
  5  6  2  0  0  0  0
  6  7  1  0  0  0  0
  7  8  2  0  0  0  0
  8  9  1  0  0  0  0
  8 10  1  0  0  0  0
 10 11  2  0  0  0  0
 11 12  1  0  0  0  0
 12 13  2  0  0  0  0
 13 14  1  0  0  0  0
 14 15  3  0  0  0  0
 13 16  1  0  0  0  0
 16 17  3  0  0  0  0
  1 18  1  0  0  0  0
 18 19  1  0  0  0  0
 19 20  1  0  0  0  0
 20 21  1  0  0  0  0
 21 22  2  0  0  0  0
 22 23  1  0  0  0  0
 23 24  1  0  0  0  0
 24 25  1  0  0  0  0
 23 26  1  0  0  0  0
 26 27  1  0  0  0  0
 22 28  1  0  0  0  0
 28 29  2  0  0  0  0
 29 30  1  0  0  0  0
 29 31  1  0  0  0  0
 31 32  2  0  0  0  0
 32 33  1  0  0  0  0
 33 34  2  0  0  0  0
 34 35  1  0  0  0  0
 35 36  2  0  0  0  0
 36 37  1  0  0  0  0
 37 38  1  0  0  0  0
 38 39  1  0  0  0  0
 37 40  2  0  0  0  0
 32 41  1  0  0  0  0
 41 42  1  0  0  0  0
 42 43  1  0  0  0  0
 43 44  1  0  0  0  0
 44 45  1  0  0  0  0
 45 46  1  0  0  0  0
 46 47  2  0  0  0  0
 47 48  1  0  0  0  0
 48 49  1  0  0  0  0
 46 50  1  0  0  0  0
 50 51  1  0  0  0  0
 51 52  1  0  0  0  0
 52 53  1  0  0  0  0
 53 54  1  0  0  0  0
 54 55  1  0  0  0  0
 55 56  2  0  0  0  0
 56 57  1  0  0  0  0
 57 58  2  0  0  0  0
 58 59  1  0  0  0  0
 59 60  1  0  0  0  0
 60 61  1  0  0  0  0
 59 62  2  0  0  0  0
 54 63  2  0  0  0  0
 63 64  1  0  0  0  0
 64 65  1  0  0  0  0
 65 66  1  0  0  0  0
 66 67  1  0  0  0  0
 67 68  1  0  0  0  0
 68 69  1  0  0  0  0
 69 70  1  0  0  0  0
 70 71  1  0  0  0  0
 71 72  1  0  0  0  0
 72 73  1  0  0  0  0
 70 74  1  0  0  0  0
 74 75  1  0  0  0  0
 67 76  1  0  0  0  0
 76 77  1  0  0  0  0
 63 78  1  0  0  0  0
 78 79  2  0  0  0  0
 79 80  1  0  0  0  0
 80 81  1  0  0  0  0
 81 82  1  0  0  0  0
 79 83  1  0  0  0  0
 83 84  1  0  0  0  0
 84 85  1  0  0  0  0
 85 86  1  0  0  0  0
 83 87  2  0  0  0  0
 87 88  1  0  0  0  0
 88 89  2  0  0  0  0
 89 90  1  0  0  0  0
 90 91  2  0  0  0  0
 91 92  1  0  0  0  0
 92 93  2  0  0  0  0
 87 94  1  0  0  0  0
 94 95  2  0  0  0  0
 95 96  1  0  0  0  0
 96 97  2  0  0  0  0
 96 98  1  0  0  0  0
 98 99  2  0  0  0  0
 99100  1  0  0  0  0
100101  2  0  0  0  0
101102  1  0  0  0  0
101103  1  0  0  0  0
103104  2  0  0  0  0
104105  1  0  0  0  0
105106  2  0  0  0  0
106107  1  0  0  0  0
107108  3  0  0  0  0
106109  1  0  0  0  0
109110  3  0  0  0  0
 12  2  1  0  0  0  0
 27 18  2  0  0  0  0
 73 31  1  0  0  0  0
 89 78  1  0  0  0  0
105 95  1  0  0  0  0
 11  5  1  0  0  0  0
 26 20  2  0  0  0  0
 40 33  1  0  0  0  0
 72 41  2  0  0  0  0
 93 88  1  0  0  0  0
104 98  1  0  0  0  0
 30 21  1  0  0  0  0
 71 43  2  0  0  0  0
 69 44  2  0  0  0  0
 49 45  2  0  0  0  0
 68 50  2  0  0  0  0
 66 51  2  0  0  0  0
 65 53  2  0  0  0  0
 62 55  1  0  0  0  0
  1111  1  0  0  0  0
  6112  1  0  0  0  0
  7113  1  0  0  0  0
 10114  1  0  0  0  0
 24115  1  0  0  0  0
 24116  1  0  0  0  0
 25117  1  0  0  0  0
 25118  1  0  0  0  0
 25119  1  0  0  0  0
 27120  1  0  0  0  0
 28121  1  0  0  0  0
 34122  1  0  0  0  0
 35123  1  0  0  0  0
 36124  1  0  0  0  0
 38125  1  0  0  0  0
 38126  1  0  0  0  0
 39127  1  0  0  0  0
 39128  1  0  0  0  0
 39129  1  0  0  0  0
 40130  1  0  0  0  0
 56131  1  0  0  0  0
 57132  1  0  0  0  0
 58133  1  0  0  0  0
 60134  1  0  0  0  0
 60135  1  0  0  0  0
 61136  1  0  0  0  0
 61137  1  0  0  0  0
 61138  1  0  0  0  0
 62139  1  0  0  0  0
 74140  1  0  0  0  0
 74141  1  0  0  0  0
 75142  1  0  0  0  0
 75143  1  0  0  0  0
 75144  1  0  0  0  0
 76145  1  0  0  0  0
 76146  1  0  0  0  0
 77147  1  0  0  0  0
 77148  1  0  0  0  0
 77149  1  0  0  0  0
 81150  1  0  0  0  0
 81151  1  0  0  0  0
 82152  1  0  0  0  0
 82153  1  0  0  0  0
 82154  1  0  0  0  0
 85155  1  0  0  0  0
 85156  1  0  0  0  0
 86157  1  0  0  0  0
 86158  1  0  0  0  0
 86159  1  0  0  0  0
 91160  1  0  0  0  0
 92161  1  0  0  0  0
 94162  1  0  0  0  0
 99163  1  0  0  0  0
100164  1  0  0  0  0
103165  1  0  0  0  0
M  END
