155

C          0.10160        6.98680       -8.23000
C         -0.63560        6.33550       -9.17210
C         -1.40010        5.07820       -8.94370
O         -1.36920        4.34600       -7.97540
C         -2.26460        4.94830      -10.12420
C         -2.01940        6.00310      -10.99540
S         -2.97240        5.95870      -12.43400
C         -3.73200        4.50310      -11.86870
C         -4.71850        3.64920      -12.39580
C         -4.96760        2.61290      -11.55190
S         -4.02070        2.63720      -10.10360
C         -3.24950        4.08690      -10.62060
C         -0.99700        6.86620      -10.47970
C         -0.43320        7.92490      -11.14550
C         -0.89960        8.30910      -12.41900
N         -1.28010        8.62370      -13.45500
C          0.66380        8.67300      -10.67850
N          1.58340        9.28750      -10.36960
C          0.42860        6.46980       -6.93620
C          0.80030        5.15240       -6.65850
O          1.32120        4.28520       -7.54780
C          1.83160        4.69570       -8.79690
C          2.98870        3.77060       -9.14740
C          0.79620        4.67140       -5.31350
O          1.00260        3.37050       -5.01340
C          0.52220        2.34900       -5.88650
C          0.04260        1.18920       -5.02660
C          0.68470        5.55270       -4.24340
C          0.39990        6.92610       -4.50640
C          0.29170        7.38320       -5.84260
N          0.02790        8.67410       -6.10140
C         -0.12830        9.48310       -5.08240
C         -0.10800        9.01230       -3.76260
N          0.14570        7.75800       -3.48640
C          0.85040        5.09290       -2.88750
C          1.40430        5.77360       -1.81710
C          2.12210        7.04390       -1.91580
C          1.96440        8.02610       -0.94280
C          2.63930        9.22580       -1.06080
C          3.47600        9.45690       -2.13900
C          3.67020        8.47540       -3.10260
C          4.54530        8.72150       -4.29900
C          3.69350        9.08170       -5.51780
C          2.99890        7.27030       -2.97290
C          1.28740        5.02920       -0.62560
S          1.80570        5.31900        1.01950
C          1.21120        3.75350        1.46420
C          1.12530        2.92140        2.59600
C          1.42280        3.11920        3.96300
C          1.14120        2.06330        4.90010
N          1.41140        2.41180        6.14780
S          1.97570        3.92950        6.14840
N          1.89800        4.20320        4.55510
C          0.71270        0.80640        4.41530
C          0.56530       -0.44530        5.03770
S          0.64430       -1.14740        6.61830
C          0.34580       -2.71880        5.91400
C          0.25040       -4.01470        6.45810
C          0.45710       -4.34860        7.86580
C         -0.09060       -3.55510        8.86960
C          0.07970       -3.91070       10.19340
C          0.78740       -5.05260       10.52790
C          1.36070       -5.84310        9.54030
C          2.10580       -7.10300        9.88000
C          1.29480       -8.33760        9.48130
C          1.19910       -5.47320        8.21420
C          0.02020       -4.95200        5.46620
S         -0.04400       -4.25140        3.86170
C          0.20380       -2.67910        4.52380
C          0.31950       -1.37710        4.02470
N          0.27190       -0.75450        2.80400
C          0.49190        0.59480        3.02760
C          0.54690        1.70310        2.15090
N          0.21720        1.81860        0.81280
C          0.63960        3.05500        0.39610
C          0.67820        3.78540       -0.79750
S          0.25580        3.50860       -2.44740
C         -0.85930        1.13500        0.13020
C         -2.08210        2.03690       -0.03210
C          0.49820       -1.52550        1.59620
C          1.82940       -1.18030        0.93740
C         -0.22460       -6.36720        5.61460
C         -1.05940       -6.88020        6.61960
F         -1.68350       -6.04350        7.45550
C         -1.28500       -8.23700        6.74950
F         -2.08360       -8.67820        7.72890
C         -0.75240       -9.16950        5.84980
C          0.07720       -8.65680        4.84630
F          0.67960       -9.50120        3.99230
C          0.33550       -7.30460        4.73640
F          1.17130       -6.88770        3.77300
C         -1.01520      -10.58050        6.01680
C         -1.18940      -11.53080        5.07750
C         -1.10300      -12.97760        5.48400
O         -1.09460      -13.40400        6.61260
C         -0.98770      -13.70540        4.21950
C         -1.12100      -12.81030        3.15950
S         -1.03500      -13.55110        1.60530
C         -0.79880      -15.09370        2.36650
C         -0.62000      -16.40220        1.88310
C         -0.49080      -17.28600        2.90930
S         -0.58390      -16.56750        4.47950
C         -0.80290      -15.01660        3.76660
C         -1.35990      -11.47600        3.62690
C         -1.82910      -10.44880        2.84980
C         -2.27050       -9.20170        3.32610
N         -2.66940       -8.17920        3.66290
C         -1.97900      -10.60210        1.45460
N         -2.10050      -10.70970        0.31910
H          0.33750        8.03330       -8.37740
H         -5.20990        3.79710      -13.33910
H         -5.66770        1.81330      -11.69230
H          1.04790        4.62260       -9.56440
H          2.16670        5.74010       -8.75060
H          2.64140        2.74210       -9.19430
H          3.40090        4.05180      -10.11200
H          3.76790        3.84190       -8.39320
H          1.34090        2.02460       -6.53810
H         -0.29400        2.73190       -6.50390
H         -0.79590        1.50030       -4.40950
H         -0.27010        0.36870       -5.66600
H          0.84540        0.85180       -4.37660
H         -0.30320       10.52390       -5.31740
H         -0.31380        9.65790       -2.92050
H          1.29440        7.85710       -0.11420
H          2.50770        9.99090       -0.30960
H          3.98950       10.40340       -2.23070
H          5.12770        7.82440       -4.52130
H          5.24030        9.53680       -4.09050
H          3.10320        9.97350       -5.31810
H          4.32270        9.27030       -6.38420
H          3.00880        8.27040       -5.75790
H          3.15460        6.49230       -3.70780
H         -0.66620       -2.68100        8.60830
H         -0.35210       -3.29890       10.97130
H          0.90040       -5.33070       11.56580
H          3.06340       -7.11830        9.35350
H          2.30710       -7.13420       10.95190
H          1.81190       -9.24560        9.78270
H          1.14780       -8.36700        8.40290
H          0.31780       -8.31910        9.95920
H          1.66740       -6.06310        7.43800
H         -0.50760        0.80290       -0.85200
H         -1.15140        0.27670        0.72960
H         -2.89440        1.46790       -0.47610
H         -1.86250        2.88340       -0.67550
H         -2.40520        2.40830        0.93810
H         -0.32000       -1.40460        0.88290
H          0.50580       -2.57520        1.89980
H          2.64470       -1.32030        1.64350
H          1.99160       -1.83380        0.08490
H          1.84290       -0.14970        0.59380
H         -1.04250      -10.93060        7.04450
H         -0.58950      -16.66820        0.84330
H         -0.34280      -18.34550        2.83810
