
  xtb     02032223303D
 energy: -316.270836227915 gnorm: 0.000354790355 xtb: 6.4.1 (unknown)
194214  0     0  0            999 V2000
    4.5228   11.2675   10.6369 C   0  0  0  0  0  0  0  0  0  0  0  0
    3.7576   12.1679   11.3201 C   0  0  0  0  0  0  0  0  0  0  0  0
    2.2802   12.1733   11.4350 C   0  0  0  0  0  0  0  0  0  0  0  0
    1.4912   11.3777   10.9687 O   0  0  0  0  0  0  0  0  0  0  0  0
    1.9635   13.3541   12.2481 C   0  0  0  0  0  0  0  0  0  0  0  0
    3.1445   13.9956   12.5991 C   0  0  0  0  0  0  0  0  0  0  0  0
    2.9110   15.4078   13.5650 S   0  0  0  0  0  0  0  0  0  0  0  0
    1.1948   15.1479   13.5063 C   0  0  0  0  0  0  0  0  0  0  0  0
    0.0857   15.8299   14.0392 C   0  0  0  0  0  0  0  0  0  0  0  0
   -1.0759   15.2093   13.7002 C   0  0  0  0  0  0  0  0  0  0  0  0
   -0.8642   13.7905   12.7324 S   0  0  0  0  0  0  0  0  0  0  0  0
    0.8423   14.0112   12.7664 C   0  0  0  0  0  0  0  0  0  0  0  0
    4.2835   13.3089   12.0594 C   0  0  0  0  0  0  0  0  0  0  0  0
    5.5870   13.7050   12.2390 C   0  0  0  0  0  0  0  0  0  0  0  0
    5.8904   14.8579   12.9922 C   0  0  0  0  0  0  0  0  0  0  0  0
    6.1490   15.7950   13.6026 N   0  0  0  0  0  0  0  0  0  0  0  0
    6.7307   13.0619   11.7326 C   0  0  0  0  0  0  0  0  0  0  0  0
    7.7098   12.5936   11.3552 N   0  0  0  0  0  0  0  0  0  0  0  0
    4.1587   10.1454    9.8640 C   0  0  0  0  0  0  0  0  0  0  0  0
    5.1092    9.3654    9.2299 C   0  0  0  0  0  0  0  0  0  0  0  0
    4.5749    8.3040    8.4847 C   0  0  0  0  0  0  0  0  0  0  0  0
    5.2702    7.3675    7.6867 C   0  0  0  0  0  0  0  0  0  0  0  0
    6.7353    7.3448    7.6378 C   0  0  0  0  0  0  0  0  0  0  0  0
    7.4858    7.3194    8.8143 C   0  0  0  0  0  0  0  0  0  0  0  0
    8.8601    7.2833    8.7694 C   0  0  0  0  0  0  0  0  0  0  0  0
    9.5359    7.2795    7.5457 C   0  0  0  0  0  0  0  0  0  0  0  0
   10.8910    7.2647    7.6303 O   0  0  0  0  0  0  0  0  0  0  0  0
   11.6729    7.1753    6.4567 C   0  0  0  0  0  0  0  0  0  0  0  0
   11.7059    5.7630    5.8793 C   0  0  0  0  0  0  0  0  0  0  0  0
    8.7920    7.3082    6.3698 C   0  0  0  0  0  0  0  0  0  0  0  0
    7.4109    7.3361    6.4233 C   0  0  0  0  0  0  0  0  0  0  0  0
    4.4910    6.4819    6.9689 C   0  0  0  0  0  0  0  0  0  0  0  0
    3.0710    6.4616    7.0287 C   0  0  0  0  0  0  0  0  0  0  0  0
    2.3824    7.3882    7.8288 C   0  0  0  0  0  0  0  0  0  0  0  0
    0.9152    7.4196    7.8772 C   0  0  0  0  0  0  0  0  0  0  0  0
    0.2381    7.4301    9.0962 C   0  0  0  0  0  0  0  0  0  0  0  0
   -1.1368    7.4625    9.1349 C   0  0  0  0  0  0  0  0  0  0  0  0
   -1.8824    7.4959    7.9540 C   0  0  0  0  0  0  0  0  0  0  0  0
   -3.2316    7.5238    8.1050 O   0  0  0  0  0  0  0  0  0  0  0  0
   -4.0511    7.5692    6.9545 C   0  0  0  0  0  0  0  0  0  0  0  0
   -5.4986    7.5998    7.4194 C   0  0  0  0  0  0  0  0  0  0  0  0
   -1.2129    7.4980    6.7345 C   0  0  0  0  0  0  0  0  0  0  0  0
    0.1693    7.4582    6.7049 C   0  0  0  0  0  0  0  0  0  0  0  0
    3.1552    8.2898    8.5469 C   0  0  0  0  0  0  0  0  0  0  0  0
    2.5324    9.5682    9.5531 S   0  0  0  0  0  0  0  0  0  0  0  0
    2.5260    5.4213    6.2399 C   0  0  0  0  0  0  0  0  0  0  0  0
    3.4627    4.6801    5.5773 C   0  0  0  0  0  0  0  0  0  0  0  0
    5.0965    5.2231    5.9174 S   0  0  0  0  0  0  0  0  0  0  0  0
    3.2425    3.6124    4.6665 C   0  0  0  0  0  0  0  0  0  0  0  0
    1.6069    3.1173    4.2726 S   0  0  0  0  0  0  0  0  0  0  0  0
    2.2192    1.9592    3.1617 C   0  0  0  0  0  0  0  0  0  0  0  0
    1.6713    1.0190    2.2352 C   0  0  0  0  0  0  0  0  0  0  0  0
    2.7639    0.4103    1.5760 C   0  0  0  0  0  0  0  0  0  0  0  0
    4.0683    0.9481    2.1085 C   0  0  0  0  0  0  0  0  0  0  0  0
    3.6037    1.9558    3.1101 C   0  0  0  0  0  0  0  0  0  0  0  0
    4.1865    2.8897    3.9643 C   0  0  0  0  0  0  0  0  0  0  0  0
    2.5598   -0.5165    0.5791 C   0  0  0  0  0  0  0  0  0  0  0  0
    1.2437   -0.8258    0.2443 C   0  0  0  0  0  0  0  0  0  0  0  0
    0.6926   -1.6971   -0.7522 C   0  0  0  0  0  0  0  0  0  0  0  0
   -0.6677   -1.6628   -0.7038 C   0  0  0  0  0  0  0  0  0  0  0  0
   -1.1652   -0.7371    0.3670 C   0  0  0  0  0  0  0  0  0  0  0  0
   -1.9864   -1.4701    1.4434 C   0  0  0  0  0  0  0  0  0  0  0  0
   -1.2508   -2.6620    2.0425 C   0  0  0  0  0  0  0  0  0  0  0  0
   -2.0015    0.4162   -0.2187 C   0  0  0  0  0  0  0  0  0  0  0  0
   -1.2806    1.1680   -1.3307 C   0  0  0  0  0  0  0  0  0  0  0  0
    0.1520   -0.2305    0.9246 C   0  0  0  0  0  0  0  0  0  0  0  0
    0.3534    0.6925    1.9218 C   0  0  0  0  0  0  0  0  0  0  0  0
   -1.2167   -2.5112   -1.7193 C   0  0  0  0  0  0  0  0  0  0  0  0
   -0.1254   -3.0765   -2.4284 C   0  0  0  0  0  0  0  0  0  0  0  0
    1.1906   -2.5438   -1.8904 C   0  0  0  0  0  0  0  0  0  0  0  0
    2.1393   -3.6660   -1.4484 C   0  0  0  0  0  0  0  0  0  0  0  0
    1.5691   -4.4840   -0.2959 C   0  0  0  0  0  0  0  0  0  0  0  0
    1.8688   -1.5817   -2.8954 C   0  0  0  0  0  0  0  0  0  0  0  0
    2.3344   -2.2047   -4.2044 C   0  0  0  0  0  0  0  0  0  0  0  0
   -0.3393   -3.9798   -3.4425 C   0  0  0  0  0  0  0  0  0  0  0  0
   -1.6603   -4.2762   -3.7723 C   0  0  0  0  0  0  0  0  0  0  0  0
   -2.2135   -5.1190   -4.7854 C   0  0  0  0  0  0  0  0  0  0  0  0
   -3.5989   -5.0920   -4.7489 C   0  0  0  0  0  0  0  0  0  0  0  0
   -4.0571   -4.1923   -3.6460 C   0  0  0  0  0  0  0  0  0  0  0  0
   -2.7491   -3.7004   -3.0792 C   0  0  0  0  0  0  0  0  0  0  0  0
   -2.5355   -2.8221   -2.0418 C   0  0  0  0  0  0  0  0  0  0  0  0
   -4.1891   -5.8734   -5.7389 C   0  0  0  0  0  0  0  0  0  0  0  0
   -3.2486   -6.4954   -6.5401 C   0  0  0  0  0  0  0  0  0  0  0  0
   -1.6124   -6.1125   -6.0485 S   0  0  0  0  0  0  0  0  0  0  0  0
   -3.4844   -7.3363   -7.6634 C   0  0  0  0  0  0  0  0  0  0  0  0
   -4.6903   -7.7425   -8.1653 C   0  0  0  0  0  0  0  0  0  0  0  0
   -4.5839   -8.5597   -9.3151 C   0  0  0  0  0  0  0  0  0  0  0  0
   -5.6275   -9.1009  -10.0861 C   0  0  0  0  0  0  0  0  0  0  0  0
   -7.0333   -8.9508   -9.6906 C   0  0  0  0  0  0  0  0  0  0  0  0
   -7.9907   -8.4891  -10.5931 C   0  0  0  0  0  0  0  0  0  0  0  0
   -9.3064   -8.3572  -10.2133 C   0  0  0  0  0  0  0  0  0  0  0  0
   -9.7148   -8.6914   -8.9194 C   0  0  0  0  0  0  0  0  0  0  0  0
  -11.0402   -8.5331   -8.6677 O   0  0  0  0  0  0  0  0  0  0  0  0
  -11.5495   -8.7730   -7.3720 C   0  0  0  0  0  0  0  0  0  0  0  0
  -11.2500   -7.6327   -6.4024 C   0  0  0  0  0  0  0  0  0  0  0  0
   -8.7652   -9.1637   -8.0181 C   0  0  0  0  0  0  0  0  0  0  0  0
   -7.4437   -9.2875   -8.4058 C   0  0  0  0  0  0  0  0  0  0  0  0
   -5.2570   -9.7977  -11.2252 C   0  0  0  0  0  0  0  0  0  0  0  0
   -3.9043   -9.9942  -11.6120 C   0  0  0  0  0  0  0  0  0  0  0  0
   -2.8579   -9.4564  -10.8347 C   0  0  0  0  0  0  0  0  0  0  0  0
   -1.4524   -9.6037  -11.2274 C   0  0  0  0  0  0  0  0  0  0  0  0
   -0.5017  -10.0577  -10.3210 C   0  0  0  0  0  0  0  0  0  0  0  0
    0.8273  -10.1885  -10.6791 C   0  0  0  0  0  0  0  0  0  0  0  0
    1.2405   -9.8507  -11.9643 C   0  0  0  0  0  0  0  0  0  0  0  0
    2.5134   -9.9088  -12.4332 O   0  0  0  0  0  0  0  0  0  0  0  0
    3.5470  -10.4229  -11.6171 C   0  0  0  0  0  0  0  0  0  0  0  0
    3.5375  -11.9474  -11.5485 C   0  0  0  0  0  0  0  0  0  0  0  0
    0.2888   -9.3844  -12.8760 C   0  0  0  0  0  0  0  0  0  0  0  0
   -1.0335   -9.2664  -12.5150 C   0  0  0  0  0  0  0  0  0  0  0  0
   -3.2322   -8.7619   -9.6988 C   0  0  0  0  0  0  0  0  0  0  0  0
   -2.1397   -7.9606   -8.5987 S   0  0  0  0  0  0  0  0  0  0  0  0
   -3.8020  -10.7923  -12.7680 C   0  0  0  0  0  0  0  0  0  0  0  0
   -5.0165  -11.1865  -13.2800 C   0  0  0  0  0  0  0  0  0  0  0  0
   -6.3597  -10.5819  -12.3240 S   0  0  0  0  0  0  0  0  0  0  0  0
   -5.1777  -11.9793  -14.4403 C   0  0  0  0  0  0  0  0  0  0  0  0
   -6.3469  -12.3756  -15.0187 C   0  0  0  0  0  0  0  0  0  0  0  0
   -7.6409  -12.0579  -14.5560 C   0  0  0  0  0  0  0  0  0  0  0  0
   -8.7185  -11.8308  -14.2330 N   0  0  0  0  0  0  0  0  0  0  0  0
   -6.3251  -13.1672  -16.1883 C   0  0  0  0  0  0  0  0  0  0  0  0
   -6.2967  -13.8096  -17.1380 N   0  0  0  0  0  0  0  0  0  0  0  0
    5.5953   11.4232   10.6689 H   0  0  0  0  0  0  0  0  0  0  0  0
    0.1480   16.7215   14.6344 H   0  0  0  0  0  0  0  0  0  0  0  0
   -2.0717   15.5048   13.9656 H   0  0  0  0  0  0  0  0  0  0  0  0
    6.1618    9.5811    9.2890 H   0  0  0  0  0  0  0  0  0  0  0  0
    6.9800    7.3001    9.7683 H   0  0  0  0  0  0  0  0  0  0  0  0
    9.4456    7.2580    9.6748 H   0  0  0  0  0  0  0  0  0  0  0  0
   11.3291    7.8972    5.7056 H   0  0  0  0  0  0  0  0  0  0  0  0
   12.6765    7.4676    6.7781 H   0  0  0  0  0  0  0  0  0  0  0  0
   10.7097    5.4380    5.5890 H   0  0  0  0  0  0  0  0  0  0  0  0
   12.3544    5.7386    5.0078 H   0  0  0  0  0  0  0  0  0  0  0  0
   12.0885    5.0702    6.6244 H   0  0  0  0  0  0  0  0  0  0  0  0
    9.2710    7.3169    5.4035 H   0  0  0  0  0  0  0  0  0  0  0  0
    6.8504    7.3753    5.5010 H   0  0  0  0  0  0  0  0  0  0  0  0
    0.7970    7.3938   10.0187 H   0  0  0  0  0  0  0  0  0  0  0  0
   -1.6664    7.4649   10.0742 H   0  0  0  0  0  0  0  0  0  0  0  0
   -3.8239    8.4681    6.3642 H   0  0  0  0  0  0  0  0  0  0  0  0
   -3.8728    6.6834    6.3284 H   0  0  0  0  0  0  0  0  0  0  0  0
   -5.6691    8.4749    8.0402 H   0  0  0  0  0  0  0  0  0  0  0  0
   -5.7183    6.7119    8.0057 H   0  0  0  0  0  0  0  0  0  0  0  0
   -6.1628    7.6352    6.5605 H   0  0  0  0  0  0  0  0  0  0  0  0
   -1.7537    7.5355    5.8016 H   0  0  0  0  0  0  0  0  0  0  0  0
    0.6761    7.4842    5.7510 H   0  0  0  0  0  0  0  0  0  0  0  0
    1.4723    5.2172    6.1713 H   0  0  0  0  0  0  0  0  0  0  0  0
    4.6718    1.4014    1.3190 H   0  0  0  0  0  0  0  0  0  0  0  0
    4.6673    0.1597    2.5708 H   0  0  0  0  0  0  0  0  0  0  0  0
    5.2422    3.0605    4.0788 H   0  0  0  0  0  0  0  0  0  0  0  0
    3.3908   -0.9800    0.0685 H   0  0  0  0  0  0  0  0  0  0  0  0
   -2.9223   -1.8126    0.9971 H   0  0  0  0  0  0  0  0  0  0  0  0
   -2.2329   -0.7594    2.2351 H   0  0  0  0  0  0  0  0  0  0  0  0
   -0.3090   -2.3469    2.4867 H   0  0  0  0  0  0  0  0  0  0  0  0
   -1.0405   -3.4055    1.2774 H   0  0  0  0  0  0  0  0  0  0  0  0
   -1.8580   -3.1263    2.8162 H   0  0  0  0  0  0  0  0  0  0  0  0
   -2.2487    1.1099    0.5876 H   0  0  0  0  0  0  0  0  0  0  0  0
   -2.9365    0.0083   -0.6082 H   0  0  0  0  0  0  0  0  0  0  0  0
   -1.0783    0.5073   -2.1707 H   0  0  0  0  0  0  0  0  0  0  0  0
   -0.3351    1.5691   -0.9724 H   0  0  0  0  0  0  0  0  0  0  0  0
   -1.8947    1.9935   -1.6834 H   0  0  0  0  0  0  0  0  0  0  0  0
   -0.4647    1.1658    2.4442 H   0  0  0  0  0  0  0  0  0  0  0  0
    2.3274   -4.3273   -2.2953 H   0  0  0  0  0  0  0  0  0  0  0  0
    3.0915   -3.2264   -1.1445 H   0  0  0  0  0  0  0  0  0  0  0  0
    2.2465   -5.2952   -0.0386 H   0  0  0  0  0  0  0  0  0  0  0  0
    0.6082   -4.9129   -0.5731 H   0  0  0  0  0  0  0  0  0  0  0  0
    1.4283   -3.8609    0.5843 H   0  0  0  0  0  0  0  0  0  0  0  0
    1.1611   -0.7794   -3.1203 H   0  0  0  0  0  0  0  0  0  0  0  0
    2.7253   -1.1291   -2.3906 H   0  0  0  0  0  0  0  0  0  0  0  0
    2.8360   -1.4472   -4.8033 H   0  0  0  0  0  0  0  0  0  0  0  0
    1.4920   -2.5820   -4.7770 H   0  0  0  0  0  0  0  0  0  0  0  0
    3.0367   -3.0156   -4.0307 H   0  0  0  0  0  0  0  0  0  0  0  0
    0.4682   -4.4592   -3.9742 H   0  0  0  0  0  0  0  0  0  0  0  0
   -4.6438   -4.7279   -2.8960 H   0  0  0  0  0  0  0  0  0  0  0  0
   -4.6699   -3.3682   -4.0183 H   0  0  0  0  0  0  0  0  0  0  0  0
   -3.3600   -2.3873   -1.4967 H   0  0  0  0  0  0  0  0  0  0  0  0
   -5.2477   -5.9844   -5.8862 H   0  0  0  0  0  0  0  0  0  0  0  0
   -5.6335   -7.4482   -7.7438 H   0  0  0  0  0  0  0  0  0  0  0  0
   -7.6950   -8.2116  -11.5936 H   0  0  0  0  0  0  0  0  0  0  0  0
  -10.0503   -7.9979  -10.9061 H   0  0  0  0  0  0  0  0  0  0  0  0
  -11.1791   -9.7281   -6.9794 H   0  0  0  0  0  0  0  0  0  0  0  0
  -12.6298   -8.8590   -7.5180 H   0  0  0  0  0  0  0  0  0  0  0  0
  -11.6515   -6.7020   -6.7952 H   0  0  0  0  0  0  0  0  0  0  0  0
  -10.1786   -7.5116   -6.2622 H   0  0  0  0  0  0  0  0  0  0  0  0
  -11.7113   -7.8388   -5.4404 H   0  0  0  0  0  0  0  0  0  0  0  0
   -9.0378   -9.4503   -7.0143 H   0  0  0  0  0  0  0  0  0  0  0  0
   -6.7219   -9.6766   -7.7018 H   0  0  0  0  0  0  0  0  0  0  0  0
   -0.8065  -10.3369   -9.3234 H   0  0  0  0  0  0  0  0  0  0  0  0
    1.5263  -10.5509   -9.9422 H   0  0  0  0  0  0  0  0  0  0  0  0
    4.4669  -10.0805  -12.0994 H   0  0  0  0  0  0  0  0  0  0  0  0
    3.5016   -9.9847  -10.6127 H   0  0  0  0  0  0  0  0  0  0  0  0
    4.3818  -12.2926  -10.9583 H   0  0  0  0  0  0  0  0  0  0  0  0
    3.6145  -12.3609  -12.5510 H   0  0  0  0  0  0  0  0  0  0  0  0
    2.6179  -12.3120  -11.0972 H   0  0  0  0  0  0  0  0  0  0  0  0
    0.6214   -9.1135  -13.8657 H   0  0  0  0  0  0  0  0  0  0  0  0
   -1.7503   -8.8807  -13.2250 H   0  0  0  0  0  0  0  0  0  0  0  0
   -2.8636  -11.0835  -13.2062 H   0  0  0  0  0  0  0  0  0  0  0  0
   -4.2573  -12.2968  -14.9173 H   0  0  0  0  0  0  0  0  0  0  0  0
  1  2  2  0  0  0  0
  2  3  1  0  0  0  0
  3  4  2  0  0  0  0
  3  5  1  0  0  0  0
  5  6  2  0  0  0  0
  6  7  1  0  0  0  0
  7  8  1  0  0  0  0
  8  9  1  0  0  0  0
  9 10  2  0  0  0  0
 10 11  1  0  0  0  0
 11 12  1  0  0  0  0
  6 13  1  0  0  0  0
 13 14  2  0  0  0  0
 14 15  1  0  0  0  0
 15 16  3  0  0  0  0
 14 17  1  0  0  0  0
 17 18  3  0  0  0  0
  1 19  1  0  0  0  0
 19 20  2  0  0  0  0
 20 21  1  0  0  0  0
 21 22  2  0  0  0  0
 22 23  1  0  0  0  0
 23 24  2  0  0  0  0
 24 25  1  0  0  0  0
 25 26  2  0  0  0  0
 26 27  1  0  0  0  0
 27 28  1  0  0  0  0
 28 29  1  0  0  0  0
 26 30  1  0  0  0  0
 30 31  2  0  0  0  0
 22 32  1  0  0  0  0
 32 33  2  0  0  0  0
 33 34  1  0  0  0  0
 34 35  1  0  0  0  0
 35 36  2  0  0  0  0
 36 37  1  0  0  0  0
 37 38  2  0  0  0  0
 38 39  1  0  0  0  0
 39 40  1  0  0  0  0
 40 41  1  0  0  0  0
 38 42  1  0  0  0  0
 42 43  2  0  0  0  0
 34 44  2  0  0  0  0
 44 45  1  0  0  0  0
 33 46  1  0  0  0  0
 46 47  2  0  0  0  0
 47 48  1  0  0  0  0
 47 49  1  0  0  0  0
 49 50  1  0  0  0  0
 50 51  1  0  0  0  0
 51 52  1  0  0  0  0
 52 53  2  0  0  0  0
 53 54  1  0  0  0  0
 54 55  1  0  0  0  0
 55 56  1  0  0  0  0
 53 57  1  0  0  0  0
 57 58  2  0  0  0  0
 58 59  1  0  0  0  0
 59 60  2  0  0  0  0
 60 61  1  0  0  0  0
 61 62  1  0  0  0  0
 62 63  1  0  0  0  0
 61 64  1  0  0  0  0
 64 65  1  0  0  0  0
 61 66  1  0  0  0  0
 66 67  2  0  0  0  0
 60 68  1  0  0  0  0
 68 69  2  0  0  0  0
 69 70  1  0  0  0  0
 70 71  1  0  0  0  0
 71 72  1  0  0  0  0
 70 73  1  0  0  0  0
 73 74  1  0  0  0  0
 69 75  1  0  0  0  0
 75 76  2  0  0  0  0
 76 77  1  0  0  0  0
 77 78  2  0  0  0  0
 78 79  1  0  0  0  0
 79 80  1  0  0  0  0
 80 81  2  0  0  0  0
 78 82  1  0  0  0  0
 82 83  2  0  0  0  0
 83 84  1  0  0  0  0
 83 85  1  0  0  0  0
 85 86  2  0  0  0  0
 86 87  1  0  0  0  0
 87 88  2  0  0  0  0
 88 89  1  0  0  0  0
 89 90  2  0  0  0  0
 90 91  1  0  0  0  0
 91 92  2  0  0  0  0
 92 93  1  0  0  0  0
 93 94  1  0  0  0  0
 94 95  1  0  0  0  0
 92 96  1  0  0  0  0
 96 97  2  0  0  0  0
 88 98  1  0  0  0  0
 98 99  2  0  0  0  0
 99100  1  0  0  0  0
100101  1  0  0  0  0
101102  2  0  0  0  0
102103  1  0  0  0  0
103104  2  0  0  0  0
104105  1  0  0  0  0
105106  1  0  0  0  0
106107  1  0  0  0  0
104108  1  0  0  0  0
108109  2  0  0  0  0
100110  2  0  0  0  0
110111  1  0  0  0  0
 99112  1  0  0  0  0
112113  2  0  0  0  0
113114  1  0  0  0  0
113115  1  0  0  0  0
115116  2  0  0  0  0
116117  1  0  0  0  0
117118  3  0  0  0  0
116119  1  0  0  0  0
119120  3  0  0  0  0
 13  2  1  0  0  0  0
 45 19  1  0  0  0  0
 56 49  2  0  0  0  0
 66 58  1  0  0  0  0
 81 68  1  0  0  0  0
111 85  1  0  0  0  0
 12  5  1  0  0  0  0
 44 21  1  0  0  0  0
 55 51  2  0  0  0  0
 70 59  1  0  0  0  0
 80 76  1  0  0  0  0
110 87  1  0  0  0  0
 12  8  2  0  0  0  0
 31 23  1  0  0  0  0
 48 32  1  0  0  0  0
 67 52  1  0  0  0  0
 84 77  1  0  0  0  0
 97 89  1  0  0  0  0
114 98  1  0  0  0  0
 43 35  1  0  0  0  0
109101  1  0  0  0  0
  1121  1  0  0  0  0
  9122  1  0  0  0  0
 10123  1  0  0  0  0
 20124  1  0  0  0  0
 24125  1  0  0  0  0
 25126  1  0  0  0  0
 28127  1  0  0  0  0
 28128  1  0  0  0  0
 29129  1  0  0  0  0
 29130  1  0  0  0  0
 29131  1  0  0  0  0
 30132  1  0  0  0  0
 31133  1  0  0  0  0
 36134  1  0  0  0  0
 37135  1  0  0  0  0
 40136  1  0  0  0  0
 40137  1  0  0  0  0
 41138  1  0  0  0  0
 41139  1  0  0  0  0
 41140  1  0  0  0  0
 42141  1  0  0  0  0
 43142  1  0  0  0  0
 46143  1  0  0  0  0
 54144  1  0  0  0  0
 54145  1  0  0  0  0
 56146  1  0  0  0  0
 57147  1  0  0  0  0
 62148  1  0  0  0  0
 62149  1  0  0  0  0
 63150  1  0  0  0  0
 63151  1  0  0  0  0
 63152  1  0  0  0  0
 64153  1  0  0  0  0
 64154  1  0  0  0  0
 65155  1  0  0  0  0
 65156  1  0  0  0  0
 65157  1  0  0  0  0
 67158  1  0  0  0  0
 71159  1  0  0  0  0
 71160  1  0  0  0  0
 72161  1  0  0  0  0
 72162  1  0  0  0  0
 72163  1  0  0  0  0
 73164  1  0  0  0  0
 73165  1  0  0  0  0
 74166  1  0  0  0  0
 74167  1  0  0  0  0
 74168  1  0  0  0  0
 75169  1  0  0  0  0
 79170  1  0  0  0  0
 79171  1  0  0  0  0
 81172  1  0  0  0  0
 82173  1  0  0  0  0
 86174  1  0  0  0  0
 90175  1  0  0  0  0
 91176  1  0  0  0  0
 94177  1  0  0  0  0
 94178  1  0  0  0  0
 95179  1  0  0  0  0
 95180  1  0  0  0  0
 95181  1  0  0  0  0
 96182  1  0  0  0  0
 97183  1  0  0  0  0
102184  1  0  0  0  0
103185  1  0  0  0  0
106186  1  0  0  0  0
106187  1  0  0  0  0
107188  1  0  0  0  0
107189  1  0  0  0  0
107190  1  0  0  0  0
108191  1  0  0  0  0
109192  1  0  0  0  0
112193  1  0  0  0  0
115194  1  0  0  0  0
M  END
