177

C         10.01400        5.14630        2.37500
C         11.19120        4.56310        2.00150
C         11.64830        3.21070        2.40670
O         11.05380        2.38530        3.06980
C         13.03370        3.09890        1.92010
C         13.88910        2.04070        2.03130
C         15.17740        2.13320        1.45980
C         16.09680        1.06690        1.53370
C         17.34060        1.16900        0.97550
C         17.69460        2.35720        0.32200
F         18.92290        2.43840       -0.22200
C         16.84210        3.42120        0.22180
C         15.55640        3.33310        0.79040
C         14.65040        4.41540        0.69760
C         13.40350        4.29930        1.25150
C         12.27110        5.21930        1.29310
C         12.22630        6.45070        0.69170
C         13.30590        7.02700       -0.00970
N         14.14740        7.55620       -0.58410
C         11.10950        7.31230        0.67100
N         10.24900        8.06960        0.59790
C          8.86550        4.49900        2.87960
C          8.41160        3.19910        2.68390
C          8.94890        2.19430        1.73750
O          9.53240        2.44310        0.71260
O          8.58920        0.97450        2.13570
C          8.95070       -0.11960        1.29650
C          7.89160       -0.35950        0.22980
C          7.20120        2.97970        3.34960
C          6.70010        4.09360        4.02270
S          7.74600        5.44230        3.86360
C          5.42540        3.90180        4.59320
C          4.65440        5.03080        5.13220
O          3.45500        5.07380        5.25400
O          5.48310        6.04930        5.39920
C          4.92290        7.25690        5.91210
C          5.36330        7.46100        7.35300
C          4.97430        2.60350        4.37850
S          6.11990        1.64350        3.45240
C          3.74510        1.99590        4.74700
C          2.90820        2.21660        5.83100
C          3.25080        3.02630        6.99550
C          4.53460        2.98420        7.53640
C          4.84170        3.75430        8.64030
C          3.88080        4.57400        9.21070
C          2.59450        4.62150        8.68910
C          1.55690        5.54320        9.26110
C          1.53160        6.85850        8.47950
C          2.28930        3.83840        7.58610
C          1.70770        1.49110        5.69840
S          0.24860        1.41070        6.66030
C         -0.44080        0.32810        5.49710
C         -1.66850       -0.28810        5.20250
C         -2.94040       -0.16710        5.80560
C         -4.08670       -0.69800        5.12220
N         -5.21870       -0.43570        5.75630
S         -4.87360        0.39680        7.10110
N         -3.26580        0.46270        6.92330
C         -3.89700       -1.43040        3.92960
C         -4.80710       -2.05170        3.05620
S         -6.51440       -2.15160        2.77520
C         -6.20480       -3.04690        1.30430
C         -7.03740       -3.51600        0.26340
C         -8.49590       -3.42180        0.25650
C         -9.26830       -4.49300       -0.18830
C        -10.64600       -4.40300       -0.17180
C        -11.26490       -3.25360        0.28810
C        -10.51110       -2.17990        0.74510
C        -11.17620       -0.91580        1.20690
C        -11.37730        0.03910        0.02860
C         -9.12820       -2.27470        0.72420
C         -6.29630       -4.11280       -0.73780
S         -4.57390       -4.15610       -0.37330
C         -4.84770       -3.29300        1.09640
C         -4.04940       -2.71020        2.08660
N         -2.71360       -2.51170        2.30730
C         -2.59500       -1.68650        3.41580
C         -1.48930       -1.00450        3.98500
N         -0.19010       -0.81040        3.55070
C          0.42840        0.01570        4.44820
C          1.65040        0.68590        4.55710
S          3.09000        0.81660        3.61760
C          0.40160       -1.02450        2.25020
C         -0.32840       -0.24130        1.16220
C         -1.75240       -3.42200        1.72260
C         -1.04380       -4.25300        2.78830
C         -6.67320       -4.48320       -2.06370
S         -7.87320       -3.53490       -2.93430
C         -7.46100       -4.35650       -4.39760
C         -7.71680       -4.32640       -5.76700
C         -6.88990       -5.33220       -6.34310
N         -6.17710       -5.97360       -5.35930
C         -5.13520       -6.94690       -5.56180
C         -3.77730       -6.28100       -5.77700
C         -6.48400       -5.35320       -4.17910
C         -6.03210       -5.40850       -2.85820
C         -6.96880       -5.37230       -7.71940
C         -7.81790       -4.37990       -8.22800
S         -8.57180       -3.41900       -6.95140
C         -7.94740       -4.18050       -9.60610
C         -8.57690       -3.18290      -10.31260
C         -9.31340       -2.05770       -9.72940
O         -9.60680       -1.88710       -8.55880
C         -9.63450       -1.15500      -10.84900
C        -10.25290        0.06050      -10.81780
C        -10.42370        0.77630      -12.02430
C        -11.04210        2.04250      -12.05010
C        -11.19130        2.73000      -13.22280
C        -10.71940        2.15460      -14.40980
F        -10.87340        2.84690      -15.55440
C        -10.11420        0.92900      -14.44090
C         -9.95110        0.20790      -13.24230
C         -9.32120       -1.05940      -13.24260
C         -9.16280       -1.73260      -12.06130
C         -8.53770       -3.01720      -11.74950
C         -8.02170       -3.88730      -12.67840
C         -8.02590       -3.65240      -14.06840
N         -7.99450       -3.52660      -15.20970
C         -7.42740       -5.13430      -12.39980
N         -6.92930       -6.16120      -12.26140
H          9.92790        6.22370        2.30220
H         13.58300        1.14080        2.54370
H         15.80090        0.16160        2.04230
H         18.05560        0.36310        1.02340
H         17.14790        4.32020       -0.29020
H         14.96970        5.31010        0.18800
H          9.91940        0.09490        0.83400
H          9.03790       -0.97670        1.96720
H          6.92110       -0.51360        0.69590
H          7.83280        0.49950       -0.43430
H          8.15210       -1.23800       -0.35340
H          5.29160        8.06370        5.27250
H          3.83230        7.19510        5.84070
H          4.96850        8.40230        7.72460
H          6.44850        7.48340        7.41110
H          4.99480        6.64640        7.97270
H          5.28110        2.33590        7.10140
H          5.83660        3.71740        9.05990
H          4.13100        5.17600       10.07330
H          1.77470        5.74760       10.31120
H          0.57510        5.07020        9.19940
H          2.48000        7.38050        8.58450
H          1.36380        6.66230        7.42320
H          0.73760        7.50460        8.84670
H          1.29990        3.88590        7.15830
H         -8.78490       -5.39740       -0.52810
H        -11.24180       -5.23610       -0.51480
H        -12.34340       -3.19120        0.29940
H        -10.55910       -0.42970        1.96490
H        -12.14570       -1.14870        1.65170
H        -10.41990        0.28920       -0.42290
H        -11.85620        0.95720        0.36060
H        -12.00190       -0.42400       -0.73210
H         -8.53330       -1.44010        1.06470
H          0.44360       -2.08940        2.02120
H          1.43310       -0.66980        2.31660
H         -0.27430        0.82370        1.37490
H          0.13740       -0.42500        0.19780
H         -1.37670       -0.52400        1.10740
H         -2.31920       -4.08690        1.06590
H         -1.04030       -2.88650        1.09220
H         -0.50680       -3.62070        3.49120
H         -1.77050       -4.83810        3.34730
H         -0.33880       -4.93330        2.31810
H         -5.40020       -7.55210       -6.43230
H         -5.10030       -7.59730       -4.68360
H         -3.51130       -5.67870       -4.91130
H         -3.80920       -5.63510       -6.65110
H         -3.01120       -7.03620       -5.92790
H         -5.26900       -6.06660       -2.48280
H         -6.43160       -6.04630       -8.36250
H         -7.40490       -4.91410      -10.19040
H        -10.60030        0.47500       -9.88330
H        -11.39680        2.46520      -11.12210
H        -11.66020        3.70050      -13.25950
H         -9.76270        0.51670      -15.37380
H         -8.97260       -1.45850      -14.18130
