225

C          4.39240       -2.27360        4.67960
C          5.15540       -1.40250        3.95920
C          4.85730       -0.86260        2.60230
O          3.85020       -0.97450        1.94080
C          6.08320       -0.17550        2.16990
C          6.30130        0.48040        0.99230
C          7.54670        1.10420        0.77430
C          7.80740        1.83210       -0.40440
C          9.01800        2.43460       -0.59990
C         10.00490        2.31570        0.38920
F         11.19220        2.90060        0.16910
C          9.80090        1.62430        1.55150
C          8.55670        1.00540        1.77720
C          8.30230        0.31150        2.98430
C          7.07290       -0.26120        3.18580
C          6.49760       -0.96570        4.32570
C          7.09180       -1.09480        5.55160
C          8.41900       -0.70120        5.83330
N          9.50200       -0.45360        6.11820
C          6.46360       -1.61210        6.70380
N          5.99880       -1.97860        7.68780
C          3.06570       -2.70790        4.42020
C          2.39300       -3.76580        5.00350
C          1.11700       -3.83310        4.39320
C          0.04410       -4.74800        4.48470
C          0.03600       -5.86610        5.42760
C          0.51610       -5.70600        6.72610
C          0.49480       -6.77690        7.59660
F          0.96240       -6.59030        8.84620
C          0.02090       -8.03730        7.24760
C         -0.01700       -9.17770        8.21990
C         -1.34920       -9.19510        8.97370
C         -0.46150       -8.15200        5.94810
F         -0.94090       -9.34550        5.54340
C         -0.46650       -7.10840        5.04590
C         -0.97770       -4.52110        3.56910
C         -0.99120       -3.39840        2.70040
C          0.04600       -2.46350        2.62610
C         -0.03060       -1.37690        1.64300
C          1.00920       -1.12100        0.75590
C          0.82280       -0.20020       -0.25880
C         -0.35960        0.50850       -0.44570
C         -0.56360        1.47650       -1.57330
C         -0.45060        2.92100       -1.08340
C         -1.35130        0.26530        0.49870
C         -1.21660       -0.65350        1.51900
F         -2.52350        0.92850        0.39310
F          1.81790       -0.02540       -1.14610
C          1.11280       -2.75330        3.46040
O          2.27730       -2.08910        3.50700
C         -2.13180       -3.57430        1.88480
C         -2.72250       -4.74120        2.27100
O         -2.05990       -5.31120        3.31250
C         -3.78640       -5.29460        1.44210
C         -5.15450       -5.10110        1.49250
C         -5.87430       -4.95900        2.75300
C         -5.35360       -5.53380        3.91410
C         -6.03150       -5.41210        5.11060
C         -7.23430       -4.72810        5.16800
C         -7.76890       -4.14930        4.02430
C         -9.09650       -3.44910        4.05670
C        -10.20730       -4.40190        3.61050
C         -7.08130       -4.27000        2.82620
C         -5.70310       -4.99640        0.18170
S         -7.23460       -4.40660       -0.45760
C         -6.49590       -4.14120       -2.01150
C         -6.65320       -3.29520       -3.12910
C         -7.62950       -2.32140       -3.45010
C         -7.26590       -1.21770       -4.30740
N         -8.23500       -0.32430       -4.41040
S         -9.49820       -0.82250       -3.52950
N         -8.85190       -2.19470       -2.96320
C         -5.97380       -1.18260       -4.88220
C         -5.19130       -0.15430       -5.45720
S         -5.23050        1.56760       -5.67300
C         -3.49630        1.56540       -5.95230
C         -2.53150        2.60640       -5.89900
C         -2.98610        3.99180       -6.04370
C         -4.01130        4.20840       -6.96800
C         -4.54820        5.46780       -7.13940
C         -4.06260        6.53080       -6.40270
C         -3.02060        6.34500       -5.50180
C         -2.45450        7.53490       -4.78170
C         -1.72800        8.44180       -5.77630
C         -2.49490        5.07430       -5.32090
C         -1.25090        2.08210       -5.77730
S         -1.24520        0.31530       -5.94120
C         -2.96600        0.27900       -5.96260
C         -3.93090       -0.69920       -5.71250
N         -3.90500       -2.03730       -5.38960
C         -5.12540       -2.31430       -4.78410
C         -5.41460       -3.31610       -3.82810
N         -4.55100       -4.17300       -3.18140
C         -5.18990       -4.63390       -2.06480
C         -4.75330       -5.12330       -0.82790
S         -3.19240       -5.49770       -0.20360
C         -3.13020       -4.36430       -3.34130
C         -2.81120       -5.73280       -3.93900
C         -3.13440       -2.94960       -6.21550
C         -3.46080       -2.76330       -7.69690
C          0.00740        2.57490       -5.30360
C          1.10970        1.79100       -5.04640
C          1.97030        2.53450       -4.20700
C          3.08530        2.15400       -3.44030
C          3.81390        0.90520       -3.64630
C          4.40570        0.23480       -2.57830
C          5.14290       -0.90680       -2.80990
F          5.71430       -1.52540       -1.75320
C          5.34390       -1.44310       -4.07750
C          6.12940       -2.70040       -4.30410
C          5.21340       -3.92510       -4.24270
C          4.73180       -0.75110       -5.11670
F          4.88540       -1.21420       -6.37670
C          3.98870        0.39650       -4.93270
C          3.41480        3.07050       -2.44820
C          2.84290        4.36500       -2.35590
C          1.78790        4.77610       -3.18840
C          1.24840        6.13660       -3.04100
C          0.75010        6.55290       -1.81010
C          0.38060        7.87100       -1.63890
C          0.50320        8.83530       -2.63500
C          0.13440       10.27010       -2.39320
C         -1.37920       10.45270       -2.26260
C          0.99670        8.37390       -3.85030
C          1.34970        7.05650       -4.07660
F          1.18050        9.25870       -4.85130
F         -0.08120        8.24940       -0.42910
C          1.33350        3.79860       -4.05600
O          0.17210        3.81910       -4.76560
C          3.49390        4.98590       -1.25530
C          4.31100        4.03550       -0.70740
O          4.30240        2.89260       -1.44690
C          4.97610        3.99470        0.57730
C          4.57230        3.08770        1.50140
C          3.23180        2.43380        1.40190
O          2.45860        2.49370        0.47310
C          2.99230        1.82940        2.71710
C          1.86330        1.20670        3.16330
C          1.85610        0.64700        4.45780
C          0.72280       -0.02510        4.95860
C          0.75280       -0.63790        6.17970
C          1.92820       -0.57360        6.94170
F          1.94190       -1.20620        8.12560
C          3.04070        0.10260        6.52180
C          3.02850        0.73580        5.26310
C          4.16220        1.44130        4.79420
C          4.14500        1.98910        3.53730
C          5.13570        2.76840        2.80230
C          6.39440        3.09250        3.23160
C          7.31580        3.83570        2.46610
N          8.10040        4.43530        1.88080
C          6.92070        2.68790        4.47560
N          7.37770        2.37160        5.47970
H          4.82680       -2.73420        5.55710
H          5.52890        0.52570        0.24090
H          7.02770        1.90640       -1.14800
H          9.23620        3.00110       -1.49100
H         10.58000        1.56310        2.29510
H          9.08590        0.25890        3.72280
H          2.79820       -4.42660        5.74230
H          0.87660       -4.75220        7.07570
H          0.10500      -10.11780        7.67940
H          0.80160       -9.07240        8.93350
H         -1.36810      -10.02430        9.67580
H         -2.17740       -9.31020        8.27800
H         -1.48390       -8.26840        9.52700
H         -0.84630       -7.27280        4.05130
H          1.95260       -1.63220        0.84240
H          0.18630        1.29310       -2.34380
H         -1.55610        1.31860       -2.00430
H         -1.20320        3.12510       -0.32530
H         -0.60330        3.60680       -1.91290
H          0.53550        3.08880       -0.65840
H         -2.03450       -0.80150        2.20700
H         -2.45670       -2.94510        1.08250
H         -4.42980       -6.09000        3.87170
H         -5.62420       -5.86150        6.00450
H         -7.76260       -4.64470        6.10680
H         -9.07540       -2.58640        3.38780
H         -9.30650       -3.09500        5.06770
H        -10.01900       -4.75280        2.59850
H        -10.25250       -5.26550        4.27040
H        -11.17070       -3.89830        3.63030
H         -7.48960       -3.80730        1.94100
H         -4.37850        3.38810       -7.56570
H         -5.34770        5.61790       -7.84940
H         -4.49210        7.51410       -6.52790
H         -1.76180        7.20980       -4.00270
H         -3.26480        8.09470       -4.30720
H         -1.33680        9.32770       -5.28440
H         -2.40430        8.76300       -6.56470
H         -0.90020        7.90790       -6.23680
H         -1.70850        4.92730       -4.59910
H         -2.72140       -3.55330       -3.93830
H         -2.67220       -4.30220       -2.34890
H         -1.74040       -5.82850       -4.09240
H         -3.31760       -5.87860       -4.89070
H         -3.13520       -6.51710       -3.25950
H         -3.37830       -3.97140       -5.93160
H         -2.06800       -2.76220       -6.05030
H         -4.52670       -2.89810       -7.86910
H         -3.17690       -1.76940       -8.03280
H         -2.91590       -3.49660       -8.28510
H          1.23550        0.76870       -5.33910
H          4.25890        0.58210       -1.57110
H          6.60900       -2.65620       -5.28330
H          6.90180       -2.78720       -3.53810
H          4.44320       -3.86060       -5.00810
H          5.79090       -4.83120       -4.40670
H          4.73280       -3.98980       -3.26900
H          3.57780        0.90030       -5.79240
H          0.65280        5.85930       -0.99010
H          0.50940       10.88260       -3.21390
H          0.61020       10.60360       -1.46760
H         -1.60900       11.49950       -2.08120
H         -1.76580        9.86650       -1.43300
H         -1.88450       10.14000       -3.17280
H          1.73810        6.76730       -5.04010
H          3.32010        5.97000       -0.87110
H          5.74210        4.72780        0.78720
H          0.99490        1.12540        2.52850
H         -0.16680       -0.06220        4.34880
H         -0.09920       -1.17120        6.57150
H          3.92070        0.13660        7.14540
H          5.01500        1.53440        5.44820
