228

C          2.22610      -12.06550       -2.90230
C          3.37510      -12.62660       -2.42410
C          4.23980      -12.04110       -1.36470
O          4.17710      -10.93370       -0.87900
C          5.30460      -13.03420       -1.13020
C          6.30640      -13.00000       -0.20440
C          7.23780      -14.06050       -0.15890
C          8.28690      -14.08230        0.78230
C          9.18780      -15.11020        0.80890
C          9.05360      -16.15290       -0.11800
F          9.95030      -17.15550       -0.07660
C          8.05350      -16.18230       -1.04950
C          7.11650      -15.13120       -1.09180
C          6.07250      -15.13310       -2.04620
C          5.17430      -14.09860       -2.06460
C          4.01260      -13.83580       -2.91140
C          3.60400      -14.62330       -3.95700
C          2.48630      -14.38010       -4.78170
N          1.59650      -14.25550       -5.49740
C          4.26840      -15.79760       -4.36940
N          4.76040      -16.75910       -4.75890
C          1.48160      -11.02390       -2.29660
C          0.54070      -10.20300       -2.89180
C          0.08380       -9.31340       -1.89760
C         -0.80350       -8.21000       -1.89460
C         -1.53240       -7.74450       -3.04280
C         -2.20550       -6.55610       -3.18700
C         -2.81910       -6.44240       -4.44450
F         -3.52130       -5.35090       -4.80120
C         -2.64930       -7.50710       -5.28260
C         -3.19050       -7.70300       -6.65560
C         -4.22030       -8.83330       -6.69510
S         -1.68920       -8.70510       -4.49180
C         -0.88670       -7.57220       -0.65730
C         -0.22030       -7.98360        0.53020
C          0.62810       -9.11090        0.53740
C          1.32340       -9.62020        1.68760
S          2.65080      -10.72770        1.47470
C          2.91780      -10.84380        3.17590
C          4.01760      -11.66870        3.75300
C          4.10140      -13.04660        3.10090
C          2.00240      -10.07570        3.83780
C          1.09760       -9.38170        3.02070
F          1.96510       -9.98570        5.18330
C          0.77720       -9.70010       -0.71760
O          1.60260      -10.72760       -0.97880
C         -0.55510       -7.00800        1.50190
C         -1.36860       -6.09420        0.88050
O         -1.59030       -6.44350       -0.41520
C         -1.88360       -4.84270        1.31610
C         -1.75500       -4.23460        2.55090
C         -2.23410       -2.92710        2.53100
C         -2.23460       -1.75100        3.47540
C         -0.83460       -1.58940        4.03370
C          0.09990       -0.75710        3.43510
C          1.38300       -0.66530        3.94400
C          1.77010       -1.41090        5.04870
C          3.14690       -1.26930        5.63050
C          3.16090       -0.18170        6.70670
C          0.83650       -2.25880        5.63140
C         -0.44700       -2.35140        5.12970
C         -3.27430       -1.84970        4.57820
C         -3.19730       -0.99870        5.67410
C         -4.15940       -1.04060        6.66420
C         -5.22490       -1.92870        6.58730
C         -6.29250       -1.93890        7.64310
C         -7.38990       -0.92870        7.30190
C         -5.30170       -2.77060        5.48680
C         -4.34130       -2.73210        4.49190
C         -2.67600       -0.63330        2.54160
C         -3.02610       -1.14770        1.27200
C         -2.72520       -2.54420        1.29310
S         -2.63870       -3.80020        0.13000
C         -3.45560       -0.32470        0.23440
C         -3.45540        1.02970        0.46790
C         -3.73900        2.15130       -0.51880
C         -3.00980        1.89630       -1.82190
C         -3.59810        1.09580       -2.79400
C         -2.93080        0.81170       -3.97000
C         -1.65950        1.31750       -4.20890
C         -0.95120        1.03650       -5.50280
C         -1.26240        2.12200       -6.53450
C         -1.07740        2.11990       -3.23710
C         -1.73780        2.40010       -2.05430
C         -5.22430        2.37510       -0.75750
C         -6.19730        1.75620        0.01270
C         -7.53720        2.01520       -0.21540
C         -7.93710        2.89770       -1.20890
C         -9.39090        3.20710       -1.42160
C         -9.82710        4.36620       -0.52300
C         -6.95660        3.52400       -1.96850
C         -5.61760        3.26910       -1.74640
C         -3.23160        3.33790        0.25800
C         -2.92050        2.96580        1.55550
C         -3.04240        1.54990        1.71830
C         -2.69620        0.72110        2.78200
S         -2.26590        4.26530        2.47320
C         -2.35310        5.29830        1.06650
C         -2.92250        4.66410       -0.02230
C         -1.66400        6.54280        1.00110
C         -1.01960        7.31500        1.93430
C         -0.30990        8.31590        1.21910
C          0.58920        9.34370        1.57670
C          0.88870        9.74000        2.92430
C          0.19270        9.47900        4.07700
C          0.80690       10.05040        5.20310
F          0.29380        9.91490        6.44140
C          1.95810       10.74180        4.95640
C          2.81750       11.47800        5.92450
C          2.72950       12.98990        5.70820
S          2.29690       10.71200        3.26260
C          1.22610        9.93550        0.48380
C          0.98030        9.62670       -0.88130
C         -0.00650        8.68250       -1.24190
C         -0.37520        8.32720       -2.58230
S         -1.21920        6.82870       -2.87840
C         -1.29520        7.12060       -4.57600
C         -1.92430        6.16160       -5.52910
C         -2.91960        5.23000       -4.84770
C         -0.70850        8.32360       -4.85830
C         -0.18540        9.01510       -3.75430
F         -0.64030        8.81230       -6.11020
C         -0.58580        8.05060       -0.14700
O         -1.43800        7.01260       -0.25690
C          1.93180       10.37030       -1.60620
C          2.67140       11.09010       -0.68640
O          2.22740       10.82900        0.57830
C          3.83650       11.88270       -0.78600
C          4.52570       12.32270       -1.87530
C          5.96200       12.68580       -1.69620
O          6.52880       12.89800       -0.64950
C          6.53860       12.65980       -3.05350
C          7.84430       12.77150       -3.43470
C          8.17430       12.65970       -4.80420
C          9.50820       12.75700       -5.25020
C          9.81870       12.63310       -6.57590
C          8.78560       12.40830       -7.49570
F          9.11050       12.28690       -8.79560
C          7.47560       12.30800       -7.11730
C          7.13760       12.43290       -5.75590
C          5.79100       12.33410       -5.33290
C          5.49640       12.44990       -4.00180
C          4.22320       12.39910       -3.28540
C          2.99350       12.62620       -3.84800
C          2.78330       12.78460       -5.23310
N          2.55880       12.90330       -6.35240
C          1.81790       12.80980       -3.09480
N          0.83920       12.97280       -2.51720
H          1.79960      -12.43160       -3.82600
H          6.38560      -12.17310        0.48550
H          8.36990      -13.26660        1.48490
H          9.99770      -15.14130        1.52030
H          7.98130      -17.00150       -1.74770
H          6.01350      -15.95640       -2.73950
H          0.26320      -10.23790       -3.92470
H         -2.25730       -5.78650       -2.44200
H         -3.65190       -6.76750       -6.97920
H         -2.37220       -7.93920       -7.34100
H         -3.76430       -9.76960       -6.38120
H         -5.05220       -8.61190       -6.03040
H         -4.60470       -8.95330       -7.70440
H          4.96910      -11.14600        3.60940
H          3.85070      -11.76670        4.82820
H          4.26800      -12.94680        2.03030
H          3.17570      -13.59610        3.25450
H          4.92010      -13.61930        3.52980
H          0.30530       -8.77720        3.41620
H         -0.20740       -6.94000        2.50970
H         -1.31030       -4.71830        3.40050
H         -0.17250       -0.17420        2.56730
H          2.09560       -0.00520        3.47000
H          3.85660       -1.00620        4.84360
H          3.46160       -2.21670        6.07260
H          2.86070        0.77380        6.28240
H          2.46860       -0.43290        7.50730
H          4.15740       -0.07680        7.12930
H          1.11920       -2.85560        6.48700
H         -1.16060       -3.01430        5.59790
H         -2.37020       -0.30920        5.75980
H         -4.08040       -0.37530        7.51230
H         -6.73160       -2.93580        7.71740
H         -5.85780       -1.68360        8.61160
H         -6.97330        0.07390        7.23440
H         -7.84540       -1.17400        6.34510
H         -8.16290       -0.93340        8.06670
H         -6.12240       -3.46930        5.40600
H         -4.42360       -3.39860        3.64580
H         -3.72290       -0.73920       -0.72530
H         -4.59000        0.69900       -2.63200
H         -3.40270        0.18290       -4.71140
H          0.12700        1.00040       -5.33380
H         -1.26840        0.06760       -5.89320
H         -2.33300        2.17140       -6.72020
H         -0.75650        1.91160       -7.47380
H         -0.93160        3.09190       -6.17100
H         -0.08930        2.52620       -3.40190
H         -1.25570        3.01790       -1.31090
H         -5.91270        1.06480        0.79230
H         -8.28340        1.51910        0.38890
H         -9.99430        2.32680       -1.19060
H         -9.56390        3.47620       -2.46540
H         -9.67290        4.11220        0.52330
H        -10.88030        4.59040       -0.67500
H         -9.24570        5.25780       -0.74710
H         -7.24610        4.21760       -2.74520
H         -4.86840        3.75790       -2.35220
H         -2.39650        1.13900        3.73040
H         -3.04300        5.15280       -0.97150
H         -1.02470        7.13600        2.98870
H         -0.73380        8.94190        4.12930
H          2.49150       11.22800        6.93640
H          3.85610       11.15860        5.80690
H          3.05370       13.24540        4.70200
H          3.36450       13.50770        6.42220
H          1.70590       13.33280        5.84070
H         -2.41750        6.73410       -6.31970
H         -1.13810        5.56720       -6.00810
H         -3.38200        4.57270       -5.57940
H         -3.70050        5.80580       -4.35580
H         -2.41930        4.61430       -4.10210
H          0.25270        9.99190       -3.82870
H          2.11260       10.31790       -2.65890
H          4.32060       12.07060        0.16800
H          8.61800       12.93730       -2.70020
H         10.28670       12.92990       -4.52240
H         10.83390       12.70270       -6.93300
H          6.70590       12.13770       -7.85380
H          5.02760       12.15380       -6.07330
