139

C        -10.19500        0.77200        3.68090
C        -10.15610        0.49210        5.00500
C        -11.39640        0.03110        5.69580
O        -12.52980        0.12550        5.28590
C        -10.92680       -0.61340        6.93620
C        -11.64550       -1.30540        7.86870
C        -10.97540       -1.86810        8.97740
C        -11.67130       -2.58710        9.97130
C        -11.01240       -3.13390       11.03670
C         -9.62330       -2.97070       11.13140
F         -8.99220       -3.51780       12.18600
C         -8.90050       -2.28240       10.19740
C         -9.56320       -1.70980        9.09400
C         -8.84500       -0.98190        8.11730
C         -9.51790       -0.43380        7.05860
C         -9.05640        0.39140        5.94670
C         -7.90390        1.12550        5.93040
C         -6.90060        1.03320        6.91630
N         -6.04890        0.98610        7.68430
C         -7.63110        2.13230        4.98010
N         -7.39220        3.01460        4.28630
C         -9.09490        0.87710        2.76590
C         -9.23610        1.51200        1.52110
N         -8.25720        1.59330        0.65410
C         -7.07800        1.04350        0.98010
C         -6.93640        0.40410        2.23030
N         -7.91440        0.32020        3.09180
C         -5.99360        1.14860        0.05570
C         -5.99100        1.70180       -1.21610
C         -7.16960        2.13530       -1.96750
C         -7.19220        3.39390       -2.55930
C         -8.29430        3.78540       -3.29560
C         -9.36690        2.92640       -3.45720
C         -9.34890        1.65770       -2.89070
C        -10.51940        0.72740       -3.03340
C        -11.38910        0.77120       -1.77590
C         -8.24430        1.27290       -2.14760
C         -4.69010        1.75560       -1.74460
S         -4.06470        2.33540       -3.26980
C         -2.48130        1.84670       -2.77330
C         -1.16410        1.86710       -3.25480
C         -0.61720        2.44240       -4.42250
C          0.80310        2.40690       -4.61120
N          1.18290        3.02820       -5.71680
S         -0.13570        3.60450       -6.45860
N         -1.24150        3.08410       -5.39780
C          1.59580        1.70030       -3.68050
C          2.96360        1.38980       -3.69190
S          4.37330        1.70800       -4.64350
C          5.29560        0.67750       -3.57360
C          6.64200        0.27180       -3.57560
C          7.59060        0.68900       -4.60840
C          8.35410       -0.24600       -5.30070
C          9.20570        0.17270       -6.30370
C          9.30390        1.51640       -6.62340
C          8.53950        2.46050       -5.95080
C          8.66760        3.92330       -6.26410
C          9.71500        4.57070       -5.35600
C          7.68230        2.03400       -4.94750
C          6.90640       -0.58930       -2.52100
S          5.47930       -0.91410       -1.54500
C          4.52960        0.12490       -2.54170
C          3.19550        0.54190       -2.60450
N          2.03630        0.34670       -1.90380
C          1.03160        1.05580       -2.54170
C         -0.35060        1.23910       -2.26820
N         -1.15880        0.89050       -1.19730
C         -2.44040        1.26170       -1.50380
C         -3.70600        1.21760       -0.90810
S         -4.38630        0.65760        0.57580
C         -0.81060        0.60220        0.17700
C          0.04650        1.71010        0.78340
C          1.95410       -0.73700       -0.95040
C          1.10450       -1.88820       -1.48240
C          8.15260       -1.14830       -2.10230
C          8.21730       -2.15370       -1.11360
N          9.34550       -2.67750       -0.71780
C         10.48470       -2.22560       -1.27350
C         10.41990       -1.21490       -2.24750
N          9.28820       -0.69100       -2.65110
C         11.73050       -2.82800       -0.89790
C         11.97570       -3.67450        0.13080
C         13.20840       -4.51730        0.11230
O         14.19160       -4.34760       -0.56940
C         12.92720       -5.62120        1.05080
C         13.67520       -6.75430        1.31500
C         13.18540       -7.67600        2.22560
C         11.96170       -7.45310        2.84970
Cl        11.36630       -8.62030        3.96640
C         11.20150       -6.31500        2.60040
C         11.69630       -5.39240        1.69490
C         11.16600       -4.10190        1.25760
C         10.25630       -3.34630        1.93840
C          9.54340       -3.79640        3.06900
N          8.92020       -4.11850        3.97730
C          9.99780       -1.98750        1.65070
N          9.81520       -0.86050        1.53340
H        -11.18470        0.86040        3.24550
H        -12.71350       -1.42270        7.76130
H        -12.74090       -2.69940        9.87650
H        -11.52950       -3.68640       11.80510
H         -7.83270       -2.17290       10.30480
H         -7.77650       -0.88220        8.22540
H        -10.16600        1.98440        1.23310
H         -6.00120       -0.05730        2.52230
H         -6.35820        4.06630       -2.42550
H         -8.31620        4.76630       -3.74700
H        -10.22480        3.24010       -4.03450
H        -10.16270       -0.29360       -3.18690
H        -11.11930        1.01290       -3.89940
H        -10.80370        0.48460       -0.90520
H        -12.23240        0.09080       -1.87040
H        -11.76970        1.77760       -1.61640
H         -8.20940        0.28430       -1.71330
H          8.26380       -1.29500       -5.06310
H          9.79540       -0.55320       -6.84420
H          9.97500        1.83480       -7.40830
H          7.70590        4.41810       -6.11570
H          8.96310        4.05500       -7.30680
H         10.68480        4.10030       -5.50200
H          9.43370        4.45450       -4.31190
H          9.80640        5.63180       -5.57610
H          7.08780        2.75970       -4.41120
H         -0.32580       -0.37140        0.25590
H         -1.75250        0.53540        0.72690
H          0.96360        1.85580        0.21770
H          0.30140        1.46050        1.80980
H         -0.50430        2.64780        0.78270
H          2.97660       -1.08810       -0.79180
H          1.58790       -0.37680        0.01110
H          1.05320       -2.68280       -0.74300
H          1.54940       -2.28870       -2.39040
H          0.09510       -1.55850       -1.71690
H          7.32040       -2.54150       -0.64700
H         11.31600       -0.81380       -2.70220
H         12.56210       -2.65230       -1.57180
H         14.61960       -6.90850        0.81670
H         13.74330       -8.56980        2.45580
H         10.25510       -6.17730        3.09750
