
  xtb     02052205413D
 energy: -322.064847291573 gnorm: 0.000373675860 xtb: 6.4.1 (unknown)
182201  0     0  0            999 V2000
    9.2329    4.2431   -6.2027 C   0  0  0  0  0  0  0  0  0  0  0  0
    9.4369    3.0073   -6.7564 C   0  0  0  0  0  0  0  0  0  0  0  0
    8.8776    1.7599   -6.1944 C   0  0  0  0  0  0  0  0  0  0  0  0
    7.9602    1.6344   -5.4043 O   0  0  0  0  0  0  0  0  0  0  0  0
    9.7218    0.6783   -6.7363 C   0  0  0  0  0  0  0  0  0  0  0  0
    9.6767   -0.6573   -6.4601 C   0  0  0  0  0  0  0  0  0  0  0  0
   10.5888   -1.5244   -7.1030 C   0  0  0  0  0  0  0  0  0  0  0  0
   10.5828   -2.9122   -6.8565 C   0  0  0  0  0  0  0  0  0  0  0  0
   11.4710   -3.7427   -7.4818 C   0  0  0  0  0  0  0  0  0  0  0  0
   12.3956   -3.1931   -8.3798 C   0  0  0  0  0  0  0  0  0  0  0  0
   13.2609   -4.0257   -8.9862 F   0  0  0  0  0  0  0  0  0  0  0  0
   12.4442   -1.8545   -8.6549 C   0  0  0  0  0  0  0  0  0  0  0  0
   11.5366   -0.9848   -8.0206 C   0  0  0  0  0  0  0  0  0  0  0  0
   11.5594    0.4049   -8.2875 C   0  0  0  0  0  0  0  0  0  0  0  0
   10.6632    1.2235   -7.6561 C   0  0  0  0  0  0  0  0  0  0  0  0
   10.4427    2.6621   -7.7345 C   0  0  0  0  0  0  0  0  0  0  0  0
   10.9814    3.5269   -8.6512 C   0  0  0  0  0  0  0  0  0  0  0  0
   10.5543    4.8650   -8.7764 C   0  0  0  0  0  0  0  0  0  0  0  0
   10.1861    5.9389   -8.9479 N   0  0  0  0  0  0  0  0  0  0  0  0
   11.9412    3.1563   -9.6127 C   0  0  0  0  0  0  0  0  0  0  0  0
   12.7271    2.8948  -10.4078 N   0  0  0  0  0  0  0  0  0  0  0  0
    8.2361    4.5057   -5.2201 C   0  0  0  0  0  0  0  0  0  0  0  0
    8.6181    5.2408   -4.0654 C   0  0  0  0  0  0  0  0  0  0  0  0
    7.8379    5.2015   -2.8589 C   0  0  0  0  0  0  0  0  0  0  0  0
    8.4385    5.9704   -1.9795 N   0  0  0  0  0  0  0  0  0  0  0  0
    9.5279    6.4450   -2.5777 O   0  0  0  0  0  0  0  0  0  0  0  0
    9.6644    6.0032   -3.8348 N   0  0  0  0  0  0  0  0  0  0  0  0
    6.6504    4.4192   -2.7848 C   0  0  0  0  0  0  0  0  0  0  0  0
    6.1662    3.9350   -3.9966 C   0  0  0  0  0  0  0  0  0  0  0  0
    4.9230    3.3936   -3.9735 O   0  0  0  0  0  0  0  0  0  0  0  0
    4.6840    2.1249   -4.5879 C   0  0  0  0  0  0  0  0  0  0  0  0
    3.5571    2.2354   -5.6028 C   0  0  0  0  0  0  0  0  0  0  0  0
    6.9217    4.0145   -5.2139 C   0  0  0  0  0  0  0  0  0  0  0  0
    6.2263    3.6596   -6.3049 O   0  0  0  0  0  0  0  0  0  0  0  0
    6.5619    4.0954   -7.6157 C   0  0  0  0  0  0  0  0  0  0  0  0
    6.6408    2.9112   -8.5688 C   0  0  0  0  0  0  0  0  0  0  0  0
    5.9928    4.1678   -1.5419 C   0  0  0  0  0  0  0  0  0  0  0  0
    6.5846    4.0782   -0.2879 C   0  0  0  0  0  0  0  0  0  0  0  0
    8.0298    4.0319   -0.0662 C   0  0  0  0  0  0  0  0  0  0  0  0
    8.6331    4.7715    0.9439 C   0  0  0  0  0  0  0  0  0  0  0  0
   10.0039    4.7110    1.1079 C   0  0  0  0  0  0  0  0  0  0  0  0
   10.7760    3.9131    0.2811 C   0  0  0  0  0  0  0  0  0  0  0  0
   10.1850    3.1387   -0.7095 C   0  0  0  0  0  0  0  0  0  0  0  0
   11.0058    2.2572   -1.6108 C   0  0  0  0  0  0  0  0  0  0  0  0
   10.9341    2.7084   -3.0706 C   0  0  0  0  0  0  0  0  0  0  0  0
    8.8093    3.2004   -0.8654 C   0  0  0  0  0  0  0  0  0  0  0  0
    5.6235    3.8525    0.7086 C   0  0  0  0  0  0  0  0  0  0  0  0
    5.7462    3.5910    2.4325 S   0  0  0  0  0  0  0  0  0  0  0  0
    4.0398    3.3004    2.4855 C   0  0  0  0  0  0  0  0  0  0  0  0
    3.0516    2.9283    3.4140 C   0  0  0  0  0  0  0  0  0  0  0  0
    3.0650    2.7483    4.8151 C   0  0  0  0  0  0  0  0  0  0  0  0
    1.8461    2.3746    5.4828 C   0  0  0  0  0  0  0  0  0  0  0  0
    1.9965    2.2907    6.7949 N   0  0  0  0  0  0  0  0  0  0  0  0
    3.5332    2.6442    7.1617 S   0  0  0  0  0  0  0  0  0  0  0  0
    4.0703    2.9174    5.6589 N   0  0  0  0  0  0  0  0  0  0  0  0
    0.7040    2.0633    4.7100 C   0  0  0  0  0  0  0  0  0  0  0  0
   -0.5165    1.4506    5.0410 C   0  0  0  0  0  0  0  0  0  0  0  0
   -1.3575    0.8622    6.4363 S   0  0  0  0  0  0  0  0  0  0  0  0
   -2.6174    0.2453    5.3922 C   0  0  0  0  0  0  0  0  0  0  0  0
   -3.7853   -0.5073    5.6377 C   0  0  0  0  0  0  0  0  0  0  0  0
   -4.1484   -1.0398    6.9494 C   0  0  0  0  0  0  0  0  0  0  0  0
   -3.9946   -0.2728    8.1007 C   0  0  0  0  0  0  0  0  0  0  0  0
   -4.3122   -0.8100    9.3340 C   0  0  0  0  0  0  0  0  0  0  0  0
   -4.7865   -2.1078    9.4335 C   0  0  0  0  0  0  0  0  0  0  0  0
   -4.9350   -2.8914    8.2959 C   0  0  0  0  0  0  0  0  0  0  0  0
   -5.4838   -4.2878    8.3726 C   0  0  0  0  0  0  0  0  0  0  0  0
   -6.9614   -4.3056    7.9757 C   0  0  0  0  0  0  0  0  0  0  0  0
   -4.6041   -2.3495    7.0640 C   0  0  0  0  0  0  0  0  0  0  0  0
   -4.4531   -0.7896    4.4619 C   0  0  0  0  0  0  0  0  0  0  0  0
   -3.6206   -0.1872    3.0481 S   0  0  0  0  0  0  0  0  0  0  0  0
   -2.3877    0.5043    4.0403 C   0  0  0  0  0  0  0  0  0  0  0  0
   -1.1835    1.1935    3.8404 C   0  0  0  0  0  0  0  0  0  0  0  0
   -0.4486    1.6545    2.7793 N   0  0  0  0  0  0  0  0  0  0  0  0
    0.7162    2.2006    3.2954 C   0  0  0  0  0  0  0  0  0  0  0  0
    1.8480    2.7773    2.6746 C   0  0  0  0  0  0  0  0  0  0  0  0
    2.0756    3.1323    1.3573 N   0  0  0  0  0  0  0  0  0  0  0  0
    3.4135    3.4195    1.2390 C   0  0  0  0  0  0  0  0  0  0  0  0
    4.3159    3.7395    0.2200 C   0  0  0  0  0  0  0  0  0  0  0  0
    4.2669    3.8911   -1.5015 S   0  0  0  0  0  0  0  0  0  0  0  0
    1.1042    3.7034    0.4495 C   0  0  0  0  0  0  0  0  0  0  0  0
    1.3174    5.2056    0.2683 C   0  0  0  0  0  0  0  0  0  0  0  0
   -0.6923    1.1155    1.4562 C   0  0  0  0  0  0  0  0  0  0  0  0
    0.4163    0.1644    1.0162 C   0  0  0  0  0  0  0  0  0  0  0  0
   -5.7123   -1.4760    4.2712 C   0  0  0  0  0  0  0  0  0  0  0  0
   -6.8169   -1.2166    5.0910 C   0  0  0  0  0  0  0  0  0  0  0  0
   -6.5903   -0.2690    6.0206 O   0  0  0  0  0  0  0  0  0  0  0  0
   -7.5682    0.3442    6.8479 C   0  0  0  0  0  0  0  0  0  0  0  0
   -7.8601   -0.4452    8.1170 C   0  0  0  0  0  0  0  0  0  0  0  0
   -8.0411   -1.9211    4.8730 C   0  0  0  0  0  0  0  0  0  0  0  0
   -9.0670   -1.6092    5.6984 O   0  0  0  0  0  0  0  0  0  0  0  0
  -10.4315   -1.7497    5.3136 C   0  0  0  0  0  0  0  0  0  0  0  0
  -11.1913   -0.5191    5.7911 C   0  0  0  0  0  0  0  0  0  0  0  0
   -8.1491   -2.8640    3.8533 C   0  0  0  0  0  0  0  0  0  0  0  0
   -7.0565   -3.0654    2.9634 C   0  0  0  0  0  0  0  0  0  0  0  0
   -5.8431   -2.3596    3.1700 C   0  0  0  0  0  0  0  0  0  0  0  0
   -4.8145   -2.5253    2.3248 N   0  0  0  0  0  0  0  0  0  0  0  0
   -4.9565   -3.3492    1.3205 C   0  0  0  0  0  0  0  0  0  0  0  0
   -6.1329   -4.0940    1.1472 C   0  0  0  0  0  0  0  0  0  0  0  0
   -7.1482   -3.9499    1.9586 N   0  0  0  0  0  0  0  0  0  0  0  0
   -9.2676   -3.7719    3.7172 C   0  0  0  0  0  0  0  0  0  0  0  0
   -9.7075   -4.1936    2.5120 C   0  0  0  0  0  0  0  0  0  0  0  0
   -9.2848   -3.5825    1.2139 C   0  0  0  0  0  0  0  0  0  0  0  0
   -9.0659   -2.4098    0.9919 O   0  0  0  0  0  0  0  0  0  0  0  0
   -9.4999   -4.6558    0.2166 C   0  0  0  0  0  0  0  0  0  0  0  0
   -9.1211   -4.7072   -1.0919 C   0  0  0  0  0  0  0  0  0  0  0  0
   -9.4700   -5.8351   -1.8691 C   0  0  0  0  0  0  0  0  0  0  0  0
   -9.0945   -5.9412   -3.2239 C   0  0  0  0  0  0  0  0  0  0  0  0
   -9.4405   -7.0345   -3.9681 C   0  0  0  0  0  0  0  0  0  0  0  0
  -10.1794   -8.0604   -3.3629 C   0  0  0  0  0  0  0  0  0  0  0  0
  -10.5086   -9.1295   -4.1115 F   0  0  0  0  0  0  0  0  0  0  0  0
  -10.5693   -8.0086   -2.0542 C   0  0  0  0  0  0  0  0  0  0  0  0
  -10.2228   -6.8883   -1.2725 C   0  0  0  0  0  0  0  0  0  0  0  0
  -10.6157   -6.8022    0.0823 C   0  0  0  0  0  0  0  0  0  0  0  0
  -10.2580   -5.7024    0.8174 C   0  0  0  0  0  0  0  0  0  0  0  0
  -10.5135   -5.3608    2.2122 C   0  0  0  0  0  0  0  0  0  0  0  0
  -11.3779   -5.9894    3.0676 C   0  0  0  0  0  0  0  0  0  0  0  0
  -12.1383   -7.1275    2.7311 C   0  0  0  0  0  0  0  0  0  0  0  0
  -12.7733   -8.0568    2.5062 N   0  0  0  0  0  0  0  0  0  0  0  0
  -11.6423   -5.5150    4.3687 C   0  0  0  0  0  0  0  0  0  0  0  0
  -11.8940   -5.1360    5.4232 N   0  0  0  0  0  0  0  0  0  0  0  0
    9.9693    5.0233   -6.3541 H   0  0  0  0  0  0  0  0  0  0  0  0
    8.9536   -1.0501   -5.7608 H   0  0  0  0  0  0  0  0  0  0  0  0
    9.8611   -3.3123   -6.1601 H   0  0  0  0  0  0  0  0  0  0  0  0
   11.4801   -4.8063   -7.3036 H   0  0  0  0  0  0  0  0  0  0  0  0
   13.1692   -1.4665   -9.3532 H   0  0  0  0  0  0  0  0  0  0  0  0
   12.2916    0.7891   -8.9800 H   0  0  0  0  0  0  0  0  0  0  0  0
    5.5974    1.7447   -5.0480 H   0  0  0  0  0  0  0  0  0  0  0  0
    4.3904    1.4471   -3.7763 H   0  0  0  0  0  0  0  0  0  0  0  0
    3.8481    2.8953   -6.4144 H   0  0  0  0  0  0  0  0  0  0  0  0
    2.6683    2.6390   -5.1246 H   0  0  0  0  0  0  0  0  0  0  0  0
    3.3304    1.2522   -6.0057 H   0  0  0  0  0  0  0  0  0  0  0  0
    5.7437    4.7579   -7.9284 H   0  0  0  0  0  0  0  0  0  0  0  0
    7.4920    4.6698   -7.6248 H   0  0  0  0  0  0  0  0  0  0  0  0
    6.8367    3.2716   -9.5747 H   0  0  0  0  0  0  0  0  0  0  0  0
    5.7009    2.3655   -8.5610 H   0  0  0  0  0  0  0  0  0  0  0  0
    7.4341    2.2280   -8.2782 H   0  0  0  0  0  0  0  0  0  0  0  0
    8.0316    5.4072    1.5747 H   0  0  0  0  0  0  0  0  0  0  0  0
   10.4771    5.2972    1.8813 H   0  0  0  0  0  0  0  0  0  0  0  0
   11.8485    3.8856    0.4098 H   0  0  0  0  0  0  0  0  0  0  0  0
   10.6404    1.2290   -1.5402 H   0  0  0  0  0  0  0  0  0  0  0  0
   12.0465    2.2689   -1.2819 H   0  0  0  0  0  0  0  0  0  0  0  0
    9.9166    2.6314   -3.4494 H   0  0  0  0  0  0  0  0  0  0  0  0
   11.2595    3.7423   -3.1674 H   0  0  0  0  0  0  0  0  0  0  0  0
   11.5762    2.0857   -3.6909 H   0  0  0  0  0  0  0  0  0  0  0  0
    8.3301    2.5927   -1.6213 H   0  0  0  0  0  0  0  0  0  0  0  0
   -3.6407    0.7438    8.0255 H   0  0  0  0  0  0  0  0  0  0  0  0
   -4.1934   -0.2119   10.2256 H   0  0  0  0  0  0  0  0  0  0  0  0
   -5.0379   -2.5172   10.4015 H   0  0  0  0  0  0  0  0  0  0  0  0
   -5.3772   -4.6765    9.3868 H   0  0  0  0  0  0  0  0  0  0  0  0
   -4.9242   -4.9386    7.6969 H   0  0  0  0  0  0  0  0  0  0  0  0
   -7.0885   -3.9049    6.9714 H   0  0  0  0  0  0  0  0  0  0  0  0
   -7.3498   -5.3214    7.9964 H   0  0  0  0  0  0  0  0  0  0  0  0
   -7.5441   -3.6982    8.6645 H   0  0  0  0  0  0  0  0  0  0  0  0
   -4.6881   -2.9604    6.1761 H   0  0  0  0  0  0  0  0  0  0  0  0
    1.1719    3.1986   -0.5199 H   0  0  0  0  0  0  0  0  0  0  0  0
    0.1162    3.5535    0.8795 H   0  0  0  0  0  0  0  0  0  0  0  0
    1.3113    5.7046    1.2351 H   0  0  0  0  0  0  0  0  0  0  0  0
    2.2613    5.4119   -0.2267 H   0  0  0  0  0  0  0  0  0  0  0  0
    0.5141    5.6130   -0.3395 H   0  0  0  0  0  0  0  0  0  0  0  0
   -0.8242    1.9086    0.7181 H   0  0  0  0  0  0  0  0  0  0  0  0
   -1.6369    0.5698    1.5190 H   0  0  0  0  0  0  0  0  0  0  0  0
    0.5317   -0.6366    1.7427 H   0  0  0  0  0  0  0  0  0  0  0  0
    1.3653    0.6854    0.9223 H   0  0  0  0  0  0  0  0  0  0  0  0
    0.1613   -0.2718    0.0544 H   0  0  0  0  0  0  0  0  0  0  0  0
   -7.0976    1.2964    7.1143 H   0  0  0  0  0  0  0  0  0  0  0  0
   -8.4842    0.5496    6.2910 H   0  0  0  0  0  0  0  0  0  0  0  0
   -6.9315   -0.6574    8.6398 H   0  0  0  0  0  0  0  0  0  0  0  0
   -8.3558   -1.3813    7.8809 H   0  0  0  0  0  0  0  0  0  0  0  0
   -8.5058    0.1439    8.7626 H   0  0  0  0  0  0  0  0  0  0  0  0
  -10.8505   -2.6446    5.7867 H   0  0  0  0  0  0  0  0  0  0  0  0
  -10.5114   -1.8474    4.2266 H   0  0  0  0  0  0  0  0  0  0  0  0
  -11.0625   -0.3945    6.8629 H   0  0  0  0  0  0  0  0  0  0  0  0
  -10.8332    0.3745    5.2854 H   0  0  0  0  0  0  0  0  0  0  0  0
  -12.2479   -0.6453    5.5744 H   0  0  0  0  0  0  0  0  0  0  0  0
   -4.1178   -3.4434    0.6455 H   0  0  0  0  0  0  0  0  0  0  0  0
   -6.2468   -4.8155    0.3496 H   0  0  0  0  0  0  0  0  0  0  0  0
   -9.6277   -4.2370    4.6246 H   0  0  0  0  0  0  0  0  0  0  0  0
   -8.5583   -3.8976   -1.5324 H   0  0  0  0  0  0  0  0  0  0  0  0
   -8.5272   -5.1374   -3.6689 H   0  0  0  0  0  0  0  0  0  0  0  0
   -9.1625   -7.1297   -5.0058 H   0  0  0  0  0  0  0  0  0  0  0  0
  -11.1398   -8.8156   -1.6216 H   0  0  0  0  0  0  0  0  0  0  0  0
  -11.1859   -7.6121    0.5097 H   0  0  0  0  0  0  0  0  0  0  0  0
  1  2  2  0  0  0  0
  2  3  1  0  0  0  0
  3  4  2  0  0  0  0
  3  5  1  0  0  0  0
  5  6  2  0  0  0  0
  6  7  1  0  0  0  0
  7  8  2  0  0  0  0
  8  9  1  0  0  0  0
  9 10  2  0  0  0  0
 10 11  1  0  0  0  0
 10 12  1  0  0  0  0
 12 13  2  0  0  0  0
 13 14  1  0  0  0  0
 14 15  2  0  0  0  0
 15 16  1  0  0  0  0
 16 17  2  0  0  0  0
 17 18  1  0  0  0  0
 18 19  3  0  0  0  0
 17 20  1  0  0  0  0
 20 21  3  0  0  0  0
  1 22  1  0  0  0  0
 22 23  1  0  0  0  0
 23 24  1  0  0  0  0
 24 25  2  0  0  0  0
 25 26  1  0  0  0  0
 26 27  1  0  0  0  0
 24 28  1  0  0  0  0
 28 29  2  0  0  0  0
 29 30  1  0  0  0  0
 30 31  1  0  0  0  0
 31 32  1  0  0  0  0
 29 33  1  0  0  0  0
 33 34  1  0  0  0  0
 34 35  1  0  0  0  0
 35 36  1  0  0  0  0
 28 37  1  0  0  0  0
 37 38  2  0  0  0  0
 38 39  1  0  0  0  0
 39 40  2  0  0  0  0
 40 41  1  0  0  0  0
 41 42  2  0  0  0  0
 42 43  1  0  0  0  0
 43 44  1  0  0  0  0
 44 45  1  0  0  0  0
 43 46  2  0  0  0  0
 38 47  1  0  0  0  0
 47 48  1  0  0  0  0
 48 49  1  0  0  0  0
 49 50  1  0  0  0  0
 50 51  1  0  0  0  0
 51 52  1  0  0  0  0
 52 53  2  0  0  0  0
 53 54  1  0  0  0  0
 54 55  1  0  0  0  0
 52 56  1  0  0  0  0
 56 57  1  0  0  0  0
 57 58  1  0  0  0  0
 58 59  1  0  0  0  0
 59 60  1  0  0  0  0
 60 61  1  0  0  0  0
 61 62  2  0  0  0  0
 62 63  1  0  0  0  0
 63 64  2  0  0  0  0
 64 65  1  0  0  0  0
 65 66  1  0  0  0  0
 66 67  1  0  0  0  0
 65 68  2  0  0  0  0
 60 69  2  0  0  0  0
 69 70  1  0  0  0  0
 70 71  1  0  0  0  0
 71 72  1  0  0  0  0
 72 73  1  0  0  0  0
 73 74  1  0  0  0  0
 74 75  1  0  0  0  0
 75 76  1  0  0  0  0
 76 77  1  0  0  0  0
 77 78  1  0  0  0  0
 78 79  1  0  0  0  0
 76 80  1  0  0  0  0
 80 81  1  0  0  0  0
 73 82  1  0  0  0  0
 82 83  1  0  0  0  0
 69 84  1  0  0  0  0
 84 85  2  0  0  0  0
 85 86  1  0  0  0  0
 86 87  1  0  0  0  0
 87 88  1  0  0  0  0
 85 89  1  0  0  0  0
 89 90  1  0  0  0  0
 90 91  1  0  0  0  0
 91 92  1  0  0  0  0
 89 93  2  0  0  0  0
 93 94  1  0  0  0  0
 94 95  2  0  0  0  0
 95 96  1  0  0  0  0
 96 97  2  0  0  0  0
 97 98  1  0  0  0  0
 98 99  2  0  0  0  0
 93100  1  0  0  0  0
100101  2  0  0  0  0
101102  1  0  0  0  0
102103  2  0  0  0  0
102104  1  0  0  0  0
104105  2  0  0  0  0
105106  1  0  0  0  0
106107  2  0  0  0  0
107108  1  0  0  0  0
108109  2  0  0  0  0
109110  1  0  0  0  0
109111  1  0  0  0  0
111112  2  0  0  0  0
112113  1  0  0  0  0
113114  2  0  0  0  0
114115  1  0  0  0  0
115116  2  0  0  0  0
116117  1  0  0  0  0
117118  3  0  0  0  0
116119  1  0  0  0  0
119120  3  0  0  0  0
 16  2  1  0  0  0  0
 33 22  2  0  0  0  0
 79 37  1  0  0  0  0
 95 84  1  0  0  0  0
115101  1  0  0  0  0
 15  5  1  0  0  0  0
 27 23  2  0  0  0  0
 46 39  1  0  0  0  0
 78 47  2  0  0  0  0
 99 94  1  0  0  0  0
114104  1  0  0  0  0
 13  7  1  0  0  0  0
 77 49  2  0  0  0  0
112106  1  0  0  0  0
 75 50  2  0  0  0  0
 55 51  2  0  0  0  0
 74 56  2  0  0  0  0
 72 57  2  0  0  0  0
 71 59  2  0  0  0  0
 68 61  1  0  0  0  0
  1121  1  0  0  0  0
  6122  1  0  0  0  0
  8123  1  0  0  0  0
  9124  1  0  0  0  0
 12125  1  0  0  0  0
 14126  1  0  0  0  0
 31127  1  0  0  0  0
 31128  1  0  0  0  0
 32129  1  0  0  0  0
 32130  1  0  0  0  0
 32131  1  0  0  0  0
 35132  1  0  0  0  0
 35133  1  0  0  0  0
 36134  1  0  0  0  0
 36135  1  0  0  0  0
 36136  1  0  0  0  0
 40137  1  0  0  0  0
 41138  1  0  0  0  0
 42139  1  0  0  0  0
 44140  1  0  0  0  0
 44141  1  0  0  0  0
 45142  1  0  0  0  0
 45143  1  0  0  0  0
 45144  1  0  0  0  0
 46145  1  0  0  0  0
 62146  1  0  0  0  0
 63147  1  0  0  0  0
 64148  1  0  0  0  0
 66149  1  0  0  0  0
 66150  1  0  0  0  0
 67151  1  0  0  0  0
 67152  1  0  0  0  0
 67153  1  0  0  0  0
 68154  1  0  0  0  0
 80155  1  0  0  0  0
 80156  1  0  0  0  0
 81157  1  0  0  0  0
 81158  1  0  0  0  0
 81159  1  0  0  0  0
 82160  1  0  0  0  0
 82161  1  0  0  0  0
 83162  1  0  0  0  0
 83163  1  0  0  0  0
 83164  1  0  0  0  0
 87165  1  0  0  0  0
 87166  1  0  0  0  0
 88167  1  0  0  0  0
 88168  1  0  0  0  0
 88169  1  0  0  0  0
 91170  1  0  0  0  0
 91171  1  0  0  0  0
 92172  1  0  0  0  0
 92173  1  0  0  0  0
 92174  1  0  0  0  0
 97175  1  0  0  0  0
 98176  1  0  0  0  0
100177  1  0  0  0  0
105178  1  0  0  0  0
107179  1  0  0  0  0
108180  1  0  0  0  0
111181  1  0  0  0  0
113182  1  0  0  0  0
M  END
