175

C          1.49940        9.17610       -6.65090
C          2.31280       10.23440       -6.89540
C          3.68620       10.39040       -6.33670
O          4.26000        9.64120       -5.57930
C          4.14210       11.71990       -6.78220
C          5.34680       12.32250       -6.56190
C          5.57620       13.61560       -7.08190
C          6.80550       14.27990       -6.89410
C          7.01320       15.53310       -7.39930
C          5.98070       16.15620       -8.11380
F          6.20390       17.39010       -8.60250
C          4.77050       15.55720       -8.32580
C          4.53930       14.26550       -7.81300
C          3.29900       13.61920       -8.01880
C          3.10250       12.36050       -7.51380
C          1.95320       11.46440       -7.57910
C          0.76970       11.72870       -8.21630
C         -0.32790       10.84630       -8.30670
N         -1.26370       10.19340       -8.43690
C          0.48010       12.94100       -8.87780
N          0.17820       13.90260       -9.42750
C          1.89480        7.90610       -6.11350
C          3.06380        7.23120       -6.44090
F          3.90680        7.74760       -7.34260
C          3.36940        5.95970       -5.94550
F          4.55930        5.44800       -6.29660
C          2.50800        5.25610       -5.10840
C          1.34250        5.97260       -4.68810
N          0.55410        5.42350       -3.76120
C         -0.54530        6.02420       -3.37440
C         -1.34370        5.31020       -2.32700
C         -2.16340        4.18920       -2.97070
C         -0.92590        7.24990       -3.98430
N         -0.13950        7.83100       -4.85890
C          1.00940        7.23920       -5.21930
C         -2.19150        7.97760       -3.65010
C         -1.96700        8.91610       -2.46150
C          2.69360        3.91850       -4.64140
C          3.44920        2.87850       -5.17560
C          4.07830        2.83170       -6.49460
C          3.38620        3.25880       -7.62580
C          3.96620        3.13430       -8.87250
C          5.22790        2.57950       -9.00440
C          5.92800        2.14190       -7.88790
C          7.27070        1.48430       -8.02080
C          7.11530       -0.03800       -8.01820
C          5.34110        2.26940       -6.63850
C          3.40200        1.73960       -4.35390
S          4.05250        0.12340       -4.54400
C          3.20900       -0.35450       -3.10940
C          2.93110       -1.51430       -2.37140
C          3.25330       -2.86690       -2.61970
C          2.63470       -3.88420       -1.81980
N          2.96470       -5.10530       -2.21000
S          3.97530       -4.98550       -3.46940
N          4.02480       -3.37030       -3.57010
C          1.81520       -3.49770       -0.73670
C          1.12870       -4.25940        0.22160
S          0.76240       -5.91310        0.57330
C         -0.18330       -5.39520        1.95190
C         -0.94670       -6.08870        2.91660
C         -1.04580       -7.54360        2.99270
C         -1.01550       -8.30430        1.82530
C         -1.07350       -9.68290        1.89320
C         -1.19090      -10.31830        3.11770
C         -1.23420       -9.57720        4.29270
C         -1.45090      -10.24880        5.61660
C         -2.95010      -10.33800        5.91100
C         -1.13740       -8.19660        4.22000
C         -1.50750       -5.20620        3.82450
S         -1.07330       -3.53650        3.51540
C         -0.17000       -4.00880        2.12630
C          0.56500       -3.35900        1.12830
N          0.85330       -2.07240        0.75940
C          1.60090       -2.12850       -0.40760
C          2.06970       -1.13090       -1.30150
N          1.82810        0.22780       -1.40700
C          2.49490        0.68750       -2.50920
C          2.60090        1.88780       -3.21970
S          1.84950        3.44710       -3.17410
C          0.80660        1.05240       -0.80430
C         -0.59510        0.56160       -1.15760
C          0.73780       -1.01010        1.73530
C          2.10650       -0.47510        2.14720
C         -2.41830       -5.48050        4.90530
C         -2.28990       -4.87200        6.14430
F         -1.28860       -4.00110        6.36600
C         -3.13320       -5.16840        7.21480
F         -2.90590       -4.53200        8.37730
C         -4.19840       -6.05000        7.09930
C         -4.43380       -6.58950        5.79740
N         -5.53210       -7.33480        5.59760
C         -5.77280       -7.82340        4.40570
C         -7.08460       -8.52850        4.24780
C         -8.17390       -7.51290        3.88900
C         -4.86290       -7.59440        3.33380
N         -3.79150       -6.86240        3.51410
C         -3.54460       -6.33980        4.72630
C         -5.05770       -8.16200        1.96220
C         -4.64310       -9.63440        1.91560
C         -5.11720       -6.36980        8.14750
C         -4.96150       -6.38380        9.49510
C         -6.18700       -6.37720       10.34770
O         -7.31850       -6.57980        9.98190
C         -5.70940       -6.02300       11.70250
C         -4.30210       -5.96830       11.70360
C         -3.61880       -5.61130       12.85440
C         -4.35130       -5.32240       13.99600
C         -5.73650       -5.39270       13.99770
Br        -6.67460       -4.99770       15.58880
C         -6.44600       -5.74430       12.84340
Cl        -8.15490       -5.82350       12.83910
C         -3.81370       -6.33320       10.37560
C         -2.54420       -6.76470       10.09870
C         -2.14550       -7.29420        8.85650
N         -1.77740       -7.73990        7.86470
C         -1.49920       -6.80290       11.04630
N         -0.61460       -6.85750       11.77470
H          0.43380        9.26720       -6.81590
H          6.11810       11.81430       -6.00280
H          7.58560       13.77940       -6.34050
H          7.94710       16.05530       -7.26430
H          3.99840       16.06610       -8.88150
H          2.53400       14.13950       -8.57220
H         -2.00090        5.99960       -1.79990
H         -0.64440        4.86950       -1.61470
H         -1.49890        3.48890       -3.47000
H         -2.73100        3.65600       -2.21230
H         -2.85810        4.59140       -3.70490
H         -2.99110        7.27150       -3.42520
H         -2.47700        8.57070       -4.51950
H         -1.18980        9.63720       -2.70150
H         -1.65970        8.36270       -1.57640
H         -2.88330        9.45460       -2.23390
H          2.39350        3.67500       -7.52340
H          3.42960        3.46830       -9.74850
H          5.67290        2.48620       -9.98450
H          7.91070        1.78160       -7.18760
H          7.74970        1.79910       -8.94970
H          6.64140       -0.36920       -7.09690
H          8.08650       -0.51970       -8.10360
H          6.49530       -0.35570       -8.85360
H          5.88120        1.94720       -5.76020
H         -0.96410       -7.81760        0.86420
H         -1.03910      -10.26530        0.98400
H         -1.25050      -11.39650        3.16330
H         -1.02450      -11.25370        5.60210
H         -0.97220       -9.67480        6.40980
H         -3.37880       -9.34050        5.97850
H         -3.12150      -10.84760        6.85590
H         -3.46460      -10.88310        5.12160
H         -1.12200       -7.62880        5.13840
H          0.95130        1.11450        0.27430
H          0.94630        2.05800       -1.20850
H         -0.74640       -0.46570       -0.83460
H         -1.34010        1.19400       -0.68240
H         -0.74040        0.60440       -2.23430
H          0.24560       -1.44480        2.60880
H          0.08860       -0.21420        1.36740
H          2.69600       -1.27130        2.59600
H          1.98790        0.32040        2.87790
H          2.65520       -0.08900        1.29140
H         -7.33630       -8.99430        5.20110
H         -7.02960       -9.29660        3.47870
H         -9.13160       -8.01590        3.78360
H         -8.25800       -6.76480        4.67310
H         -7.94210       -7.00720        2.95380
H         -6.09950       -8.05930        1.65480
H         -4.42720       -7.59500        1.27660
H         -4.76350      -10.01950        0.90620
H         -5.24530      -10.23860        2.59010
H         -3.60060       -9.73360        2.20450
H         -6.11690       -6.60690        7.79540
H         -2.54400       -5.54040       12.87620
H         -3.84130       -5.03660       14.90310
