231

C         -8.36320       -2.28010       -0.31830
C         -7.10790       -2.75290       -0.56510
C         -6.91470       -3.86430       -1.53220
O         -7.74950       -4.34600       -2.26410
C         -5.50260       -4.27440       -1.38530
C         -4.82730       -5.27380       -2.02380
C         -3.43870       -5.42030       -1.80370
C         -2.68920       -6.42130       -2.45460
C         -1.33490       -6.50950       -2.28680
C         -0.69070       -5.57600       -1.46380
F          0.64720       -5.65540       -1.34480
C         -1.37220       -4.59850       -0.79410
C         -2.77170       -4.50860       -0.93520
C         -3.50740       -3.51580       -0.24790
C         -4.85580       -3.40280       -0.46380
C         -5.82470       -2.42040        0.01490
C         -5.48160       -1.29230        0.72140
C         -6.27650       -0.14250        0.89450
N         -6.78330        0.87940        1.03670
C         -4.25590       -1.09190        1.38300
N         -3.32860       -0.86120        2.02370
C         -8.75480       -1.50160        0.81040
C         -9.69300       -0.47540        0.73980
F        -10.36550       -0.28990       -0.40650
C         -9.82390        0.49990        1.72670
F        -10.59640        1.55060        1.41130
C         -9.07270        0.46370        2.90760
C         -8.39450       -0.78720        3.13740
N         -7.84340       -1.00550        4.33380
C         -7.09020       -2.06460        4.54110
C         -6.49720       -2.20480        5.90910
C         -5.13700       -1.50490        5.96550
C         -6.83810       -2.96820        3.48070
N         -7.38230       -2.77350        2.30190
C         -8.16990       -1.71090        2.09410
C         -5.98610       -4.19440        3.61250
C         -6.83920       -5.39210        4.03670
C         -8.64130        1.58110        3.67490
C         -8.94930        2.94950        3.57670
C        -10.26100        3.48500        3.24380
C        -10.40230        4.67600        2.53520
C        -11.66280        5.18220        2.28690
C        -12.78760        4.51660        2.74230
C        -12.66690        3.33100        3.45740
C        -13.88500        2.57390        3.90250
C        -14.29390        1.56430        2.82810
C        -11.40150        2.82680        3.70450
C         -7.84250        3.74170        3.93680
S         -7.41260        5.43630        3.71740
C         -5.75700        5.07690        4.11730
C         -4.46000        5.61980        3.99280
C         -3.91820        6.89180        3.68210
C         -2.48580        7.04770        3.53750
N         -2.14410        8.29950        3.28690
S         -3.48380        9.20670        3.22980
N         -4.56230        8.03470        3.52140
C         -1.64850        5.90300        3.55090
C         -0.34040        5.64090        3.09140
S          1.03600        6.45560        2.40330
C          1.75810        4.90280        2.01220
C          2.89470        4.51840        1.26130
C          3.88700        5.51310        0.83620
C          4.40670        6.35660        1.81520
C          5.33310        7.32390        1.47730
C          5.75430        7.45140        0.16720
C          5.24150        6.62420       -0.82530
C          5.75640        6.74510       -2.23120
C          7.18950        6.21570       -2.31670
C          4.29430        5.66960       -0.48400
C          2.94530        3.14200        1.10660
S          1.61940        2.33000        1.93090
C          0.97300        3.83470        2.43970
C         -0.19820        4.24790        3.07420
N         -1.32020        3.63530        3.55270
C         -2.21700        4.63810        3.85480
C         -3.56590        4.54320        4.24500
N         -4.27070        3.43120        4.63750
C         -5.59570        3.73900        4.50850
C         -6.76070        2.99270        4.40820
S         -7.10760        1.31350        4.50960
C         -3.80210        2.35460        5.47940
C         -4.46080        2.40480        6.85630
C         -1.59500        2.25120        3.21550
C         -0.83740        1.25180        4.08360
C          3.77850        2.22970        0.38740
C          4.67240        2.37550       -0.63470
C          5.07040        1.14710       -1.22040
C          5.90450        0.95740       -2.33970
C          6.35520        2.05580       -3.16920
C          7.56240        2.21620       -3.79030
C          7.56620        3.33020       -4.64660
S          8.72830        4.08040       -5.67630
C          7.56810        5.28860       -6.18140
Si         8.05270        6.66080       -7.38740
C          9.61030        6.13620       -8.36190
C         10.90570        6.22890       -7.56170
C          6.57460        6.91390       -8.57370
C          6.76910        8.08100       -9.53510
C          8.39070        8.24090       -6.35470
C          7.14890        8.78260       -5.65220
C          6.35880        5.10960       -5.57260
C          6.35270        4.00750       -4.70300
S          5.19130        3.28400       -3.64980
C          6.16130       -0.36000       -2.70560
C          5.55830       -1.48250       -2.07670
C          4.68590       -1.29540       -0.97560
C          4.00870       -2.39840       -0.33170
S          2.39780       -2.14540        0.33940
C          2.31470       -3.79180        0.84570
C          1.36840       -4.57940        1.51740
C          1.77370       -5.87620        1.66070
Si         0.80740       -7.31710        2.40400
C          1.88360       -8.22170        3.70370
C          3.07260       -8.97150        3.11280
C         -0.74640       -6.64180        3.29910
C         -1.89930       -6.27270        2.37240
C          0.32590       -8.48700        0.96620
C         -0.39320       -9.75190        1.42540
S          3.36070       -6.13250        0.97230
C          3.47110       -4.48030        0.49070
C          4.43200       -3.69340       -0.16150
C          4.48940        0.02410       -0.58030
S          3.47910        0.53330        0.73470
C          5.87370       -2.68520       -2.73710
C          6.73890       -2.53640       -3.79200
S          7.14530       -0.84370       -4.05400
C          7.28760       -3.48660       -4.68360
C          7.40350       -4.83930       -4.54300
C          7.22610       -5.64370       -3.31190
O          6.70460       -5.33090       -2.26170
C          7.88760       -6.93500       -3.58940
C          8.07620       -7.99410       -2.72460
C          8.77840       -9.09340       -3.19650
C          9.30660       -9.10810       -4.47610
C          9.12900       -8.03450       -5.35530
O          9.68110       -7.94630       -6.57790
C         10.37980       -9.04380       -7.11930
C          8.36220       -6.94940       -4.91020
C          7.94570       -5.72220       -5.57140
C          7.88610       -5.48060       -6.91750
C          7.35180       -4.30080       -7.48460
N          6.92200       -3.38540       -8.02870
C          8.20720       -6.37980       -7.95840
N          8.37130       -7.02140       -8.89630
H         -9.12900       -2.55070       -1.03740
H         -5.34050       -5.92920       -2.71130
H         -3.20380       -7.11680       -3.10020
H         -0.74700       -7.26600       -2.78200
H         -0.84010       -3.88630       -0.18320
H         -2.98020       -2.85750        0.42490
H         -6.39030       -3.25630        6.17440
H         -7.16980       -1.72550        6.62100
H         -4.45280       -1.91460        5.22550
H         -5.26770       -0.44590        5.76340
H         -4.69710       -1.62320        6.95250
H         -5.54320       -4.40370        2.63680
H         -5.18600       -4.02980        4.33370
H         -7.31310       -5.21150        4.99920
H         -6.22020       -6.28220        4.11550
H         -7.61690       -5.57260        3.29890
H         -9.52910        5.18510        2.15860
H        -11.76960        6.10100        1.72970
H        -13.77010        4.91910        2.54140
H        -14.71000        3.26630        4.08060
H        -13.67460        2.04460        4.83430
H        -13.48260        0.86530        2.63910
H        -15.17160        1.00430        3.14320
H        -14.52210        2.07660        1.89660
H        -11.29040        1.91140        4.26970
H          4.08640        6.24490        2.84030
H          5.72880        7.97830        2.23990
H          6.48080        8.20730       -0.09360
H          5.11770        6.18080       -2.91290
H          5.74380        7.79360       -2.53850
H          7.57540        6.31570       -3.32830
H          7.22380        5.16490       -2.03610
H          7.84100        6.76700       -1.64290
H          3.84230        5.06460       -1.25690
H         -4.01800        1.39240        5.00280
H         -2.72660        2.47160        5.59770
H         -5.53170        2.23720        6.78040
H         -4.03440        1.63140        7.48930
H         -4.28970        3.37260        7.32260
H         -1.28570        2.09810        2.17560
H         -2.66870        2.08050        3.26350
H         -1.05600        1.37700        5.14070
H          0.23420        1.36120        3.94270
H         -1.12450        0.24870        3.78330
H          5.03490        3.32760       -0.96940
H          8.41230        1.58210       -3.61850
H          9.70740        6.75490       -9.25470
H          9.48610        5.11020       -8.71090
H         11.08920        7.25190       -7.24350
H         11.75220        5.90240       -8.16300
H         10.85560        5.59890       -6.67730
H          6.40420        6.00420       -9.15090
H          5.66620        7.08270       -7.99520
H          6.90820        9.01060       -8.98900
H          7.64290        7.92210      -10.16160
H          5.90330        8.19550      -10.18500
H          9.15350        8.02920       -5.60330
H          8.80080        9.01940       -6.99950
H          6.72160        8.02860       -4.99610
H          7.39490        9.65740       -5.05260
H          6.39110        9.07010       -6.37640
H          5.50970        5.74290       -5.75130
H          0.43310       -4.21010        1.89490
H          1.26160       -8.92780        4.25630
H          2.25160       -7.50110        4.43600
H          3.64780       -9.46110        3.89690
H          2.73960       -9.73150        2.41090
H          3.73120       -8.28840        2.58320
H         -1.09770       -7.39090        4.00930
H         -0.47410       -5.76710        3.89060
H         -1.58930       -5.52940        1.64380
H         -2.73740       -5.86590        2.93730
H         -2.25180       -7.14440        1.82720
H         -0.31270       -7.95320        0.26010
H          1.22420       -8.76630        0.41370
H          0.23400      -10.32860        2.10000
H         -0.64760      -10.38310        0.57540
H         -1.31250       -9.50330        1.95020
H          5.39950       -4.06140       -0.44780
H          5.44470       -3.63300       -2.48350
H          7.71660       -3.04820       -5.57750
H          7.68500       -7.95380       -1.72070
H          8.93590       -9.94770       -2.55550
H          9.87600       -9.96720       -4.79400
H         10.62110       -8.74920       -8.13890
H         11.30060       -9.24410       -6.56310
H          9.75620       -9.94150       -7.14210
