173

C         -8.38830        0.07020       -5.55220
C         -9.02650        1.26280       -5.63120
C         -8.42180        2.50200       -6.20680
O         -7.53590        2.57780       -7.02980
C         -9.28140        3.60360       -5.72770
C         -9.08870        4.95050       -5.83320
C        -10.04410        5.83050       -5.27790
C         -9.87990        7.22990       -5.33340
C        -10.80850        8.07050       -4.78610
C        -11.93780        7.52070       -4.16330
F        -12.83840        8.36460       -3.62770
C        -12.14680        6.17250       -4.08270
C        -11.19920        5.29110       -4.64030
C        -11.38450        3.89160       -4.56730
C        -10.43680        3.05730       -5.10040
C        -10.34940        1.59970       -5.13400
C        -11.32700        0.73020       -4.73460
C        -11.22600       -0.67710       -4.78370
N        -11.21530       -1.82460       -4.78830
C        -12.58640        1.12970       -4.23870
N        -13.62560        1.39270       -3.82850
C         -6.96230       -0.05060       -5.67510
C         -6.35260       -1.21410       -6.11660
F         -7.11290       -2.22940       -6.54850
C         -4.96240       -1.35920       -6.16680
F         -4.45820       -2.51630       -6.63060
C         -4.10630       -0.33820       -5.79420
C         -4.70140        0.85330       -5.28200
N         -3.91020        1.84170       -4.84540
C         -4.43220        2.92400       -4.32990
C         -3.45830        3.99810       -3.94680
C         -2.32200        3.43350       -3.09550
C         -5.84190        3.01090       -4.13810
N         -6.62420        2.05560       -4.57170
C         -6.10540        0.98550       -5.19380
C         -6.50590        4.11470       -3.37150
C         -6.30410        3.92510       -1.86600
C         -2.66860       -0.45460       -5.79650
C         -1.74190        0.52240       -6.11020
C         -2.05940        1.74180       -6.84920
C         -3.05770        1.74290       -7.82280
C         -3.36040        2.90410       -8.50510
C         -2.66200        4.07090       -8.24410
C         -1.64770        4.08470       -7.29580
C         -0.83570        5.32350       -7.04430
C          0.46160        5.27580       -7.85370
C         -1.35640        2.91720       -6.60670
C         -0.45440        0.15020       -5.66760
S          1.07880        0.98720       -5.65180
C          1.75200       -0.30580       -4.72600
C          2.94380       -0.60080       -4.04420
C          4.18150        0.07440       -3.98160
C          5.21550       -0.44950       -3.13430
N          6.32620        0.26810       -3.19000
S          6.09350        1.49560       -4.21940
N          4.56210        1.16480       -4.62870
C          4.91920       -1.55260       -2.30370
C          5.59770       -2.06910       -1.18720
S          7.01830       -1.74150       -0.25170
C          6.43460       -2.83650        0.98210
C          6.89470       -3.16310        2.27510
C          8.13600       -2.66810        2.86560
C          8.50480       -1.33530        2.71450
C          9.65820       -0.86830        3.31520
C         10.45170       -1.72020        4.06250
C         10.10960       -3.06000        4.20610
C         10.99480       -3.99810        4.97560
C         12.06110       -4.60030        4.05870
C          8.95660       -3.52380        3.59490
C          6.02930       -4.03840        2.90570
S          4.68150       -4.51110        1.88360
C          5.23460       -3.46030        0.63300
C          4.75290       -3.01570       -0.60420
N          3.60620       -3.14680       -1.34140
C          3.66980       -2.23140       -2.37880
C          2.71940       -1.81820       -3.34750
N          1.45610       -2.29350       -3.67320
C          0.85990       -1.35240       -4.48060
C         -0.40300       -1.09540       -5.03350
S         -1.95070       -1.86070       -5.04030
C          1.03460       -3.68020       -3.72710
C         -0.22230       -3.96800       -2.90880
C          2.45230       -3.75360       -0.71740
C          1.60930       -2.70610        0.00670
C          5.99350       -4.46680        4.27640
C          6.38820       -3.61810        5.33560
N          6.93410       -2.39460        5.33370
N          7.07470       -2.10380        6.59180
C          7.60030       -0.83570        7.00510
C          6.50230        0.22160        6.94580
N          6.67060       -2.99190        7.45470
C          6.19450       -3.98860        6.69870
C          5.60330       -5.21880        7.06240
C          5.31150       -6.05090        5.98680
C          5.46020       -5.69260        4.65090
F          4.76310       -7.25580        6.24150
C          5.30840       -5.58210        8.41720
C          4.78400       -4.73410        9.34030
C          4.09430       -3.45620        9.01520
O          4.01230       -2.89410        7.94490
C          3.39330       -3.06640       10.25480
C          2.56310       -2.00220       10.45910
C          1.94870       -1.83820       11.72020
C          1.07850       -0.76030       11.98240
C          0.47800       -0.62040       13.20250
C          0.74200       -1.56840       14.20050
F          0.14130       -1.41380       15.39460
C          1.57870       -2.63070       14.00000
C          2.20510       -2.79140       12.74850
C          3.07100       -3.88350       12.50840
C          3.65940       -4.01790       11.27880
C          4.56870       -5.02550       10.74600
C          5.18580       -6.01310       11.46560
C          4.97140       -6.23670       12.84150
N          4.83090       -6.46490       13.95780
C          6.14850       -6.90170       10.94030
N          6.95650       -7.63790       10.58980
H         -8.92680       -0.83370       -5.29910
H         -8.20780        5.34020       -6.32130
H         -9.00260        7.62970       -5.81940
H        -10.69810        9.14280       -4.82000
H        -13.02830        5.78410       -3.59710
H        -12.27030        3.51460       -4.08170
H         -3.03730        4.39380       -4.87530
H         -3.95540        4.81110       -3.42110
H         -1.57930        4.20280       -2.90080
H         -2.70170        3.06870       -2.14330
H         -1.85070        2.60650       -3.61760
H         -6.11190        5.08270       -3.68460
H         -7.57280        4.08630       -3.59510
H         -6.80430        4.72150       -1.32080
H         -5.24860        3.93630       -1.60620
H         -6.72500        2.97320       -1.55140
H         -3.59030        0.83180       -8.05070
H         -4.14490        2.89900       -9.24680
H         -2.90330        4.97540       -8.78400
H         -1.40780        6.20920       -7.32840
H         -0.59020        5.39840       -5.98250
H          1.05390        6.17070       -7.67740
H          0.24090        5.20880       -8.91660
H          1.05060        4.40660       -7.57060
H         -0.58320        2.93360       -5.85380
H          7.87500       -0.66280        2.15320
H          9.93670        0.16980        3.20570
H         11.34690       -1.34580        4.53900
H         11.48370       -3.46030        5.79080
H         10.39540       -4.80170        5.40870
H         11.59300       -5.15080        3.24580
H         12.70170       -5.27990        4.61560
H         12.67760       -3.81420        3.62840
H          8.68500       -4.56610        3.69050
H          1.87480       -4.30050       -3.40990
H          0.82890       -3.92780       -4.77540
H         -0.38730       -5.04140       -2.86570
H         -1.08940       -3.51130       -3.37540
H         -0.14280       -3.58100       -1.89800
H          1.85600       -4.29370       -1.44630
H          2.83160       -4.48060        0.00520
H          2.20640       -2.20730        0.76670
H          1.24640       -1.95520       -0.69220
H          0.76110       -3.18070        0.49270
H          8.41830       -0.57890        6.32790
H          7.97090       -0.95500        8.02430
H          6.88530        1.17680        7.29310
H          6.15020        0.33100        5.92330
H          5.66610       -0.07600        7.57410
H          5.13450       -6.39480        3.89790
H          5.46550       -6.62290        8.67510
H          2.37270       -1.29580        9.66470
H          0.88970       -0.04360       11.19720
H         -0.19260        0.19620       13.41830
H          1.75900       -3.34090       14.79170
H          3.23700       -4.59460       13.30180
