
  xtb     02052211573D
 energy: -336.331357355110 gnorm: 0.000382154208 xtb: 6.4.1 (unknown)
194215  0     0  0            999 V2000
    2.3904   -8.7763    7.6949 C   0  0  0  0  0  0  0  0  0  0  0  0
    2.3643   -9.9233    6.9669 C   0  0  0  0  0  0  0  0  0  0  0  0
    2.2072   -9.9674    5.4855 C   0  0  0  0  0  0  0  0  0  0  0  0
    2.0693   -9.0391    4.7185 O   0  0  0  0  0  0  0  0  0  0  0  0
    2.0913  -11.3982    5.1459 C   0  0  0  0  0  0  0  0  0  0  0  0
    1.9409  -11.9677    3.9144 C   0  0  0  0  0  0  0  0  0  0  0  0
    1.8101  -13.3703    3.8139 C   0  0  0  0  0  0  0  0  0  0  0  0
    1.6567  -14.0105    2.5670 C   0  0  0  0  0  0  0  0  0  0  0  0
    1.5172  -15.3678    2.4848 C   0  0  0  0  0  0  0  0  0  0  0  0
    1.5298  -16.1235    3.6654 C   0  0  0  0  0  0  0  0  0  0  0  0
    1.3905  -17.4576    3.5639 F   0  0  0  0  0  0  0  0  0  0  0  0
    1.6779  -15.5538    4.8992 C   0  0  0  0  0  0  0  0  0  0  0  0
    1.8236  -14.1564    5.0029 C   0  0  0  0  0  0  0  0  0  0  0  0
    1.9792  -13.5382    6.2652 C   0  0  0  0  0  0  0  0  0  0  0  0
    2.1183  -12.1771    6.3369 C   0  0  0  0  0  0  0  0  0  0  0  0
    2.3091  -11.2821    7.4733 C   0  0  0  0  0  0  0  0  0  0  0  0
    2.5067  -11.6706    8.7714 C   0  0  0  0  0  0  0  0  0  0  0  0
    2.4762  -13.0115    9.2085 C   0  0  0  0  0  0  0  0  0  0  0  0
    2.4555  -14.0822    9.6220 N   0  0  0  0  0  0  0  0  0  0  0  0
    2.7996  -10.7967    9.8401 C   0  0  0  0  0  0  0  0  0  0  0  0
    3.0678  -10.1556   10.7540 N   0  0  0  0  0  0  0  0  0  0  0  0
    2.7055   -7.4977    7.1271 C   0  0  0  0  0  0  0  0  0  0  0  0
    2.1042   -6.3251    7.5577 C   0  0  0  0  0  0  0  0  0  0  0  0
    1.1578   -6.3825    8.5074 F   0  0  0  0  0  0  0  0  0  0  0  0
    2.4157   -5.0818    7.0054 C   0  0  0  0  0  0  0  0  0  0  0  0
    1.7788   -3.9979    7.4884 F   0  0  0  0  0  0  0  0  0  0  0  0
    3.3557   -4.9344    5.9953 C   0  0  0  0  0  0  0  0  0  0  0  0
    3.9809   -6.1255    5.5215 C   0  0  0  0  0  0  0  0  0  0  0  0
    4.7680   -6.0821    4.4349 N   0  0  0  0  0  0  0  0  0  0  0  0
    5.3773   -7.1616    4.0285 C   0  0  0  0  0  0  0  0  0  0  0  0
    6.1068   -7.0794    2.7253 C   0  0  0  0  0  0  0  0  0  0  0  0
    5.2226   -7.6174    1.5972 C   0  0  0  0  0  0  0  0  0  0  0  0
    5.3147   -8.3542    4.8134 C   0  0  0  0  0  0  0  0  0  0  0  0
    4.4694   -8.4349    5.8036 N   0  0  0  0  0  0  0  0  0  0  0  0
    3.7157   -7.3742    6.1289 C   0  0  0  0  0  0  0  0  0  0  0  0
    6.2116   -9.5269    4.5572 C   0  0  0  0  0  0  0  0  0  0  0  0
    5.9530  -10.6832    5.5135 C   0  0  0  0  0  0  0  0  0  0  0  0
    3.6520   -3.6656    5.3851 C   0  0  0  0  0  0  0  0  0  0  0  0
    4.8761   -3.2219    4.9092 C   0  0  0  0  0  0  0  0  0  0  0  0
    6.1474   -3.8979    5.1582 C   0  0  0  0  0  0  0  0  0  0  0  0
    7.1330   -3.9348    4.1762 C   0  0  0  0  0  0  0  0  0  0  0  0
    8.3196   -4.6026    4.4140 C   0  0  0  0  0  0  0  0  0  0  0  0
    8.5372   -5.2338    5.6253 C   0  0  0  0  0  0  0  0  0  0  0  0
    7.5772   -5.1825    6.6296 C   0  0  0  0  0  0  0  0  0  0  0  0
    7.7951   -5.8925    7.9353 C   0  0  0  0  0  0  0  0  0  0  0  0
    7.3791   -7.3607    7.8226 C   0  0  0  0  0  0  0  0  0  0  0  0
    6.3946   -4.5038    6.3881 C   0  0  0  0  0  0  0  0  0  0  0  0
    4.7360   -2.0020    4.2193 C   0  0  0  0  0  0  0  0  0  0  0  0
    5.8597   -0.9710    3.3614 S   0  0  0  0  0  0  0  0  0  0  0  0
    4.5491    0.0769    2.9343 C   0  0  0  0  0  0  0  0  0  0  0  0
    4.3064    1.2302    2.1660 C   0  0  0  0  0  0  0  0  0  0  0  0
    5.1607    2.1131    1.4686 C   0  0  0  0  0  0  0  0  0  0  0  0
    4.5883    3.2243    0.7569 C   0  0  0  0  0  0  0  0  0  0  0  0
    5.5086    3.9854    0.1869 N   0  0  0  0  0  0  0  0  0  0  0  0
    6.9667    3.3615    0.5111 S   0  0  0  0  0  0  0  0  0  0  0  0
    6.4818    2.0917    1.3901 N   0  0  0  0  0  0  0  0  0  0  0  0
    3.1818    3.3304    0.6656 C   0  0  0  0  0  0  0  0  0  0  0  0
    2.3539    4.1152   -0.1540 C   0  0  0  0  0  0  0  0  0  0  0  0
    2.4972    5.3461   -1.3648 S   0  0  0  0  0  0  0  0  0  0  0  0
    0.7839    5.2030   -1.6764 C   0  0  0  0  0  0  0  0  0  0  0  0
   -0.0539    5.8010   -2.6361 C   0  0  0  0  0  0  0  0  0  0  0  0
    0.4568    6.7596   -3.6235 C   0  0  0  0  0  0  0  0  0  0  0  0
    0.4149    6.4726   -4.9838 C   0  0  0  0  0  0  0  0  0  0  0  0
    0.9477    7.3704   -5.8899 C   0  0  0  0  0  0  0  0  0  0  0  0
    1.5282    8.5458   -5.4480 C   0  0  0  0  0  0  0  0  0  0  0  0
    1.5927    8.8382   -4.0913 C   0  0  0  0  0  0  0  0  0  0  0  0
    2.2843   10.0777   -3.6027 C   0  0  0  0  0  0  0  0  0  0  0  0
    3.7613    9.7848   -3.3305 C   0  0  0  0  0  0  0  0  0  0  0  0
    1.0577    7.9336   -3.1867 C   0  0  0  0  0  0  0  0  0  0  0  0
   -1.3554    5.3466   -2.5236 C   0  0  0  0  0  0  0  0  0  0  0  0
   -1.5342    4.1570   -1.2327 S   0  0  0  0  0  0  0  0  0  0  0  0
    0.1477    4.2697   -0.8552 C   0  0  0  0  0  0  0  0  0  0  0  0
    1.0463    3.6470    0.0179 C   0  0  0  0  0  0  0  0  0  0  0  0
    1.0295    2.6286    0.9334 N   0  0  0  0  0  0  0  0  0  0  0  0
    2.3306    2.4191    1.3488 C   0  0  0  0  0  0  0  0  0  0  0  0
    2.9034    1.4532    2.2100 C   0  0  0  0  0  0  0  0  0  0  0  0
    2.3211    0.5124    3.0429 N   0  0  0  0  0  0  0  0  0  0  0  0
    3.3191   -0.3348    3.4545 C   0  0  0  0  0  0  0  0  0  0  0  0
    3.4247   -1.5181    4.1918 C   0  0  0  0  0  0  0  0  0  0  0  0
    2.3413   -2.5571    5.0362 S   0  0  0  0  0  0  0  0  0  0  0  0
    1.1421    0.6804    3.8671 C   0  0  0  0  0  0  0  0  0  0  0  0
    1.5145    1.0717    5.2970 C   0  0  0  0  0  0  0  0  0  0  0  0
   -0.1235    1.7616    1.0371 C   0  0  0  0  0  0  0  0  0  0  0  0
   -1.2609    2.4043    1.8300 C   0  0  0  0  0  0  0  0  0  0  0  0
   -2.5325    5.6974   -3.2346 C   0  0  0  0  0  0  0  0  0  0  0  0
   -2.5458    6.7350   -4.6365 S   0  0  0  0  0  0  0  0  0  0  0  0
   -4.2627    6.5412   -4.7902 C   0  0  0  0  0  0  0  0  0  0  0  0
   -5.1117    6.9648   -5.8307 C   0  0  0  0  0  0  0  0  0  0  0  0
   -6.3873    6.3822   -5.9215 C   0  0  0  0  0  0  0  0  0  0  0  0
   -6.8383    5.4737   -5.0364 O   0  0  0  0  0  0  0  0  0  0  0  0
   -6.2765    5.5310   -3.7096 C   0  0  0  0  0  0  0  0  0  0  0  0
   -6.5560    4.2031   -3.0318 C   0  0  0  0  0  0  0  0  0  0  0  0
   -6.6303    3.0357   -3.7762 C   0  0  0  0  0  0  0  0  0  0  0  0
   -6.8073    1.8177   -3.1458 C   0  0  0  0  0  0  0  0  0  0  0  0
   -6.9044    1.7373   -1.7633 C   0  0  0  0  0  0  0  0  0  0  0  0
   -7.0262    0.4098   -1.0720 C   0  0  0  0  0  0  0  0  0  0  0  0
   -5.6427   -0.1094   -0.6741 C   0  0  0  0  0  0  0  0  0  0  0  0
   -6.8316    2.9122   -1.0253 C   0  0  0  0  0  0  0  0  0  0  0  0
   -6.6614    4.1334   -1.6486 C   0  0  0  0  0  0  0  0  0  0  0  0
   -6.9569    6.6777   -2.9683 C   0  0  0  0  0  0  0  0  0  0  0  0
   -8.3396    6.7789   -3.0586 C   0  0  0  0  0  0  0  0  0  0  0  0
   -9.0075    7.8090   -2.4267 C   0  0  0  0  0  0  0  0  0  0  0  0
   -8.3136    8.7601   -1.6882 C   0  0  0  0  0  0  0  0  0  0  0  0
   -9.0454    9.8544   -0.9665 C   0  0  0  0  0  0  0  0  0  0  0  0
   -9.4545    9.3902    0.4329 C   0  0  0  0  0  0  0  0  0  0  0  0
   -6.9334    8.6471   -1.5952 C   0  0  0  0  0  0  0  0  0  0  0  0
   -6.2574    7.6204   -2.2300 C   0  0  0  0  0  0  0  0  0  0  0  0
   -4.7849    5.7407   -3.7844 C   0  0  0  0  0  0  0  0  0  0  0  0
   -3.8086    5.2636   -2.9170 C   0  0  0  0  0  0  0  0  0  0  0  0
   -7.0842    6.7671   -7.0589 C   0  0  0  0  0  0  0  0  0  0  0  0
   -6.3772    7.6590   -7.8557 C   0  0  0  0  0  0  0  0  0  0  0  0
   -4.8038    8.0190   -7.1473 S   0  0  0  0  0  0  0  0  0  0  0  0
   -6.6594    8.2939   -9.0742 C   0  0  0  0  0  0  0  0  0  0  0  0
   -7.7444    8.2332   -9.9160 C   0  0  0  0  0  0  0  0  0  0  0  0
   -9.0049    7.4647   -9.7501 C   0  0  0  0  0  0  0  0  0  0  0  0
   -9.3437    6.7445   -8.8334 O   0  0  0  0  0  0  0  0  0  0  0  0
   -9.7964    7.7603  -10.9529 C   0  0  0  0  0  0  0  0  0  0  0  0
  -11.0063    7.4094  -11.4547 C   0  0  0  0  0  0  0  0  0  0  0  0
  -11.2775    8.1723  -12.9791 S   0  0  0  0  0  0  0  0  0  0  0  0
   -9.7474    8.9693  -12.9361 C   0  0  0  0  0  0  0  0  0  0  0  0
   -9.0696    8.6559  -11.7984 C   0  0  0  0  0  0  0  0  0  0  0  0
   -7.7986    8.9648  -11.1721 C   0  0  0  0  0  0  0  0  0  0  0  0
   -6.8651    9.8031  -11.7303 C   0  0  0  0  0  0  0  0  0  0  0  0
   -7.1004   10.4242  -12.9742 C   0  0  0  0  0  0  0  0  0  0  0  0
   -7.2700   10.9406  -13.9854 N   0  0  0  0  0  0  0  0  0  0  0  0
   -5.6108   10.1600  -11.2007 C   0  0  0  0  0  0  0  0  0  0  0  0
   -4.5722   10.5058  -10.8499 N   0  0  0  0  0  0  0  0  0  0  0  0
    2.1803   -8.7950    8.7565 H   0  0  0  0  0  0  0  0  0  0  0  0
    1.9212  -11.3531    3.0266 H   0  0  0  0  0  0  0  0  0  0  0  0
    1.6479  -13.4069    1.6718 H   0  0  0  0  0  0  0  0  0  0  0  0
    1.3964  -15.8730    1.5396 H   0  0  0  0  0  0  0  0  0  0  0  0
    1.6837  -16.1668    5.7869 H   0  0  0  0  0  0  0  0  0  0  0  0
    1.9771  -14.1599    7.1459 H   0  0  0  0  0  0  0  0  0  0  0  0
    7.0378   -7.6454    2.7739 H   0  0  0  0  0  0  0  0  0  0  0  0
    6.3381   -6.0317    2.5347 H   0  0  0  0  0  0  0  0  0  0  0  0
    4.3120   -7.0279    1.5279 H   0  0  0  0  0  0  0  0  0  0  0  0
    5.7498   -7.5599    0.6482 H   0  0  0  0  0  0  0  0  0  0  0  0
    4.9443   -8.6531    1.7791 H   0  0  0  0  0  0  0  0  0  0  0  0
    7.2482   -9.1888    4.6516 H   0  0  0  0  0  0  0  0  0  0  0  0
    6.0733   -9.8616    3.5260 H   0  0  0  0  0  0  0  0  0  0  0  0
    4.9417  -11.0594    5.3823 H   0  0  0  0  0  0  0  0  0  0  0  0
    6.0625  -10.3534    6.5429 H   0  0  0  0  0  0  0  0  0  0  0  0
    6.6544  -11.4919    5.3235 H   0  0  0  0  0  0  0  0  0  0  0  0
    6.9596   -3.4588    3.2235 H   0  0  0  0  0  0  0  0  0  0  0  0
    9.0790   -4.6344    3.6464 H   0  0  0  0  0  0  0  0  0  0  0  0
    9.4643   -5.7605    5.8014 H   0  0  0  0  0  0  0  0  0  0  0  0
    8.8493   -5.8395    8.2149 H   0  0  0  0  0  0  0  0  0  0  0  0
    7.2082   -5.4128    8.7205 H   0  0  0  0  0  0  0  0  0  0  0  0
    7.5306   -7.8724    8.7700 H   0  0  0  0  0  0  0  0  0  0  0  0
    7.9678   -7.8639    7.0584 H   0  0  0  0  0  0  0  0  0  0  0  0
    6.3280   -7.4407    7.5523 H   0  0  0  0  0  0  0  0  0  0  0  0
    5.6523   -4.4395    7.1714 H   0  0  0  0  0  0  0  0  0  0  0  0
   -0.0146    5.5418   -5.3239 H   0  0  0  0  0  0  0  0  0  0  0  0
    0.9137    7.1489   -6.9461 H   0  0  0  0  0  0  0  0  0  0  0  0
    1.9413    9.2425   -6.1628 H   0  0  0  0  0  0  0  0  0  0  0  0
    1.8116   10.4283   -2.6831 H   0  0  0  0  0  0  0  0  0  0  0  0
    2.2040   10.8674   -4.3521 H   0  0  0  0  0  0  0  0  0  0  0  0
    3.8604    9.0022   -2.5817 H   0  0  0  0  0  0  0  0  0  0  0  0
    4.2658   10.6784   -2.9705 H   0  0  0  0  0  0  0  0  0  0  0  0
    4.2540    9.4502   -4.2405 H   0  0  0  0  0  0  0  0  0  0  0  0
    1.0996    8.1447   -2.1275 H   0  0  0  0  0  0  0  0  0  0  0  0
    0.5812   -0.2598    3.8752 H   0  0  0  0  0  0  0  0  0  0  0  0
    0.5287    1.4697    3.4456 H   0  0  0  0  0  0  0  0  0  0  0  0
    2.1115    1.9815    5.2947 H   0  0  0  0  0  0  0  0  0  0  0  0
    0.6093    1.2482    5.8715 H   0  0  0  0  0  0  0  0  0  0  0  0
    2.0809    0.2840    5.7850 H   0  0  0  0  0  0  0  0  0  0  0  0
   -0.4821    1.5621    0.0207 H   0  0  0  0  0  0  0  0  0  0  0  0
    0.1851    0.8110    1.4718 H   0  0  0  0  0  0  0  0  0  0  0  0
   -1.6503    3.2652    1.2936 H   0  0  0  0  0  0  0  0  0  0  0  0
   -2.0659    1.6866    1.9599 H   0  0  0  0  0  0  0  0  0  0  0  0
   -0.9305    2.7414    2.8099 H   0  0  0  0  0  0  0  0  0  0  0  0
   -6.5547    3.0859   -4.8515 H   0  0  0  0  0  0  0  0  0  0  0  0
   -6.8658    0.9156   -3.7379 H   0  0  0  0  0  0  0  0  0  0  0  0
   -7.6420    0.5136   -0.1764 H   0  0  0  0  0  0  0  0  0  0  0  0
   -7.5053   -0.3127   -1.7350 H   0  0  0  0  0  0  0  0  0  0  0  0
   -5.1520    0.5958   -0.0065 H   0  0  0  0  0  0  0  0  0  0  0  0
   -5.0185   -0.2350   -1.5561 H   0  0  0  0  0  0  0  0  0  0  0  0
   -5.7265   -1.0681   -0.1677 H   0  0  0  0  0  0  0  0  0  0  0  0
   -6.9109    2.8709    0.0518 H   0  0  0  0  0  0  0  0  0  0  0  0
   -6.6092    5.0373   -1.0593 H   0  0  0  0  0  0  0  0  0  0  0  0
   -8.8832    6.0461   -3.6361 H   0  0  0  0  0  0  0  0  0  0  0  0
  -10.0825    7.8783   -2.5101 H   0  0  0  0  0  0  0  0  0  0  0  0
   -8.4051   10.7346   -0.8809 H   0  0  0  0  0  0  0  0  0  0  0  0
   -9.9388   10.1344   -1.5278 H   0  0  0  0  0  0  0  0  0  0  0  0
  -10.1019    8.5186    0.3680 H   0  0  0  0  0  0  0  0  0  0  0  0
   -8.5753    9.1206    1.0140 H   0  0  0  0  0  0  0  0  0  0  0  0
   -9.9873   10.1811    0.9554 H   0  0  0  0  0  0  0  0  0  0  0  0
   -6.3754    9.3760   -1.0247 H   0  0  0  0  0  0  0  0  0  0  0  0
   -5.1824    7.5578   -2.1427 H   0  0  0  0  0  0  0  0  0  0  0  0
   -4.0136    4.6210   -2.0792 H   0  0  0  0  0  0  0  0  0  0  0  0
   -8.0665    6.4120   -7.3087 H   0  0  0  0  0  0  0  0  0  0  0  0
   -5.8534    8.9390   -9.4048 H   0  0  0  0  0  0  0  0  0  0  0  0
  -11.7499    6.7607  -11.0374 H   0  0  0  0  0  0  0  0  0  0  0  0
   -9.4657    9.6056  -13.7505 H   0  0  0  0  0  0  0  0  0  0  0  0
  1  2  2  0  0  0  0
  2  3  1  0  0  0  0
  3  4  2  0  0  0  0
  3  5  1  0  0  0  0
  5  6  2  0  0  0  0
  6  7  1  0  0  0  0
  7  8  2  0  0  0  0
  8  9  1  0  0  0  0
  9 10  2  0  0  0  0
 10 11  1  0  0  0  0
 10 12  1  0  0  0  0
 12 13  2  0  0  0  0
 13 14  1  0  0  0  0
 14 15  2  0  0  0  0
 15 16  1  0  0  0  0
 16 17  2  0  0  0  0
 17 18  1  0  0  0  0
 18 19  3  0  0  0  0
 17 20  1  0  0  0  0
 20 21  3  0  0  0  0
  1 22  1  0  0  0  0
 22 23  2  0  0  0  0
 23 24  1  0  0  0  0
 23 25  1  0  0  0  0
 25 26  1  0  0  0  0
 25 27  2  0  0  0  0
 27 28  1  0  0  0  0
 28 29  2  0  0  0  0
 29 30  1  0  0  0  0
 30 31  1  0  0  0  0
 31 32  1  0  0  0  0
 30 33  2  0  0  0  0
 33 34  1  0  0  0  0
 34 35  2  0  0  0  0
 33 36  1  0  0  0  0
 36 37  1  0  0  0  0
 27 38  1  0  0  0  0
 38 39  2  0  0  0  0
 39 40  1  0  0  0  0
 40 41  2  0  0  0  0
 41 42  1  0  0  0  0
 42 43  2  0  0  0  0
 43 44  1  0  0  0  0
 44 45  1  0  0  0  0
 45 46  1  0  0  0  0
 44 47  2  0  0  0  0
 39 48  1  0  0  0  0
 48 49  1  0  0  0  0
 49 50  1  0  0  0  0
 50 51  1  0  0  0  0
 51 52  1  0  0  0  0
 52 53  1  0  0  0  0
 53 54  2  0  0  0  0
 54 55  1  0  0  0  0
 55 56  1  0  0  0  0
 53 57  1  0  0  0  0
 57 58  1  0  0  0  0
 58 59  1  0  0  0  0
 59 60  1  0  0  0  0
 60 61  1  0  0  0  0
 61 62  1  0  0  0  0
 62 63  2  0  0  0  0
 63 64  1  0  0  0  0
 64 65  2  0  0  0  0
 65 66  1  0  0  0  0
 66 67  1  0  0  0  0
 67 68  1  0  0  0  0
 66 69  2  0  0  0  0
 61 70  2  0  0  0  0
 70 71  1  0  0  0  0
 71 72  1  0  0  0  0
 72 73  1  0  0  0  0
 73 74  1  0  0  0  0
 74 75  1  0  0  0  0
 75 76  1  0  0  0  0
 76 77  1  0  0  0  0
 77 78  1  0  0  0  0
 78 79  1  0  0  0  0
 79 80  1  0  0  0  0
 77 81  1  0  0  0  0
 81 82  1  0  0  0  0
 74 83  1  0  0  0  0
 83 84  1  0  0  0  0
 70 85  1  0  0  0  0
 85 86  1  0  0  0  0
 86 87  1  0  0  0  0
 87 88  1  0  0  0  0
 88 89  2  0  0  0  0
 89 90  1  0  0  0  0
 90 91  1  0  0  0  0
 91 92  1  0  0  0  0
 92 93  2  0  0  0  0
 93 94  1  0  0  0  0
 94 95  2  0  0  0  0
 95 96  1  0  0  0  0
 96 97  1  0  0  0  0
 95 98  1  0  0  0  0
 98 99  2  0  0  0  0
 91100  1  0  0  0  0
100101  2  0  0  0  0
101102  1  0  0  0  0
102103  2  0  0  0  0
103104  1  0  0  0  0
104105  1  0  0  0  0
103106  1  0  0  0  0
106107  2  0  0  0  0
 91108  1  0  0  0  0
108109  1  0  0  0  0
 89110  1  0  0  0  0
110111  2  0  0  0  0
111112  1  0  0  0  0
111113  1  0  0  0  0
113114  2  0  0  0  0
114115  1  0  0  0  0
115116  2  0  0  0  0
115117  1  0  0  0  0
117118  2  0  0  0  0
118119  1  0  0  0  0
119120  1  0  0  0  0
120121  2  0  0  0  0
121122  1  0  0  0  0
122123  2  0  0  0  0
123124  1  0  0  0  0
124125  3  0  0  0  0
123126  1  0  0  0  0
126127  3  0  0  0  0
 16  2  1  0  0  0  0
 35 22  1  0  0  0  0
 80 38  1  0  0  0  0
109 85  2  0  0  0  0
122114  1  0  0  0  0
 15  5  1  0  0  0  0
 35 28  1  0  0  0  0
 47 40  1  0  0  0  0
 79 48  2  0  0  0  0
108 87  2  0  0  0  0
121117  1  0  0  0  0
 13  7  1  0  0  0  0
 78 50  2  0  0  0  0
112 88  1  0  0  0  0
 76 51  2  0  0  0  0
 99 92  1  0  0  0  0
107100  1  0  0  0  0
 56 52  2  0  0  0  0
 75 57  2  0  0  0  0
 73 58  2  0  0  0  0
 72 60  2  0  0  0  0
 69 62  1  0  0  0  0
  1128  1  0  0  0  0
  6129  1  0  0  0  0
  8130  1  0  0  0  0
  9131  1  0  0  0  0
 12132  1  0  0  0  0
 14133  1  0  0  0  0
 31134  1  0  0  0  0
 31135  1  0  0  0  0
 32136  1  0  0  0  0
 32137  1  0  0  0  0
 32138  1  0  0  0  0
 36139  1  0  0  0  0
 36140  1  0  0  0  0
 37141  1  0  0  0  0
 37142  1  0  0  0  0
 37143  1  0  0  0  0
 41144  1  0  0  0  0
 42145  1  0  0  0  0
 43146  1  0  0  0  0
 45147  1  0  0  0  0
 45148  1  0  0  0  0
 46149  1  0  0  0  0
 46150  1  0  0  0  0
 46151  1  0  0  0  0
 47152  1  0  0  0  0
 63153  1  0  0  0  0
 64154  1  0  0  0  0
 65155  1  0  0  0  0
 67156  1  0  0  0  0
 67157  1  0  0  0  0
 68158  1  0  0  0  0
 68159  1  0  0  0  0
 68160  1  0  0  0  0
 69161  1  0  0  0  0
 81162  1  0  0  0  0
 81163  1  0  0  0  0
 82164  1  0  0  0  0
 82165  1  0  0  0  0
 82166  1  0  0  0  0
 83167  1  0  0  0  0
 83168  1  0  0  0  0
 84169  1  0  0  0  0
 84170  1  0  0  0  0
 84171  1  0  0  0  0
 93172  1  0  0  0  0
 94173  1  0  0  0  0
 96174  1  0  0  0  0
 96175  1  0  0  0  0
 97176  1  0  0  0  0
 97177  1  0  0  0  0
 97178  1  0  0  0  0
 98179  1  0  0  0  0
 99180  1  0  0  0  0
101181  1  0  0  0  0
102182  1  0  0  0  0
104183  1  0  0  0  0
104184  1  0  0  0  0
105185  1  0  0  0  0
105186  1  0  0  0  0
105187  1  0  0  0  0
106188  1  0  0  0  0
107189  1  0  0  0  0
109190  1  0  0  0  0
110191  1  0  0  0  0
113192  1  0  0  0  0
118193  1  0  0  0  0
120194  1  0  0  0  0
M  END
