165

C          1.02170       -7.86330        8.52350
C          1.87810       -7.21980        9.35810
C          2.76120       -8.00750       10.26260
O          2.66880       -9.18370       10.52610
C          3.79750       -7.05620       10.71150
C          4.91980       -7.29590       11.45000
C          5.79900       -6.22700       11.73560
C          6.96990       -6.41850       12.49730
C          7.81700       -5.37820       12.76130
C          7.50540       -4.10680       12.26070
F          8.35210       -3.09530       12.52760
C          6.38330       -3.86600       11.51800
C          5.49750       -4.92530       11.23960
C          4.32180       -4.70500       10.48500
C          3.47940       -5.75330       10.23040
C          2.21090       -5.82040        9.51030
C          1.39390       -4.74820        9.25800
C          1.74540       -3.41250        9.53300
N          1.99000       -2.30440        9.71150
C          0.09760       -4.83260        8.71730
N         -0.96550       -4.81560        8.28160
C          0.39800       -7.34400        7.34930
C         -0.79670       -7.87970        6.87390
F         -1.34420       -8.91790        7.52250
C         -1.49010       -7.35390        5.78740
F         -2.61670       -7.98160        5.41560
C         -1.02270       -6.24440        5.08380
C          0.30660       -5.82860        5.41070
N          0.90650       -4.94300        4.61640
C          2.12160       -4.51740        4.87200
C          2.67910       -3.53840        3.88450
C          1.95920       -2.19350        4.00710
C          2.80950       -5.01500        6.00900
N          2.23910       -5.90140        6.79430
C          0.99610       -6.33330        6.53840
C          4.20890       -4.62510        6.38110
C          4.30980       -3.18620        6.89100
C         -1.73640       -5.53720        4.07560
C         -3.11170       -5.45020        3.86080
C         -4.14860       -5.88280        4.79420
C         -5.29900       -6.51180        4.32530
C         -6.28250       -6.89270        5.21650
C         -6.13250       -6.64560        6.57030
C         -5.00070       -5.99980        7.05260
C         -4.81380       -5.75170        8.52170
C         -3.73380       -6.67160        9.09420
C         -4.01670       -5.61590        6.15470
C         -3.39560       -4.73170        2.68950
S         -4.90180       -4.25920        1.93230
C         -3.99920       -3.37380        0.75230
C         -4.22580       -2.48880       -0.31290
C         -5.40640       -1.88380       -0.80140
C         -5.29910       -0.79310       -1.73230
N         -6.47640       -0.26650       -2.02940
S         -7.62140       -1.07540       -1.22020
N         -6.65960       -2.12640       -0.45260
C         -4.02690       -0.44620       -2.23940
C         -3.60560        0.52150       -3.16950
S         -4.25370        1.84850       -4.07180
C         -2.65990        2.16520       -4.71570
C         -2.15710        3.14660       -5.59930
C         -3.00920        4.13270       -6.26360
C         -4.02160        4.76400       -5.54750
C         -4.85390        5.66630       -6.18150
C         -4.69190        5.93550       -7.52760
C         -3.68750        5.31270       -8.26080
C         -3.51540        5.63190       -9.71790
C         -2.85450        6.99830       -9.90450
C         -2.84910        4.41650       -7.61810
C         -0.80080        2.98260       -5.80080
S         -0.14830        1.59340       -4.94130
C         -1.69900        1.25930       -4.26440
C         -2.23630        0.32680       -3.37090
N         -1.78390       -0.71050       -2.59470
C         -2.86570       -1.17250       -1.86190
C         -2.94510       -2.09330       -0.79100
N         -1.97380       -2.69030       -0.01210
C         -2.61100       -3.46000        0.92640
C         -2.26280       -4.23320        2.03680
S         -0.81070       -4.62290        2.89880
C         -0.58790       -2.31700        0.16970
C          0.37090       -3.45280       -0.18490
C         -0.63190       -1.47260       -3.02700
C         -0.85480       -2.07330       -4.41500
C          0.14190        3.80180       -6.52490
C          1.24120        3.22180       -7.17060
C          2.18580        3.98520       -7.81310
C          2.07190        5.37730       -7.87820
C          0.99710        5.96610       -7.20120
F          0.91900        7.30260       -7.10300
C          0.06230        5.20060       -6.53040
F         -0.88570        5.82860       -5.81720
C          3.07430        6.17150       -8.55500
C          2.80300        7.24150       -9.33710
C          1.43870        7.56880       -9.84750
O          0.44060        6.89310       -9.73970
C          1.59190        8.81110      -10.61890
C          0.62460        9.55480      -11.23190
C          0.99470       10.72970      -11.92190
C          0.03660       11.54260      -12.56190
C          0.40830       12.67630      -13.22900
C          1.76550       13.02560      -13.26990
F          2.11120       14.14380      -13.93180
C          2.73460       12.27440      -12.66560
C          2.36990       11.10320      -11.97260
C          3.34960       10.30920      -11.33370
C          2.96720        9.17800      -10.66070
C          3.74150        8.19710       -9.90780
C          5.09990        8.20680       -9.74390
C          5.96080        9.17050      -10.31250
N          6.71500        9.91750      -10.74860
C          5.83660        7.25830       -9.00290
N          6.50030        6.52260       -8.42270
H          0.83850       -8.90940        8.74760
H          5.13630       -8.28980       11.81210
H          7.18870       -7.40710       12.87180
H          8.71600       -5.50780       13.34270
H          6.17240       -2.87260       11.15370
H          4.12290       -3.70980       10.12100
H          3.75120       -3.41100        4.02300
H          2.49730       -3.93680        2.88410
H          0.89540       -2.33370        3.83620
H          2.34690       -1.49220        3.27250
H          2.09440       -1.76890        4.99930
H          4.53520       -5.31010        7.16590
H          4.86570       -4.75450        5.51760
H          3.59980       -3.01230        7.69490
H          4.10870       -2.46870        6.10100
H          5.31230       -3.00400        7.27040
H         -5.40390       -6.72350        3.27210
H         -7.16970       -7.39070        4.85440
H         -6.90410       -6.95500        7.26070
H         -4.51550       -4.71370        8.68510
H         -5.75590       -5.92460        9.04560
H         -3.95390       -7.71110        8.86020
H         -3.67830       -6.56210       10.17500
H         -2.76250       -6.41800        8.67660
H         -3.14040       -5.09730        6.51760
H         -4.14120        4.56370       -4.49400
H         -5.63520        6.15850       -5.62160
H         -5.35400        6.63290       -8.02050
H         -2.90010        4.86820      -10.19680
H         -4.49480        5.63660      -10.20380
H         -2.79810        7.24410      -10.96300
H         -1.84660        6.98740       -9.49920
H         -3.42610        7.77190       -9.39610
H         -2.07180        3.91590       -8.17950
H         -0.38440       -1.41860       -0.41380
H         -0.44680       -2.06730        1.22750
H          0.25450       -4.27050        0.52050
H          0.18600       -3.84180       -1.18370
H          1.39510       -3.09420       -0.13340
H         -0.45730       -2.28180       -2.32630
H          0.23770       -0.80780       -3.04500
H         -0.99080       -1.29440       -5.16020
H         -1.73760       -2.70930       -4.41140
H          0.00720       -2.67230       -4.69560
H          1.33920        2.14670       -7.15450
H          3.01910        3.50960       -8.30690
H          4.09750        5.85530       -8.40040
H         -0.41090        9.25330      -11.18070
H         -1.00240       11.25290      -12.51570
H         -0.31130       13.30900      -13.72400
H          3.76960       12.57450      -12.71650
H          4.38040       10.61970      -11.39190
