181

C        -10.75790        4.35600        0.09160
C        -11.74280        4.81260        0.90370
C        -13.04300        5.23620        0.31260
O        -13.26890        5.45910       -0.85480
C        -13.98600        5.27680        1.44600
C        -15.33410        5.49060        1.43410
C        -16.04860        5.45590        2.65240
C        -17.44100        5.67390        2.69640
C        -18.12350        5.63330        3.88030
C        -17.41650        5.36990        5.06150
F        -18.10510        5.33340        6.21690
C        -16.06710        5.15140        5.07520
C        -15.34740        5.19140        3.86500
C        -13.94900        4.97980        3.84790
C        -13.27600        5.03020        2.65700
C        -11.85700        4.88880        2.34570
C        -10.83340        5.04070        3.24430
C        -11.01980        5.16430        4.63520
N        -11.11510        5.24750        5.77640
C         -9.47550        5.11480        2.88430
N         -8.35520        5.21050        2.64890
C         -9.60670        3.57000        0.43300
C         -8.44080        3.66120       -0.32760
O         -8.32990        4.57090       -1.34210
C         -8.36610        5.95110       -0.98840
C         -7.12460        6.36500       -0.21190
C         -7.34330        2.80380       -0.09390
O         -6.18910        2.92460       -0.81480
C         -6.25800        2.70600       -2.21990
C         -6.61360        1.26160       -2.55270
C         -7.37100        1.85820        0.93150
C         -8.49960        1.84440        1.80240
C         -9.64430        2.62740        1.49970
N        -10.77830        2.43720        2.19560
C        -10.74670        1.64560        3.23500
C         -9.54390        1.06010        3.66570
N         -8.46500        1.12720        2.93360
C         -6.27390        0.95470        1.13240
C         -6.30100       -0.33020        1.65580
C         -7.51290       -1.09430        1.95060
C         -7.59540       -1.87460        3.09940
C         -8.75060       -2.58340        3.36870
C         -9.82570       -2.52690        2.49950
C         -9.75150       -1.77380        1.33380
C        -10.89610       -1.74610        0.36120
C        -10.74480       -2.85810       -0.67830
C         -8.58570       -1.07720        1.06250
C         -5.00290       -0.86060        1.76260
S         -4.39690       -2.40270        2.32380
C         -2.79060       -1.88300        1.94090
C         -1.46840       -2.33870        2.05600
C         -0.93150       -3.49640        2.66010
C          0.49370       -3.62970        2.75910
N          0.85610       -4.72840        3.40260
S         -0.48050       -5.52950        3.84120
N         -1.57340       -4.50500        3.22890
C          1.31460       -2.66050        2.14220
C          2.70710       -2.60640        1.96840
S          4.11980       -3.50550        2.40360
C          5.08720       -2.39430        1.46450
C          6.46570       -2.31020        1.20730
C          7.48000       -3.17320        1.80390
C          8.65090       -2.62790        2.32780
C          9.61830       -3.45630        2.85970
C          9.43360       -4.82890        2.86720
C          8.26590       -5.38770        2.36520
C          8.09480       -6.87660        2.30080
C          8.72590       -7.40450        1.01020
C          7.29060       -4.55010        1.84520
C          6.76120       -1.22700        0.38620
S          5.33100       -0.28650       -0.02120
C          4.33260       -1.37890        0.86540
C          2.97120       -1.49960        1.15680
N          1.80500       -0.84380        0.84890
C          0.76740       -1.54180        1.45310
C         -0.63170       -1.31700        1.51990
N         -1.43200       -0.25400        1.14460
C         -2.73310       -0.59800        1.39350
C         -3.99830       -0.00370        1.30130
S         -4.66180        1.47270        0.69990
C         -1.09630        1.12740        0.88760
C         -1.35320        1.52160       -0.56660
C          1.77880       -0.04300       -0.35700
C          1.42210       -0.89770       -1.57160
C          8.03160       -0.96580       -0.19150
C          8.95740       -1.92520       -0.60310
C         10.11970       -1.26020       -1.05280
C          9.89750        0.16450       -0.93970
O         10.59310        1.12570       -1.18030
N          8.58530        0.26750       -0.42050
C          8.01160        1.55940       -0.13130
C          7.34180        2.16450       -1.36180
C         11.03660       -2.20470       -1.51630
N         10.44940       -3.44220       -1.35560
C         11.05270       -4.74720       -1.44920
C         12.16220       -4.93360       -0.42030
C          9.14670       -3.33710       -0.81800
O          8.42100       -4.29640       -0.65490
C         12.28500       -1.81490       -2.05350
C         13.22440       -2.39940       -2.84430
S         13.25130       -3.95370       -3.64170
C         14.78450       -3.59300       -4.41260
C         15.38140       -4.52720       -5.21840
C         16.63680       -4.41380       -5.83860
N         17.66620       -4.40520       -6.34710
C         14.72990       -5.75740       -5.44590
N         14.19940       -6.75720       -5.63240
N         15.23040       -2.35810       -4.07590
C         16.39140       -1.72030       -4.66280
C         16.19360       -1.39680       -6.12430
C         14.93880       -1.06760       -6.61880
C         14.77290       -0.76490       -7.95890
C         15.86070       -0.77920       -8.81370
C         17.11670       -1.09290       -8.32240
C         17.28280       -1.40230       -6.98500
C         14.42040       -1.63210       -3.21080
O         14.70070       -0.52250       -2.82220
H        -10.91070        4.52860       -0.97070
H        -15.85080        5.68360        0.50590
H        -17.96360        5.87500        1.77340
H        -19.18810        5.79790        3.93120
H        -15.55500        4.95560        6.00430
H        -13.44470        4.77490        4.77890
H         -9.26870        6.17580       -0.40700
H         -8.42190        6.46890       -1.94900
H         -7.11060        7.44500       -0.09650
H         -6.22840        6.05120       -0.74210
H         -7.12960        5.90580        0.77440
H         -6.97910        3.39010       -2.67630
H         -5.25340        2.94700       -2.57510
H         -6.57910        1.11490       -3.62840
H         -7.61710        1.02850       -2.20110
H         -5.91120        0.57850       -2.08010
H        -11.68370        1.48170        3.74920
H         -9.47030        0.51390        4.59460
H         -6.76750       -1.89930        3.79060
H         -8.81640       -3.17970        4.26690
H        -10.73120       -3.07260        2.72350
H        -10.92770       -0.77830       -0.14520
H        -11.83830       -1.87930        0.89680
H        -11.57390       -2.83760       -1.38170
H         -9.81580       -2.73550       -1.23080
H        -10.72580       -3.82990       -0.19040
H         -8.51100       -0.49910        0.15120
H          8.79330       -1.55670        2.32970
H         10.52390       -3.02990        3.26700
H         10.20290       -5.47250        3.27030
H          8.57080       -7.34960        3.16240
H          7.03290       -7.12710        2.31270
H          9.80150       -7.24110        1.02130
H          8.30890       -6.87720        0.15570
H          8.53710       -8.46960        0.89850
H          6.39070       -4.97440        1.42730
H         -1.73380        1.74550        1.52970
H         -0.06270        1.30120        1.19020
H         -0.86450        0.84040       -1.25780
H         -0.99000        2.53010       -0.74480
H         -2.42060        1.50280       -0.76840
H          2.78250        0.37250       -0.47950
H          1.08560        0.78660       -0.26490
H          2.14440       -1.70180       -1.69280
H          0.43530       -1.33980       -1.44990
H          1.42860       -0.28770       -2.47090
H          7.30000        1.46080        0.69180
H          8.83670        2.20610        0.18210
H          6.54390        1.52020       -1.72420
H          6.92270        3.13490       -1.11210
H          8.07700        2.29300       -2.15180
H         10.24030       -5.45330       -1.25110
H         11.42190       -4.92830       -2.46080
H         12.57320       -5.93560       -0.50360
H         12.96360       -4.21460       -0.57420
H         11.76320       -4.79740        0.58290
H         12.52510       -0.77920       -1.82030
H         16.52850       -0.79250       -4.09310
H         17.27240       -2.35260       -4.52510
H         14.08250       -1.03730       -5.95870
H         13.79070       -0.51580       -8.33260
H         15.72990       -0.54570       -9.85960
H         17.96990       -1.10430       -8.98330
H         18.26060       -1.66010       -6.60760
