
  xtb     02052204093D
 energy: -370.559748588430 gnorm: 0.000423175380 xtb: 6.4.1 (unknown)
210230  0     0  0            999 V2000
  -11.7929   -4.6350   -4.2936 C   0  0  0  0  0  0  0  0  0  0  0  0
  -11.4458   -4.9290   -5.5693 C   0  0  0  0  0  0  0  0  0  0  0  0
  -10.2408   -4.3774   -6.2488 C   0  0  0  0  0  0  0  0  0  0  0  0
   -9.5762   -3.4205   -5.9169 O   0  0  0  0  0  0  0  0  0  0  0  0
  -10.0788   -5.1917   -7.4675 C   0  0  0  0  0  0  0  0  0  0  0  0
   -9.0649   -5.1705   -8.3807 C   0  0  0  0  0  0  0  0  0  0  0  0
   -9.1103   -6.0524   -9.4831 C   0  0  0  0  0  0  0  0  0  0  0  0
   -8.0881   -6.0731  -10.4541 C   0  0  0  0  0  0  0  0  0  0  0  0
   -8.1434   -6.9308  -11.5170 C   0  0  0  0  0  0  0  0  0  0  0  0
   -9.2377   -7.7995  -11.6314 C   0  0  0  0  0  0  0  0  0  0  0  0
   -9.2734   -8.6373  -12.6833 F   0  0  0  0  0  0  0  0  0  0  0  0
  -10.2552   -7.8208  -10.7188 C   0  0  0  0  0  0  0  0  0  0  0  0
  -10.2159   -6.9422   -9.6182 C   0  0  0  0  0  0  0  0  0  0  0  0
  -11.2564   -6.9364   -8.6611 C   0  0  0  0  0  0  0  0  0  0  0  0
  -11.1911   -6.0708   -7.6007 C   0  0  0  0  0  0  0  0  0  0  0  0
  -12.1022   -5.8473   -6.4838 C   0  0  0  0  0  0  0  0  0  0  0  0
  -13.3601   -6.3722   -6.3577 C   0  0  0  0  0  0  0  0  0  0  0  0
  -14.2550   -6.0523   -5.3165 C   0  0  0  0  0  0  0  0  0  0  0  0
  -15.0352   -5.8081   -4.5098 N   0  0  0  0  0  0  0  0  0  0  0  0
  -13.9463   -7.2574   -7.2869 C   0  0  0  0  0  0  0  0  0  0  0  0
  -14.4750   -7.9791   -8.0059 N   0  0  0  0  0  0  0  0  0  0  0  0
  -10.8895   -3.9196   -3.4070 C   0  0  0  0  0  0  0  0  0  0  0  0
  -11.1821   -2.7793   -2.6695 C   0  0  0  0  0  0  0  0  0  0  0  0
  -12.3230   -2.0593   -2.7172 O   0  0  0  0  0  0  0  0  0  0  0  0
  -13.5334   -2.5934   -3.2101 C   0  0  0  0  0  0  0  0  0  0  0  0
  -14.1848   -3.5508   -2.2200 C   0  0  0  0  0  0  0  0  0  0  0  0
  -10.1894   -2.1693   -1.8380 C   0  0  0  0  0  0  0  0  0  0  0  0
  -10.5112   -1.0248   -1.1676 O   0  0  0  0  0  0  0  0  0  0  0  0
  -10.6495    0.1629   -1.9386 C   0  0  0  0  0  0  0  0  0  0  0  0
   -9.3197    0.6222   -2.5258 C   0  0  0  0  0  0  0  0  0  0  0  0
   -8.9347   -2.7334   -1.6660 C   0  0  0  0  0  0  0  0  0  0  0  0
   -8.6078   -3.8768   -2.4534 C   0  0  0  0  0  0  0  0  0  0  0  0
   -9.5713   -4.4620   -3.3121 C   0  0  0  0  0  0  0  0  0  0  0  0
   -9.2517   -5.5550   -4.0259 N   0  0  0  0  0  0  0  0  0  0  0  0
   -8.0283   -6.0117   -3.9540 C   0  0  0  0  0  0  0  0  0  0  0  0
   -7.0579   -5.3923   -3.1541 C   0  0  0  0  0  0  0  0  0  0  0  0
   -7.3624   -4.3632   -2.4061 N   0  0  0  0  0  0  0  0  0  0  0  0
   -7.9198   -2.1493   -0.8274 C   0  0  0  0  0  0  0  0  0  0  0  0
   -8.0551   -1.3916    0.3232 C   0  0  0  0  0  0  0  0  0  0  0  0
   -9.2751   -1.2476    1.1159 C   0  0  0  0  0  0  0  0  0  0  0  0
  -10.0876   -2.3507    1.3658 C   0  0  0  0  0  0  0  0  0  0  0  0
  -11.2186   -2.2098    2.1442 C   0  0  0  0  0  0  0  0  0  0  0  0
  -11.5493   -0.9772    2.6812 C   0  0  0  0  0  0  0  0  0  0  0  0
  -10.7421    0.1292    2.4549 C   0  0  0  0  0  0  0  0  0  0  0  0
  -11.1093    1.4806    2.9987 C   0  0  0  0  0  0  0  0  0  0  0  0
  -11.8268    2.3092    1.9313 C   0  0  0  0  0  0  0  0  0  0  0  0
   -9.6055   -0.0192    1.6752 C   0  0  0  0  0  0  0  0  0  0  0  0
   -6.8152   -0.8522    0.7227 C   0  0  0  0  0  0  0  0  0  0  0  0
   -6.3547    0.1928    2.0478 S   0  0  0  0  0  0  0  0  0  0  0  0
   -4.7150    0.1271    1.4979 C   0  0  0  0  0  0  0  0  0  0  0  0
   -3.4729    0.7139    1.7895 C   0  0  0  0  0  0  0  0  0  0  0  0
   -3.1076    1.7455    2.6830 C   0  0  0  0  0  0  0  0  0  0  0  0
   -1.7939    2.3216    2.5831 C   0  0  0  0  0  0  0  0  0  0  0  0
   -1.6202    3.3317    3.4205 N   0  0  0  0  0  0  0  0  0  0  0  0
   -2.9857    3.5377    4.2672 S   0  0  0  0  0  0  0  0  0  0  0  0
   -3.8544    2.3480    3.5944 N   0  0  0  0  0  0  0  0  0  0  0  0
   -0.8612    1.7492    1.6906 C   0  0  0  0  0  0  0  0  0  0  0  0
    0.4873    2.0412    1.4184 C   0  0  0  0  0  0  0  0  0  0  0  0
    1.6884    3.2183    1.8273 S   0  0  0  0  0  0  0  0  0  0  0  0
    2.8390    2.3724    0.8163 C   0  0  0  0  0  0  0  0  0  0  0  0
    4.1827    2.6237    0.4673 C   0  0  0  0  0  0  0  0  0  0  0  0
    4.9108    3.8250    0.8746 C   0  0  0  0  0  0  0  0  0  0  0  0
    4.7258    4.3659    2.1439 C   0  0  0  0  0  0  0  0  0  0  0  0
    5.4150    5.5014    2.5217 C   0  0  0  0  0  0  0  0  0  0  0  0
    6.3000    6.1060    1.6484 C   0  0  0  0  0  0  0  0  0  0  0  0
    6.4830    5.5952    0.3688 C   0  0  0  0  0  0  0  0  0  0  0  0
    7.4049    6.2720   -0.6054 C   0  0  0  0  0  0  0  0  0  0  0  0
    6.6442    7.3070   -1.4362 C   0  0  0  0  0  0  0  0  0  0  0  0
    5.7676    4.4727   -0.0126 C   0  0  0  0  0  0  0  0  0  0  0  0
    4.6601    1.6442   -0.3902 C   0  0  0  0  0  0  0  0  0  0  0  0
    3.4467    0.4488   -0.8036 S   0  0  0  0  0  0  0  0  0  0  0  0
    2.2966    1.2377    0.2081 C   0  0  0  0  0  0  0  0  0  0  0  0
    0.9501    1.0568    0.5431 C   0  0  0  0  0  0  0  0  0  0  0  0
   -0.0602    0.1792    0.2382 N   0  0  0  0  0  0  0  0  0  0  0  0
   -1.1935    0.6092    0.9090 C   0  0  0  0  0  0  0  0  0  0  0  0
   -2.5447    0.1874    0.8492 C   0  0  0  0  0  0  0  0  0  0  0  0
   -3.2206   -0.6515   -0.0156 N   0  0  0  0  0  0  0  0  0  0  0  0
   -4.5340   -0.6817    0.3721 C   0  0  0  0  0  0  0  0  0  0  0  0
   -5.7417   -1.2265   -0.0874 C   0  0  0  0  0  0  0  0  0  0  0  0
   -6.2554   -2.2853   -1.3550 S   0  0  0  0  0  0  0  0  0  0  0  0
   -2.8321   -1.1423   -1.3185 C   0  0  0  0  0  0  0  0  0  0  0  0
   -2.7578   -2.6689   -1.3619 C   0  0  0  0  0  0  0  0  0  0  0  0
    0.2835   -1.1702   -0.1550 C   0  0  0  0  0  0  0  0  0  0  0  0
    1.0549   -1.8869    0.9537 C   0  0  0  0  0  0  0  0  0  0  0  0
    5.9963    1.4800   -0.9050 C   0  0  0  0  0  0  0  0  0  0  0  0
    7.1275    1.7569   -0.0838 C   0  0  0  0  0  0  0  0  0  0  0  0
    6.9395    2.1164    1.1935 N   0  0  0  0  0  0  0  0  0  0  0  0
    7.9675    2.4788    1.9260 C   0  0  0  0  0  0  0  0  0  0  0  0
    7.6167    2.9957    3.2494 C   0  0  0  0  0  0  0  0  0  0  0  0
    8.1794    4.1545    3.7599 C   0  0  0  0  0  0  0  0  0  0  0  0
    7.7391    4.6612    4.9716 C   0  0  0  0  0  0  0  0  0  0  0  0
    6.7359    4.0284    5.6902 C   0  0  0  0  0  0  0  0  0  0  0  0
    6.2492    4.4226    6.8939 O   0  0  0  0  0  0  0  0  0  0  0  0
    6.6505    5.6583    7.4485 C   0  0  0  0  0  0  0  0  0  0  0  0
    5.9937    6.8533    6.7628 C   0  0  0  0  0  0  0  0  0  0  0  0
    6.1494    2.8487    5.1660 C   0  0  0  0  0  0  0  0  0  0  0  0
    6.5955    2.3573    3.9562 C   0  0  0  0  0  0  0  0  0  0  0  0
    5.1786    2.2951    5.9374 O   0  0  0  0  0  0  0  0  0  0  0  0
    4.5374    1.1073    5.5186 C   0  0  0  0  0  0  0  0  0  0  0  0
    3.4888    1.3288    4.4313 C   0  0  0  0  0  0  0  0  0  0  0  0
    9.2994    2.3904    1.4023 C   0  0  0  0  0  0  0  0  0  0  0  0
   10.5056    2.6663    2.1762 C   0  0  0  0  0  0  0  0  0  0  0  0
   11.6287    3.1633    1.5274 C   0  0  0  0  0  0  0  0  0  0  0  0
   12.7827    3.4415    2.2382 C   0  0  0  0  0  0  0  0  0  0  0  0
   12.8420    3.2280    3.6076 C   0  0  0  0  0  0  0  0  0  0  0  0
   13.9119    3.4837    4.3945 O   0  0  0  0  0  0  0  0  0  0  0  0
   15.0930    3.9898    3.8033 C   0  0  0  0  0  0  0  0  0  0  0  0
   16.1184    4.1707    4.9114 C   0  0  0  0  0  0  0  0  0  0  0  0
   11.7075    2.6983    4.2744 C   0  0  0  0  0  0  0  0  0  0  0  0
   11.8521    2.5356    5.6165 O   0  0  0  0  0  0  0  0  0  0  0  0
   10.7524    2.1034    6.3911 C   0  0  0  0  0  0  0  0  0  0  0  0
   10.5679    0.5883    6.3684 C   0  0  0  0  0  0  0  0  0  0  0  0
   10.5692    2.4102    3.5509 C   0  0  0  0  0  0  0  0  0  0  0  0
    9.4913    1.9969    0.1603 N   0  0  0  0  0  0  0  0  0  0  0  0
    8.4376    1.6978   -0.6126 C   0  0  0  0  0  0  0  0  0  0  0  0
    8.6670    1.2673   -1.9520 C   0  0  0  0  0  0  0  0  0  0  0  0
    7.5503    0.9817   -2.7224 C   0  0  0  0  0  0  0  0  0  0  0  0
    6.2544    1.0839   -2.2095 C   0  0  0  0  0  0  0  0  0  0  0  0
    5.2292    0.8554   -3.0520 F   0  0  0  0  0  0  0  0  0  0  0  0
    7.6797    0.7240   -4.0309 F   0  0  0  0  0  0  0  0  0  0  0  0
   10.0257    1.2272   -2.4172 C   0  0  0  0  0  0  0  0  0  0  0  0
   10.5776    0.3120   -3.2458 C   0  0  0  0  0  0  0  0  0  0  0  0
    9.9448   -0.9698   -3.6915 C   0  0  0  0  0  0  0  0  0  0  0  0
    8.9120   -1.4555   -3.2986 O   0  0  0  0  0  0  0  0  0  0  0  0
   10.9282   -1.5697   -4.6120 C   0  0  0  0  0  0  0  0  0  0  0  0
   11.0241   -2.7134   -5.4171 C   0  0  0  0  0  0  0  0  0  0  0  0
   12.2397   -2.7619   -6.0446 C   0  0  0  0  0  0  0  0  0  0  0  0
   12.7736   -3.9687   -7.1199 Cl  0  0  0  0  0  0  0  0  0  0  0  0
   13.2904   -1.4223   -5.6546 S   0  0  0  0  0  0  0  0  0  0  0  0
   12.0683   -0.7795   -4.6336 C   0  0  0  0  0  0  0  0  0  0  0  0
   11.9367    0.3647   -3.7792 C   0  0  0  0  0  0  0  0  0  0  0  0
   12.9194    1.2903   -3.5398 C   0  0  0  0  0  0  0  0  0  0  0  0
   12.8250    2.3939   -2.6706 C   0  0  0  0  0  0  0  0  0  0  0  0
   12.8302    3.3080   -1.9752 N   0  0  0  0  0  0  0  0  0  0  0  0
   14.1798    1.1770   -4.1644 C   0  0  0  0  0  0  0  0  0  0  0  0
   15.2080    1.0970   -4.6674 N   0  0  0  0  0  0  0  0  0  0  0  0
  -12.6824   -5.0782   -3.8669 H   0  0  0  0  0  0  0  0  0  0  0  0
   -8.2349   -4.4901   -8.2610 H   0  0  0  0  0  0  0  0  0  0  0  0
   -7.2557   -5.3942  -10.3447 H   0  0  0  0  0  0  0  0  0  0  0  0
   -7.3708   -6.9582  -12.2690 H   0  0  0  0  0  0  0  0  0  0  0  0
  -11.0831   -8.5018  -10.8399 H   0  0  0  0  0  0  0  0  0  0  0  0
  -12.0785   -7.6224   -8.7891 H   0  0  0  0  0  0  0  0  0  0  0  0
  -14.1713   -1.7185   -3.3637 H   0  0  0  0  0  0  0  0  0  0  0  0
  -13.3663   -3.0765   -4.1817 H   0  0  0  0  0  0  0  0  0  0  0  0
  -14.5154   -3.0063   -1.3394 H   0  0  0  0  0  0  0  0  0  0  0  0
  -13.4769   -4.3122   -1.8989 H   0  0  0  0  0  0  0  0  0  0  0  0
  -15.0370   -4.0374   -2.6852 H   0  0  0  0  0  0  0  0  0  0  0  0
  -11.3883    0.0263   -2.7347 H   0  0  0  0  0  0  0  0  0  0  0  0
  -11.0282    0.8938   -1.2206 H   0  0  0  0  0  0  0  0  0  0  0  0
   -8.5863    0.7585   -1.7346 H   0  0  0  0  0  0  0  0  0  0  0  0
   -9.4573    1.5650   -3.0481 H   0  0  0  0  0  0  0  0  0  0  0  0
   -8.9404   -0.1157   -3.2306 H   0  0  0  0  0  0  0  0  0  0  0  0
   -7.8076   -6.8924   -4.5421 H   0  0  0  0  0  0  0  0  0  0  0  0
   -6.0361   -5.7417   -3.1125 H   0  0  0  0  0  0  0  0  0  0  0  0
   -9.8225   -3.3141    0.9548 H   0  0  0  0  0  0  0  0  0  0  0  0
  -11.8478   -3.0669    2.3373 H   0  0  0  0  0  0  0  0  0  0  0  0
  -12.4393   -0.8751    3.2860 H   0  0  0  0  0  0  0  0  0  0  0  0
  -11.7623    1.3666    3.8661 H   0  0  0  0  0  0  0  0  0  0  0  0
  -10.2070    2.0071    3.3162 H   0  0  0  0  0  0  0  0  0  0  0  0
  -12.1108    3.2808    2.3293 H   0  0  0  0  0  0  0  0  0  0  0  0
  -12.7243    1.7950    1.5940 H   0  0  0  0  0  0  0  0  0  0  0  0
  -11.1771    2.4628    1.0725 H   0  0  0  0  0  0  0  0  0  0  0  0
   -8.9781    0.8394    1.4838 H   0  0  0  0  0  0  0  0  0  0  0  0
    4.0581    3.8914    2.8443 H   0  0  0  0  0  0  0  0  0  0  0  0
    5.2650    5.9085    3.5103 H   0  0  0  0  0  0  0  0  0  0  0  0
    6.8511    6.9834    1.9554 H   0  0  0  0  0  0  0  0  0  0  0  0
    7.8480    5.5286   -1.2720 H   0  0  0  0  0  0  0  0  0  0  0  0
    8.2135    6.7673   -0.0641 H   0  0  0  0  0  0  0  0  0  0  0  0
    5.8399    6.8291   -1.9909 H   0  0  0  0  0  0  0  0  0  0  0  0
    6.2088    8.0647   -0.7887 H   0  0  0  0  0  0  0  0  0  0  0  0
    7.3125    7.7940   -2.1424 H   0  0  0  0  0  0  0  0  0  0  0  0
    5.8824    4.0902   -1.0174 H   0  0  0  0  0  0  0  0  0  0  0  0
   -1.8863   -0.6798   -1.6034 H   0  0  0  0  0  0  0  0  0  0  0  0
   -3.5926   -0.8151   -2.0368 H   0  0  0  0  0  0  0  0  0  0  0  0
   -2.3349   -2.9880   -2.3104 H   0  0  0  0  0  0  0  0  0  0  0  0
   -3.7540   -3.0921   -1.2687 H   0  0  0  0  0  0  0  0  0  0  0  0
   -2.1480   -3.0659   -0.5531 H   0  0  0  0  0  0  0  0  0  0  0  0
    0.8977   -1.1170   -1.0593 H   0  0  0  0  0  0  0  0  0  0  0  0
   -0.6206   -1.7296   -0.3642 H   0  0  0  0  0  0  0  0  0  0  0  0
    1.2761   -2.9048    0.6447 H   0  0  0  0  0  0  0  0  0  0  0  0
    1.9921   -1.3795    1.1654 H   0  0  0  0  0  0  0  0  0  0  0  0
    0.4609   -1.9175    1.8650 H   0  0  0  0  0  0  0  0  0  0  0  0
    8.9434    4.6785    3.2076 H   0  0  0  0  0  0  0  0  0  0  0  0
    8.1939    5.5644    5.3452 H   0  0  0  0  0  0  0  0  0  0  0  0
    7.7437    5.7541    7.4399 H   0  0  0  0  0  0  0  0  0  0  0  0
    6.3194    5.6027    8.4891 H   0  0  0  0  0  0  0  0  0  0  0  0
    6.3085    6.9297    5.7249 H   0  0  0  0  0  0  0  0  0  0  0  0
    4.9128    6.7405    6.7880 H   0  0  0  0  0  0  0  0  0  0  0  0
    6.2659    7.7684    7.2814 H   0  0  0  0  0  0  0  0  0  0  0  0
    6.1713    1.4693    3.5187 H   0  0  0  0  0  0  0  0  0  0  0  0
    5.2777    0.3632    5.1968 H   0  0  0  0  0  0  0  0  0  0  0  0
    4.0499    0.7384    6.4258 H   0  0  0  0  0  0  0  0  0  0  0  0
    2.7918    2.1030    4.7423 H   0  0  0  0  0  0  0  0  0  0  0  0
    2.9367    0.4065    4.2682 H   0  0  0  0  0  0  0  0  0  0  0  0
    3.9489    1.6304    3.4942 H   0  0  0  0  0  0  0  0  0  0  0  0
   11.5951    3.3442    0.4652 H   0  0  0  0  0  0  0  0  0  0  0  0
   13.6345    3.8346    1.7075 H   0  0  0  0  0  0  0  0  0  0  0  0
   14.8879    4.9524    3.3143 H   0  0  0  0  0  0  0  0  0  0  0  0
   15.4688    3.2859    3.0480 H   0  0  0  0  0  0  0  0  0  0  0  0
   15.7397    4.8650    5.6562 H   0  0  0  0  0  0  0  0  0  0  0  0
   17.0455    4.5577    4.4985 H   0  0  0  0  0  0  0  0  0  0  0  0
   16.3114    3.2176    5.3954 H   0  0  0  0  0  0  0  0  0  0  0  0
    9.8322    2.6137    6.0773 H   0  0  0  0  0  0  0  0  0  0  0  0
   10.9961    2.4247    7.4081 H   0  0  0  0  0  0  0  0  0  0  0  0
   10.3545    0.2336    5.3634 H   0  0  0  0  0  0  0  0  0  0  0  0
   11.4760    0.1031    6.7168 H   0  0  0  0  0  0  0  0  0  0  0  0
    9.7450    0.3124    7.0224 H   0  0  0  0  0  0  0  0  0  0  0  0
    9.7148    1.9687    4.0346 H   0  0  0  0  0  0  0  0  0  0  0  0
   10.6532    1.9991   -1.9914 H   0  0  0  0  0  0  0  0  0  0  0  0
   10.2524   -3.4504   -5.5356 H   0  0  0  0  0  0  0  0  0  0  0  0
  1  2  2  0  0  0  0
  2  3  1  0  0  0  0
  3  4  2  0  0  0  0
  3  5  1  0  0  0  0
  5  6  2  0  0  0  0
  6  7  1  0  0  0  0
  7  8  2  0  0  0  0
  8  9  1  0  0  0  0
  9 10  2  0  0  0  0
 10 11  1  0  0  0  0
 10 12  1  0  0  0  0
 12 13  2  0  0  0  0
 13 14  1  0  0  0  0
 14 15  2  0  0  0  0
 15 16  1  0  0  0  0
 16 17  2  0  0  0  0
 17 18  1  0  0  0  0
 18 19  3  0  0  0  0
 17 20  1  0  0  0  0
 20 21  3  0  0  0  0
  1 22  1  0  0  0  0
 22 23  2  0  0  0  0
 23 24  1  0  0  0  0
 24 25  1  0  0  0  0
 25 26  1  0  0  0  0
 23 27  1  0  0  0  0
 27 28  1  0  0  0  0
 28 29  1  0  0  0  0
 29 30  1  0  0  0  0
 27 31  2  0  0  0  0
 31 32  1  0  0  0  0
 32 33  2  0  0  0  0
 33 34  1  0  0  0  0
 34 35  2  0  0  0  0
 35 36  1  0  0  0  0
 36 37  2  0  0  0  0
 31 38  1  0  0  0  0
 38 39  2  0  0  0  0
 39 40  1  0  0  0  0
 40 41  2  0  0  0  0
 41 42  1  0  0  0  0
 42 43  2  0  0  0  0
 43 44  1  0  0  0  0
 44 45  1  0  0  0  0
 45 46  1  0  0  0  0
 44 47  2  0  0  0  0
 39 48  1  0  0  0  0
 48 49  1  0  0  0  0
 49 50  1  0  0  0  0
 50 51  1  0  0  0  0
 51 52  1  0  0  0  0
 52 53  1  0  0  0  0
 53 54  2  0  0  0  0
 54 55  1  0  0  0  0
 55 56  1  0  0  0  0
 53 57  1  0  0  0  0
 57 58  1  0  0  0  0
 58 59  1  0  0  0  0
 59 60  1  0  0  0  0
 60 61  1  0  0  0  0
 61 62  1  0  0  0  0
 62 63  2  0  0  0  0
 63 64  1  0  0  0  0
 64 65  2  0  0  0  0
 65 66  1  0  0  0  0
 66 67  1  0  0  0  0
 67 68  1  0  0  0  0
 66 69  2  0  0  0  0
 61 70  2  0  0  0  0
 70 71  1  0  0  0  0
 71 72  1  0  0  0  0
 72 73  1  0  0  0  0
 73 74  1  0  0  0  0
 74 75  1  0  0  0  0
 75 76  1  0  0  0  0
 76 77  1  0  0  0  0
 77 78  1  0  0  0  0
 78 79  1  0  0  0  0
 79 80  1  0  0  0  0
 77 81  1  0  0  0  0
 81 82  1  0  0  0  0
 74 83  1  0  0  0  0
 83 84  1  0  0  0  0
 70 85  1  0  0  0  0
 85 86  1  0  0  0  0
 86 87  2  0  0  0  0
 87 88  1  0  0  0  0
 88 89  1  0  0  0  0
 89 90  2  0  0  0  0
 90 91  1  0  0  0  0
 91 92  2  0  0  0  0
 92 93  1  0  0  0  0
 93 94  1  0  0  0  0
 94 95  1  0  0  0  0
 92 96  1  0  0  0  0
 96 97  2  0  0  0  0
 96 98  1  0  0  0  0
 98 99  1  0  0  0  0
 99100  1  0  0  0  0
 88101  2  0  0  0  0
101102  1  0  0  0  0
102103  2  0  0  0  0
103104  1  0  0  0  0
104105  2  0  0  0  0
105106  1  0  0  0  0
106107  1  0  0  0  0
107108  1  0  0  0  0
105109  1  0  0  0  0
109110  1  0  0  0  0
110111  1  0  0  0  0
111112  1  0  0  0  0
109113  2  0  0  0  0
101114  1  0  0  0  0
114115  2  0  0  0  0
115116  1  0  0  0  0
116117  2  0  0  0  0
117118  1  0  0  0  0
118119  1  0  0  0  0
117120  1  0  0  0  0
116121  1  0  0  0  0
121122  2  0  0  0  0
122123  1  0  0  0  0
123124  2  0  0  0  0
123125  1  0  0  0  0
125126  1  0  0  0  0
126127  2  0  0  0  0
127128  1  0  0  0  0
127129  1  0  0  0  0
129130  1  0  0  0  0
130131  1  0  0  0  0
131132  2  0  0  0  0
132133  1  0  0  0  0
133134  3  0  0  0  0
132135  1  0  0  0  0
135136  3  0  0  0  0
 16  2  1  0  0  0  0
 33 22  1  0  0  0  0
 80 38  1  0  0  0  0
118 85  2  0  0  0  0
131122  1  0  0  0  0
 15  5  1  0  0  0  0
 37 32  1  0  0  0  0
 47 40  1  0  0  0  0
 79 48  2  0  0  0  0
115 86  1  0  0  0  0
130125  2  0  0  0  0
 13  7  1  0  0  0  0
 78 50  2  0  0  0  0
 97 89  1  0  0  0  0
113102  1  0  0  0  0
 76 51  2  0  0  0  0
 56 52  2  0  0  0  0
 75 57  2  0  0  0  0
 73 58  2  0  0  0  0
 72 60  2  0  0  0  0
 69 62  1  0  0  0  0
  1137  1  0  0  0  0
  6138  1  0  0  0  0
  8139  1  0  0  0  0
  9140  1  0  0  0  0
 12141  1  0  0  0  0
 14142  1  0  0  0  0
 25143  1  0  0  0  0
 25144  1  0  0  0  0
 26145  1  0  0  0  0
 26146  1  0  0  0  0
 26147  1  0  0  0  0
 29148  1  0  0  0  0
 29149  1  0  0  0  0
 30150  1  0  0  0  0
 30151  1  0  0  0  0
 30152  1  0  0  0  0
 35153  1  0  0  0  0
 36154  1  0  0  0  0
 41155  1  0  0  0  0
 42156  1  0  0  0  0
 43157  1  0  0  0  0
 45158  1  0  0  0  0
 45159  1  0  0  0  0
 46160  1  0  0  0  0
 46161  1  0  0  0  0
 46162  1  0  0  0  0
 47163  1  0  0  0  0
 63164  1  0  0  0  0
 64165  1  0  0  0  0
 65166  1  0  0  0  0
 67167  1  0  0  0  0
 67168  1  0  0  0  0
 68169  1  0  0  0  0
 68170  1  0  0  0  0
 68171  1  0  0  0  0
 69172  1  0  0  0  0
 81173  1  0  0  0  0
 81174  1  0  0  0  0
 82175  1  0  0  0  0
 82176  1  0  0  0  0
 82177  1  0  0  0  0
 83178  1  0  0  0  0
 83179  1  0  0  0  0
 84180  1  0  0  0  0
 84181  1  0  0  0  0
 84182  1  0  0  0  0
 90183  1  0  0  0  0
 91184  1  0  0  0  0
 94185  1  0  0  0  0
 94186  1  0  0  0  0
 95187  1  0  0  0  0
 95188  1  0  0  0  0
 95189  1  0  0  0  0
 97190  1  0  0  0  0
 99191  1  0  0  0  0
 99192  1  0  0  0  0
100193  1  0  0  0  0
100194  1  0  0  0  0
100195  1  0  0  0  0
103196  1  0  0  0  0
104197  1  0  0  0  0
107198  1  0  0  0  0
107199  1  0  0  0  0
108200  1  0  0  0  0
108201  1  0  0  0  0
108202  1  0  0  0  0
111203  1  0  0  0  0
111204  1  0  0  0  0
112205  1  0  0  0  0
112206  1  0  0  0  0
112207  1  0  0  0  0
113208  1  0  0  0  0
121209  1  0  0  0  0
126210  1  0  0  0  0
M  END
