
  xtb     02052218343D
 energy: -300.304775025450 gnorm: 0.000507608594 xtb: 6.4.1 (unknown)
169187  0     0  0            999 V2000
   -7.1456   -3.3870    7.0013 C   0  0  0  0  0  0  0  0  0  0  0  0
   -8.1750   -2.6107    7.4302 C   0  0  0  0  0  0  0  0  0  0  0  0
   -8.4052   -1.2048    6.9923 C   0  0  0  0  0  0  0  0  0  0  0  0
   -7.7753   -0.5614    6.1806 O   0  0  0  0  0  0  0  0  0  0  0  0
   -9.6685   -0.7954    7.6326 C   0  0  0  0  0  0  0  0  0  0  0  0
  -10.3011    0.4123    7.5641 C   0  0  0  0  0  0  0  0  0  0  0  0
  -11.5332    0.5848    8.2322 C   0  0  0  0  0  0  0  0  0  0  0  0
  -12.2265    1.8122    8.1988 C   0  0  0  0  0  0  0  0  0  0  0  0
  -13.4237    1.9626    8.8412 C   0  0  0  0  0  0  0  0  0  0  0  0
  -13.9590    0.8726    9.5414 C   0  0  0  0  0  0  0  0  0  0  0  0
  -15.1380    1.0404   10.1674 F   0  0  0  0  0  0  0  0  0  0  0  0
  -13.3281   -0.3383    9.6068 C   0  0  0  0  0  0  0  0  0  0  0  0
  -12.0934   -0.5113    8.9509 C   0  0  0  0  0  0  0  0  0  0  0  0
  -11.4170   -1.7521    9.0005 C   0  0  0  0  0  0  0  0  0  0  0  0
  -10.2166   -1.8923    8.3545 C   0  0  0  0  0  0  0  0  0  0  0  0
   -9.3030   -3.0252    8.2454 C   0  0  0  0  0  0  0  0  0  0  0  0
   -9.4514   -4.2312    8.8768 C   0  0  0  0  0  0  0  0  0  0  0  0
  -10.5582   -4.5712    9.6834 C   0  0  0  0  0  0  0  0  0  0  0  0
  -11.4325   -4.9095   10.3460 N   0  0  0  0  0  0  0  0  0  0  0  0
   -8.5207   -5.2917    8.8366 C   0  0  0  0  0  0  0  0  0  0  0  0
   -7.8094   -6.1919    8.8738 N   0  0  0  0  0  0  0  0  0  0  0  0
   -5.9469   -2.8578    6.4195 C   0  0  0  0  0  0  0  0  0  0  0  0
   -5.2502   -3.5303    5.4261 C   0  0  0  0  0  0  0  0  0  0  0  0
   -5.7377   -4.6863    4.9501 F   0  0  0  0  0  0  0  0  0  0  0  0
   -4.0675   -3.0344    4.8745 C   0  0  0  0  0  0  0  0  0  0  0  0
   -3.4523   -3.7738    3.9320 F   0  0  0  0  0  0  0  0  0  0  0  0
   -3.5136   -1.8260    5.2738 C   0  0  0  0  0  0  0  0  0  0  0  0
   -4.2379   -1.0870    6.2556 C   0  0  0  0  0  0  0  0  0  0  0  0
   -3.9036    0.1824    6.5232 N   0  0  0  0  0  0  0  0  0  0  0  0
   -4.5078    0.8334    7.4788 C   0  0  0  0  0  0  0  0  0  0  0  0
   -4.1997    2.2910    7.6308 C   0  0  0  0  0  0  0  0  0  0  0  0
   -3.7490    2.9191    6.3175 C   0  0  0  0  0  0  0  0  0  0  0  0
   -5.4052    0.1313    8.3430 C   0  0  0  0  0  0  0  0  0  0  0  0
   -5.8483   -1.0452    7.9941 N   0  0  0  0  0  0  0  0  0  0  0  0
   -5.3717   -1.6431    6.8932 C   0  0  0  0  0  0  0  0  0  0  0  0
   -5.8439    0.6566    9.6733 C   0  0  0  0  0  0  0  0  0  0  0  0
   -4.7112    0.5312   10.6944 C   0  0  0  0  0  0  0  0  0  0  0  0
   -2.2989   -1.2961    4.7183 C   0  0  0  0  0  0  0  0  0  0  0  0
   -1.3442   -0.5283    5.3668 C   0  0  0  0  0  0  0  0  0  0  0  0
   -1.2871   -0.2952    6.8091 C   0  0  0  0  0  0  0  0  0  0  0  0
   -1.5956   -1.3123    7.7114 C   0  0  0  0  0  0  0  0  0  0  0  0
   -1.5335   -1.0731    9.0695 C   0  0  0  0  0  0  0  0  0  0  0  0
   -1.1485    0.1693    9.5454 C   0  0  0  0  0  0  0  0  0  0  0  0
   -0.8091    1.1853    8.6620 C   0  0  0  0  0  0  0  0  0  0  0  0
   -0.3224    2.5166    9.1590 C   0  0  0  0  0  0  0  0  0  0  0  0
    1.2072    2.5512    9.1600 C   0  0  0  0  0  0  0  0  0  0  0  0
   -0.8770    0.9395    7.2989 C   0  0  0  0  0  0  0  0  0  0  0  0
   -0.3625   -0.0758    4.4646 C   0  0  0  0  0  0  0  0  0  0  0  0
    1.0551    0.9292    4.6600 S   0  0  0  0  0  0  0  0  0  0  0  0
    1.3816    0.7568    2.9704 C   0  0  0  0  0  0  0  0  0  0  0  0
    2.2898    1.2278    2.0116 C   0  0  0  0  0  0  0  0  0  0  0  0
    3.3289    2.1775    2.1172 C   0  0  0  0  0  0  0  0  0  0  0  0
    4.0049    2.5955    0.9247 C   0  0  0  0  0  0  0  0  0  0  0  0
    4.9087    3.5345    1.1567 N   0  0  0  0  0  0  0  0  0  0  0  0
    4.9128    3.8593    2.7433 S   0  0  0  0  0  0  0  0  0  0  0  0
    3.7583    2.8173    3.1939 N   0  0  0  0  0  0  0  0  0  0  0  0
    3.6875    1.9600   -0.2952 C   0  0  0  0  0  0  0  0  0  0  0  0
    4.2552    2.0926   -1.5704 C   0  0  0  0  0  0  0  0  0  0  0  0
    5.4429    3.0544   -2.3801 S   0  0  0  0  0  0  0  0  0  0  0  0
    5.1361    2.1502   -3.8442 C   0  0  0  0  0  0  0  0  0  0  0  0
    5.6997    2.2157   -5.1312 C   0  0  0  0  0  0  0  0  0  0  0  0
    6.7921    3.1304   -5.4667 C   0  0  0  0  0  0  0  0  0  0  0  0
    7.9379    2.6710   -6.1123 C   0  0  0  0  0  0  0  0  0  0  0  0
    8.9756    3.5441   -6.3734 C   0  0  0  0  0  0  0  0  0  0  0  0
    8.8859    4.8720   -5.9908 C   0  0  0  0  0  0  0  0  0  0  0  0
    7.7544    5.3448   -5.3392 C   0  0  0  0  0  0  0  0  0  0  0  0
    7.6698    6.7659   -4.8633 C   0  0  0  0  0  0  0  0  0  0  0  0
    8.0903    6.8553   -3.3949 C   0  0  0  0  0  0  0  0  0  0  0  0
    6.7149    4.4636   -5.0799 C   0  0  0  0  0  0  0  0  0  0  0  0
    5.1384    1.2652   -5.9712 C   0  0  0  0  0  0  0  0  0  0  0  0
    3.9385    0.2709   -5.1564 S   0  0  0  0  0  0  0  0  0  0  0  0
    4.1679    1.1532   -3.6892 C   0  0  0  0  0  0  0  0  0  0  0  0
    3.6551    1.1297   -2.3861 C   0  0  0  0  0  0  0  0  0  0  0  0
    2.7174    0.4303   -1.6746 N   0  0  0  0  0  0  0  0  0  0  0  0
    2.7054    0.9317   -0.3822 C   0  0  0  0  0  0  0  0  0  0  0  0
    1.9182    0.6451    0.7657 C   0  0  0  0  0  0  0  0  0  0  0  0
    0.7885   -0.1304    0.9719 N   0  0  0  0  0  0  0  0  0  0  0  0
    0.4602   -0.0494    2.2981 C   0  0  0  0  0  0  0  0  0  0  0  0
   -0.5468   -0.5194    3.1519 C   0  0  0  0  0  0  0  0  0  0  0  0
   -1.9528   -1.5082    3.0139 S   0  0  0  0  0  0  0  0  0  0  0  0
   -0.1796   -0.6395    0.0267 C   0  0  0  0  0  0  0  0  0  0  0  0
   -0.7767    0.4801   -0.8221 C   0  0  0  0  0  0  0  0  0  0  0  0
    2.2255   -0.8283   -2.1901 C   0  0  0  0  0  0  0  0  0  0  0  0
    2.7813   -2.0126   -1.4037 C   0  0  0  0  0  0  0  0  0  0  0  0
    5.3642    1.0432   -7.3547 C   0  0  0  0  0  0  0  0  0  0  0  0
    5.8527    1.9408   -8.2879 C   0  0  0  0  0  0  0  0  0  0  0  0
    5.9047    1.4110   -9.5694 C   0  0  0  0  0  0  0  0  0  0  0  0
    6.4839    2.4165  -10.8893 S   0  0  0  0  0  0  0  0  0  0  0  0
    5.1331    2.3721  -12.1370 C   0  0  0  0  0  0  0  0  0  0  0  0
    3.7538    2.3878  -11.5143 C   0  0  0  0  0  0  0  0  0  0  0  0
    5.5068    0.0603   -9.6478 C   0  0  0  0  0  0  0  0  0  0  0  0
    4.9524   -0.4816   -8.0755 S   0  0  0  0  0  0  0  0  0  0  0  0
    5.6644   -0.7294  -10.7867 C   0  0  0  0  0  0  0  0  0  0  0  0
    5.4146   -2.0716  -10.9790 C   0  0  0  0  0  0  0  0  0  0  0  0
    4.8660   -2.9869   -9.9765 C   0  0  0  0  0  0  0  0  0  0  0  0
    4.4306   -2.7073   -8.8710 O   0  0  0  0  0  0  0  0  0  0  0  0
    4.9348   -4.3351  -10.5647 C   0  0  0  0  0  0  0  0  0  0  0  0
    4.5910   -5.5323  -10.0084 C   0  0  0  0  0  0  0  0  0  0  0  0
    4.7700   -6.7158  -10.7597 C   0  0  0  0  0  0  0  0  0  0  0  0
    4.4387   -7.9811  -10.2347 C   0  0  0  0  0  0  0  0  0  0  0  0
    4.6224   -9.1193  -10.9701 C   0  0  0  0  0  0  0  0  0  0  0  0
    5.1481   -9.0121  -12.2644 C   0  0  0  0  0  0  0  0  0  0  0  0
    5.3221  -10.1431  -12.9732 F   0  0  0  0  0  0  0  0  0  0  0  0
    5.4855   -7.8099  -12.8215 C   0  0  0  0  0  0  0  0  0  0  0  0
    5.3032   -6.6280  -12.0780 C   0  0  0  0  0  0  0  0  0  0  0  0
    5.6442   -5.3697  -12.6289 C   0  0  0  0  0  0  0  0  0  0  0  0
    5.4607   -4.2371  -11.8831 C   0  0  0  0  0  0  0  0  0  0  0  0
    5.7119   -2.8266  -12.1758 C   0  0  0  0  0  0  0  0  0  0  0  0
    6.1076   -2.3432  -13.3993 C   0  0  0  0  0  0  0  0  0  0  0  0
    6.3764   -3.1518  -14.5223 C   0  0  0  0  0  0  0  0  0  0  0  0
    6.6158   -3.7461  -15.4755 N   0  0  0  0  0  0  0  0  0  0  0  0
    6.2532   -0.9846  -13.7324 C   0  0  0  0  0  0  0  0  0  0  0  0
    6.3588    0.1044  -14.0866 N   0  0  0  0  0  0  0  0  0  0  0  0
   -7.1952   -4.4637    7.1002 H   0  0  0  0  0  0  0  0  0  0  0  0
   -9.8645    1.2268    7.0055 H   0  0  0  0  0  0  0  0  0  0  0  0
  -11.7946    2.6366    7.6514 H   0  0  0  0  0  0  0  0  0  0  0  0
  -13.9678    2.8936    8.8237 H   0  0  0  0  0  0  0  0  0  0  0  0
  -13.7698   -1.1555   10.1555 H   0  0  0  0  0  0  0  0  0  0  0  0
  -11.8717   -2.5633    9.5459 H   0  0  0  0  0  0  0  0  0  0  0  0
   -5.0819    2.8098    8.0110 H   0  0  0  0  0  0  0  0  0  0  0  0
   -3.4052    2.3963    8.3757 H   0  0  0  0  0  0  0  0  0  0  0  0
   -3.4908    3.9643    6.4688 H   0  0  0  0  0  0  0  0  0  0  0  0
   -4.5454    2.8577    5.5802 H   0  0  0  0  0  0  0  0  0  0  0  0
   -2.8855    2.3884    5.9302 H   0  0  0  0  0  0  0  0  0  0  0  0
   -6.1468    1.7016    9.5878 H   0  0  0  0  0  0  0  0  0  0  0  0
   -6.7008    0.0685   10.0046 H   0  0  0  0  0  0  0  0  0  0  0  0
   -3.8362    1.0909   10.3728 H   0  0  0  0  0  0  0  0  0  0  0  0
   -4.4262   -0.5117   10.8089 H   0  0  0  0  0  0  0  0  0  0  0  0
   -5.0351    0.9114   11.6598 H   0  0  0  0  0  0  0  0  0  0  0  0
   -1.8751   -2.2898    7.3464 H   0  0  0  0  0  0  0  0  0  0  0  0
   -1.7799   -1.8628    9.7641 H   0  0  0  0  0  0  0  0  0  0  0  0
   -1.1017    0.3462   10.6106 H   0  0  0  0  0  0  0  0  0  0  0  0
   -0.6887    2.6945   10.1725 H   0  0  0  0  0  0  0  0  0  0  0  0
   -0.6965    3.3135    8.5124 H   0  0  0  0  0  0  0  0  0  0  0  0
    1.6017    1.7691    9.8048 H   0  0  0  0  0  0  0  0  0  0  0  0
    1.5657    3.5125    9.5203 H   0  0  0  0  0  0  0  0  0  0  0  0
    1.5890    2.3909    8.1545 H   0  0  0  0  0  0  0  0  0  0  0  0
   -0.6230    1.7298    6.6085 H   0  0  0  0  0  0  0  0  0  0  0  0
    8.0137    1.6316   -6.3944 H   0  0  0  0  0  0  0  0  0  0  0  0
    9.8626    3.1863   -6.8745 H   0  0  0  0  0  0  0  0  0  0  0  0
    9.7035    5.5470   -6.1980 H   0  0  0  0  0  0  0  0  0  0  0  0
    6.6457    7.1306   -4.9661 H   0  0  0  0  0  0  0  0  0  0  0  0
    8.3217    7.4001   -5.4669 H   0  0  0  0  0  0  0  0  0  0  0  0
    7.4479    6.2307   -2.7782 H   0  0  0  0  0  0  0  0  0  0  0  0
    8.0221    7.8815   -3.0419 H   0  0  0  0  0  0  0  0  0  0  0  0
    9.1159    6.5138   -3.2746 H   0  0  0  0  0  0  0  0  0  0  0  0
    5.8250    4.8218   -4.5828 H   0  0  0  0  0  0  0  0  0  0  0  0
   -0.9729   -1.1058    0.6158 H   0  0  0  0  0  0  0  0  0  0  0  0
    0.2612   -1.4222   -0.5911 H   0  0  0  0  0  0  0  0  0  0  0  0
   -1.4905    0.0675   -1.5299 H   0  0  0  0  0  0  0  0  0  0  0  0
   -1.2945    1.1926   -0.1843 H   0  0  0  0  0  0  0  0  0  0  0  0
   -0.0047    1.0148   -1.3704 H   0  0  0  0  0  0  0  0  0  0  0  0
    1.1353   -0.8367   -2.2121 H   0  0  0  0  0  0  0  0  0  0  0  0
    2.5668   -0.8930   -3.2262 H   0  0  0  0  0  0  0  0  0  0  0  0
    2.5156   -1.9483   -0.3511 H   0  0  0  0  0  0  0  0  0  0  0  0
    3.8661   -2.0313   -1.4785 H   0  0  0  0  0  0  0  0  0  0  0  0
    2.3909   -2.9418   -1.8096 H   0  0  0  0  0  0  0  0  0  0  0  0
    6.1287    2.9548   -8.0639 H   0  0  0  0  0  0  0  0  0  0  0  0
    5.2790    1.5196  -12.7988 H   0  0  0  0  0  0  0  0  0  0  0  0
    5.3152    3.2834  -12.7065 H   0  0  0  0  0  0  0  0  0  0  0  0
    3.0079    2.4953  -12.2992 H   0  0  0  0  0  0  0  0  0  0  0  0
    3.6526    3.2209  -10.8213 H   0  0  0  0  0  0  0  0  0  0  0  0
    3.5529    1.4626  -10.9774 H   0  0  0  0  0  0  0  0  0  0  0  0
    6.1155   -0.1996  -11.6167 H   0  0  0  0  0  0  0  0  0  0  0  0
    4.1910   -5.5774   -9.0064 H   0  0  0  0  0  0  0  0  0  0  0  0
    4.0353   -8.0384   -9.2347 H   0  0  0  0  0  0  0  0  0  0  0  0
    4.3751  -10.0950  -10.5829 H   0  0  0  0  0  0  0  0  0  0  0  0
    5.8874   -7.7646  -13.8217 H   0  0  0  0  0  0  0  0  0  0  0  0
    6.0480   -5.3402  -13.6279 H   0  0  0  0  0  0  0  0  0  0  0  0
  1  2  2  0  0  0  0
  2  3  1  0  0  0  0
  3  4  2  0  0  0  0
  3  5  1  0  0  0  0
  5  6  2  0  0  0  0
  6  7  1  0  0  0  0
  7  8  2  0  0  0  0
  8  9  1  0  0  0  0
  9 10  2  0  0  0  0
 10 11  1  0  0  0  0
 10 12  1  0  0  0  0
 12 13  2  0  0  0  0
 13 14  1  0  0  0  0
 14 15  2  0  0  0  0
 15 16  1  0  0  0  0
 16 17  2  0  0  0  0
 17 18  1  0  0  0  0
 18 19  3  0  0  0  0
 17 20  1  0  0  0  0
 20 21  3  0  0  0  0
  1 22  1  0  0  0  0
 22 23  2  0  0  0  0
 23 24  1  0  0  0  0
 23 25  1  0  0  0  0
 25 26  1  0  0  0  0
 25 27  2  0  0  0  0
 27 28  1  0  0  0  0
 28 29  2  0  0  0  0
 29 30  1  0  0  0  0
 30 31  1  0  0  0  0
 31 32  1  0  0  0  0
 30 33  2  0  0  0  0
 33 34  1  0  0  0  0
 34 35  2  0  0  0  0
 33 36  1  0  0  0  0
 36 37  1  0  0  0  0
 27 38  1  0  0  0  0
 38 39  2  0  0  0  0
 39 40  1  0  0  0  0
 40 41  2  0  0  0  0
 41 42  1  0  0  0  0
 42 43  2  0  0  0  0
 43 44  1  0  0  0  0
 44 45  1  0  0  0  0
 45 46  1  0  0  0  0
 44 47  2  0  0  0  0
 39 48  1  0  0  0  0
 48 49  1  0  0  0  0
 49 50  1  0  0  0  0
 50 51  1  0  0  0  0
 51 52  1  0  0  0  0
 52 53  1  0  0  0  0
 53 54  2  0  0  0  0
 54 55  1  0  0  0  0
 55 56  1  0  0  0  0
 53 57  1  0  0  0  0
 57 58  1  0  0  0  0
 58 59  1  0  0  0  0
 59 60  1  0  0  0  0
 60 61  1  0  0  0  0
 61 62  1  0  0  0  0
 62 63  2  0  0  0  0
 63 64  1  0  0  0  0
 64 65  2  0  0  0  0
 65 66  1  0  0  0  0
 66 67  1  0  0  0  0
 67 68  1  0  0  0  0
 66 69  2  0  0  0  0
 61 70  2  0  0  0  0
 70 71  1  0  0  0  0
 71 72  1  0  0  0  0
 72 73  1  0  0  0  0
 73 74  1  0  0  0  0
 74 75  1  0  0  0  0
 75 76  1  0  0  0  0
 76 77  1  0  0  0  0
 77 78  1  0  0  0  0
 78 79  1  0  0  0  0
 79 80  1  0  0  0  0
 77 81  1  0  0  0  0
 81 82  1  0  0  0  0
 74 83  1  0  0  0  0
 83 84  1  0  0  0  0
 70 85  1  0  0  0  0
 85 86  2  0  0  0  0
 86 87  1  0  0  0  0
 87 88  1  0  0  0  0
 88 89  1  0  0  0  0
 89 90  1  0  0  0  0
 87 91  2  0  0  0  0
 91 92  1  0  0  0  0
 91 93  1  0  0  0  0
 93 94  2  0  0  0  0
 94 95  1  0  0  0  0
 95 96  2  0  0  0  0
 95 97  1  0  0  0  0
 97 98  2  0  0  0  0
 98 99  1  0  0  0  0
 99100  2  0  0  0  0
100101  1  0  0  0  0
101102  2  0  0  0  0
102103  1  0  0  0  0
102104  1  0  0  0  0
104105  2  0  0  0  0
105106  1  0  0  0  0
106107  2  0  0  0  0
107108  1  0  0  0  0
108109  2  0  0  0  0
109110  1  0  0  0  0
110111  3  0  0  0  0
109112  1  0  0  0  0
112113  3  0  0  0  0
 16  2  1  0  0  0  0
 35 22  1  0  0  0  0
 80 38  1  0  0  0  0
 92 85  1  0  0  0  0
108 94  1  0  0  0  0
 15  5  1  0  0  0  0
 35 28  1  0  0  0  0
 47 40  1  0  0  0  0
 79 48  2  0  0  0  0
107 97  1  0  0  0  0
 13  7  1  0  0  0  0
 78 50  2  0  0  0  0
105 99  1  0  0  0  0
 76 51  2  0  0  0  0
 56 52  2  0  0  0  0
 75 57  2  0  0  0  0
 73 58  2  0  0  0  0
 72 60  2  0  0  0  0
 69 62  1  0  0  0  0
  1114  1  0  0  0  0
  6115  1  0  0  0  0
  8116  1  0  0  0  0
  9117  1  0  0  0  0
 12118  1  0  0  0  0
 14119  1  0  0  0  0
 31120  1  0  0  0  0
 31121  1  0  0  0  0
 32122  1  0  0  0  0
 32123  1  0  0  0  0
 32124  1  0  0  0  0
 36125  1  0  0  0  0
 36126  1  0  0  0  0
 37127  1  0  0  0  0
 37128  1  0  0  0  0
 37129  1  0  0  0  0
 41130  1  0  0  0  0
 42131  1  0  0  0  0
 43132  1  0  0  0  0
 45133  1  0  0  0  0
 45134  1  0  0  0  0
 46135  1  0  0  0  0
 46136  1  0  0  0  0
 46137  1  0  0  0  0
 47138  1  0  0  0  0
 63139  1  0  0  0  0
 64140  1  0  0  0  0
 65141  1  0  0  0  0
 67142  1  0  0  0  0
 67143  1  0  0  0  0
 68144  1  0  0  0  0
 68145  1  0  0  0  0
 68146  1  0  0  0  0
 69147  1  0  0  0  0
 81148  1  0  0  0  0
 81149  1  0  0  0  0
 82150  1  0  0  0  0
 82151  1  0  0  0  0
 82152  1  0  0  0  0
 83153  1  0  0  0  0
 83154  1  0  0  0  0
 84155  1  0  0  0  0
 84156  1  0  0  0  0
 84157  1  0  0  0  0
 86158  1  0  0  0  0
 89159  1  0  0  0  0
 89160  1  0  0  0  0
 90161  1  0  0  0  0
 90162  1  0  0  0  0
 90163  1  0  0  0  0
 93164  1  0  0  0  0
 98165  1  0  0  0  0
100166  1  0  0  0  0
101167  1  0  0  0  0
104168  1  0  0  0  0
106169  1  0  0  0  0
M  END
