165

C         -5.84850        8.91230       -0.82660
C         -5.03280        9.56080        0.04640
C         -4.08570        8.87740        0.97110
O         -3.86630        7.68990        1.07710
C         -3.57060        9.93830        1.85730
C         -2.68050        9.82580        2.88630
C         -2.34950       10.97260        3.64140
C         -1.43550       10.91270        4.71320
C         -1.13390       12.02730        5.44500
C         -1.74790       13.24290        5.11310
F         -1.43800       14.32850        5.84470
C         -2.63910       13.35690        4.08290
C         -2.96210       12.21850        3.31850
C         -3.88200       12.30450        2.24780
C         -4.17880       11.18080        1.52270
C         -5.06440       10.97120        0.38280
C         -5.72140       11.95150       -0.31250
C         -5.68770       13.31970        0.02860
N         -5.69710       14.44460        0.25810
C         -6.48440       11.73600       -1.48000
N         -7.09370       11.64620       -2.44870
C         -5.60980        7.57710       -1.28710
C         -6.64020        6.67050       -1.49380
F         -7.89730        7.04070       -1.20400
C         -6.42650        5.35260       -1.89770
F         -7.49570        4.54040       -1.89990
C         -5.15490        4.86830       -2.19630
C         -4.07750        5.78730       -1.99390
N         -2.82590        5.34840       -2.16840
C         -1.80730        6.14950       -1.98190
C         -0.44950        5.52550       -2.07420
C         -0.03480        5.00260       -0.69650
C         -2.03730        7.52270       -1.68920
N         -3.25470        7.96660       -1.50650
C         -4.29220        7.12180       -1.58160
C         -0.94300        8.54440       -1.62940
C         -0.61450        9.06020       -3.03270
C         -4.85520        3.52180       -2.57260
C         -5.66030        2.56180       -3.17970
C         -6.92400        2.83570       -3.85850
C         -7.99960        1.95860       -3.75420
C         -9.18190        2.24370       -4.40890
C         -9.30380        3.39570       -5.16680
C         -8.23400        4.27220       -5.29840
C         -8.36160        5.54970       -6.07820
C         -8.47920        6.74480       -5.12980
C         -7.04660        3.97510       -4.64930
C         -5.03270        1.30440       -3.18150
S         -5.54380       -0.27400       -3.73890
C         -4.02920       -0.92340       -3.21070
C         -3.39910       -2.16940       -3.06610
C         -3.86940       -3.49060       -3.24310
C         -3.07580       -4.58610       -2.75520
N         -3.68170       -5.75320       -2.90460
S         -5.11890       -5.50150       -3.60580
N         -5.02800       -3.89120       -3.74120
C         -1.78470       -4.32440       -2.24440
C         -0.76650       -5.16560       -1.76010
S         -0.50130       -6.83510       -1.38530
C          1.13200       -6.44750       -0.89820
C          2.18520       -7.21290       -0.35950
C          2.09200       -8.62620        0.00240
C          1.46250       -9.53350       -0.84370
C          1.41560      -10.87190       -0.50130
C          1.99170      -11.31460        0.67580
C          2.60700      -10.41840        1.54290
C          3.19710      -10.88630        2.84230
C          2.11060      -11.01510        3.91140
C          2.63780       -9.07660        1.20270
C          3.29640       -6.42300       -0.11820
S          3.03840       -4.73490       -0.50750
C          1.43660       -5.09010       -1.03400
C          0.34800       -4.35780       -1.51700
N          0.06020       -3.04810       -1.80640
C         -1.26030       -3.00340       -2.22190
C         -2.12370       -1.91420       -2.48880
N         -2.00890       -0.56010       -2.24520
C         -3.16510        0.03800       -2.67190
C         -3.74680        1.30930       -2.63020
S         -3.27450        2.89900       -2.13990
C         -1.10060        0.14650       -1.36960
C         -0.24670        1.16620       -2.12310
C          1.13710       -2.15950       -2.18830
C          1.86110       -2.67320       -3.43300
C          4.58180       -6.85240        0.38200
C          5.19810       -8.02720       -0.07480
F          4.64170       -8.72120       -1.07630
C          6.39370       -8.47050        0.45920
F          6.93650       -9.60850        0.00740
C          7.03960       -7.78130        1.49020
C          6.46390       -6.57200        1.89720
F          7.09410       -5.81260        2.80080
C          5.28080       -6.11650        1.34950
F          4.77060       -4.95580        1.78750
C          8.27110       -8.27300        2.07530
C          8.49000       -8.29750        3.40880
C          7.39890       -8.16150        4.42490
O          6.21620       -8.01760        4.21110
C          8.04900       -8.36640        5.72710
C          7.48620       -8.32110        6.97100
C          8.29960       -8.54130        8.10340
C          7.77400       -8.48900        9.41100
C          8.57250       -8.70400       10.49940
C          9.93260       -8.98040       10.29960
F         10.70120       -9.18840       11.38230
C         10.49300       -9.04290        9.05400
C          9.68590       -8.82170        7.92090
C         10.23890       -8.87100        6.62070
C          9.43380       -8.63950        5.53580
C          9.73030       -8.59750        4.10910
C         10.96730       -8.72610        3.54030
C         11.23750       -8.60110        2.16000
N         11.52960       -8.49400        1.05540
C         12.15050       -8.98040        4.26750
N         13.14310       -9.18820        4.80410
H         -6.73760        9.39970       -1.20650
H         -2.23530        8.87070        3.12230
H         -0.97670        9.96460        4.95100
H         -0.43960       11.99800        6.26970
H         -3.09220       14.30910        3.85530
H         -4.33600       13.25890        2.03440
H         -0.50690        4.68810       -2.77030
H          0.28610        6.24100       -2.43930
H         -0.75140        4.26090       -0.35330
H         -0.00360        5.81200        0.02950
H          0.94960        4.54440       -0.75020
H         -1.29420        9.37570       -1.01640
H         -0.05090        8.12070       -1.16790
H         -0.28440        8.25000       -3.67950
H         -1.49600        9.51600       -3.47670
H          0.17380        9.80670       -2.98120
H         -7.91520        1.07530       -3.14010
H        -10.01930        1.56790       -4.31920
H        -10.23780        3.61700       -5.66260
H         -7.48510        5.68280       -6.71720
H         -9.24540        5.50650       -6.71680
H         -8.62220        7.66510       -5.69100
H         -9.32360        6.61210       -4.45740
H         -7.57770        6.84580       -4.52850
H         -6.19830        4.63780       -4.75940
H          1.03770       -9.19350       -1.77550
H          0.93570      -11.57620       -1.16420
H          1.96690      -12.36530        0.92650
H          3.95470      -10.17640        3.18180
H          3.67700      -11.85680        2.69800
H          1.34880      -11.72460        3.59600
H          1.63300      -10.05290        4.08110
H          2.54020      -11.35970        4.84910
H          3.08840       -8.36990        1.88590
H         -1.70430        0.68440       -0.62970
H         -0.48830       -0.57940       -0.83360
H         -0.87390        1.97160       -2.49450
H          0.26250        0.71780       -2.97340
H          0.49560        1.58820       -1.45150
H          0.73310       -1.17740       -2.40540
H          1.83920       -2.08990       -1.35130
H          2.63820       -1.96990       -3.71910
H          2.32260       -3.63880       -3.24620
H          1.16030       -2.77690       -4.25890
H          9.01270       -8.64190        1.37910
H          6.43370       -8.11020        7.08730
H          6.72370       -8.27470        9.53940
H          8.18720       -8.66720       11.50600
H         11.54420       -9.25610        8.93820
H         11.28910       -9.09110        6.51650
