173

C         -6.16040       -2.90330        7.48160
C         -6.13910       -4.05630        8.18470
C         -6.09060       -5.41910        7.56500
O         -6.70130       -5.79500        6.58550
C         -5.43110       -6.26160        8.59000
C         -4.94030       -7.52910        8.48680
C         -4.34420       -8.13400        9.61710
C         -3.79710       -9.43200        9.55620
C         -3.21760      -10.00550       10.65350
C         -3.17370       -9.28220       11.85330
F         -2.59660       -9.86290       12.92180
C         -3.69050       -8.02250       11.96840
C         -4.29040       -7.41540       10.84690
C         -4.83010       -6.11220       10.93260
C         -5.38760       -5.54130        9.81890
C         -5.97810       -4.22190        9.61700
C         -6.32410       -3.32150       10.58620
C         -6.11610       -3.52560       11.96560
N         -5.96260       -3.64210       13.09710
C         -6.98870       -2.10750       10.31050
N         -7.55170       -1.12290       10.13470
C         -5.85690       -2.85210        6.07500
C         -6.35670       -1.83600        5.26550
O         -7.28470       -0.97040        5.79650
C         -8.64720       -1.34940        5.60490
C         -9.08980       -2.52560        6.46410
C         -5.93600       -1.69570        3.92190
O         -6.34040       -0.71180        3.08660
C         -6.72300        0.56810        3.57930
C         -6.43870        1.57930        2.47890
C         -5.08840       -2.65180        3.35120
C         -4.54900       -3.68030        4.16580
C         -4.91580       -3.77170        5.53320
N         -4.34330       -4.69870        6.31870
C         -3.49150       -5.53460        5.78870
C         -3.14180       -5.44750        4.42990
N         -3.63850       -4.52590        3.65250
C         -4.67480       -2.55470        1.97330
C         -4.42150       -3.58130        1.08340
C         -4.82530       -4.97050        1.28920
C         -6.02960       -5.27560        1.92140
C         -6.39610       -6.59260        2.11330
C         -5.58100       -7.61730        1.66250
C         -4.38710       -7.33290        1.01310
C         -3.52310       -8.43070        0.46130
C         -3.81120       -8.63060       -1.02790
C         -4.02020       -6.00820        0.83300
C         -3.77740       -3.09700       -0.07600
S         -3.13340       -3.87290       -1.50540
C         -2.51320       -2.34640       -2.03820
C         -1.69250       -1.82040       -3.05310
C         -1.12040       -2.38460       -4.21520
C         -0.26780       -1.57150       -5.04170
N          0.16880       -2.22150       -6.10820
S         -0.43590       -3.72380       -6.07970
N         -1.27490       -3.60610       -4.69990
C          0.08170       -0.27480       -4.60030
C          1.09550        0.60950       -5.00430
S          2.35240        0.70720       -6.19130
C          2.99990        2.10570       -5.36060
C          4.14200        2.90130       -5.57280
C          5.01300        2.77380       -6.73890
C          5.45410        3.90790       -7.41760
C          6.26130        3.77460       -8.52950
C          6.63090        2.51810       -8.97930
C          6.19010        1.37690       -8.32270
C          6.53240        0.00670       -8.83240
C          5.38490       -0.54250       -9.68250
C          5.37860        1.51730       -7.20730
C          4.26580        3.86650       -4.58420
S          2.91390        3.87520       -3.47030
C          2.24620        2.48130       -4.24540
C          1.14940        1.63340       -4.05270
N          0.18080        1.44120       -3.10440
C         -0.48880        0.27600       -3.41950
C         -1.48800       -0.45200       -2.73120
N         -2.23720       -0.13310       -1.61110
C         -2.82820       -1.29240       -1.17650
C         -3.55990       -1.71880       -0.06310
S         -4.20550       -0.98480        1.35900
C         -2.81810        1.15140       -1.28370
C         -4.30760        1.19390       -1.62400
C          0.21870        2.18870       -1.86820
C         -0.31450        3.61040       -2.04060
C          5.37650        4.72560       -4.29400
C          6.69560        4.35120       -4.54130
O          6.96060        3.10120       -5.04360
C          7.58680        2.20080       -4.13390
C          6.63370        1.74260       -3.03700
C          7.76230        5.23180       -4.26440
O          9.04520        4.88540       -4.57250
C          9.34750        4.51810       -5.91960
C          9.09740        5.66390       -6.88920
C          7.57510        6.44340       -3.58440
C          6.24000        6.79350       -3.22080
C          5.15830        5.94920       -3.59730
N          3.89870        6.26230       -3.26210
C          3.68200        7.35760       -2.58140
C          4.74470        8.19420       -2.21150
N          5.98390        7.91360       -2.52300
C          8.70440        7.26940       -3.26580
C          8.71700        8.51560       -2.65450
C          9.98470        9.04690       -2.47900
C         10.98820        8.21570       -2.95380
C         12.39670        8.39670       -2.95850
C         13.10760        9.44180       -2.40400
C         14.51550        9.47480       -2.48990
N         15.66010        9.51930       -2.54920
C         12.54400       10.53160       -1.71820
N         12.13100       11.43880       -1.14800
C         13.15500        7.38360       -3.60410
N         13.75370        6.56440       -4.13550
S         10.31630        6.75240       -3.63330
H         -6.29360       -1.94820        7.97220
H         -4.99650       -8.06590        7.55140
H         -3.84350       -9.97070        8.62150
H         -2.79410      -10.99690       10.62260
H         -3.64120       -7.49520       12.90820
H         -4.77850       -5.59030       11.87520
H         -9.20920       -0.45300        5.87890
H         -8.82280       -1.57470        4.54350
H         -8.91990       -2.30610        7.51530
H        -10.15240       -2.69430        6.30930
H         -8.55290       -3.43390        6.19870
H         -6.15710        0.81060        4.48360
H         -7.79140        0.57120        3.82150
H         -6.76420        2.56490        2.79810
H         -5.37540        1.60540        2.25770
H         -6.97320        1.30130        1.57480
H         -3.05280       -6.26850        6.45090
H         -2.42230       -6.12030        3.98510
H         -6.67670       -4.47850        2.25730
H         -7.32360       -6.82260        2.61640
H         -5.87630       -8.64570        1.81460
H         -2.46970       -8.17290        0.58990
H         -3.71640       -9.36260        0.99640
H         -3.61110       -7.71350       -1.57720
H         -3.18730       -9.42350       -1.43390
H         -4.85480       -8.89840       -1.17740
H         -3.08100       -5.78070        0.35150
H          5.15180        4.88740       -7.07500
H          6.60160        4.65510       -9.05560
H          7.26480        2.42360       -9.84940
H          7.44220        0.04890       -9.43430
H          6.70870       -0.66760       -7.99160
H          5.20170        0.10820      -10.53470
H          4.47220       -0.60020       -9.09380
H          5.62610       -1.53700      -10.05020
H          5.04520        0.63540       -6.68030
H         -2.31210        1.91760       -1.86380
H         -2.68100        1.34400       -0.21410
H         -4.46050        0.95320       -2.67400
H         -4.86690        0.48750       -1.01790
H         -4.69370        2.19180       -1.43390
H          1.26620        2.25070       -1.55160
H         -0.32930        1.64060       -1.10250
H         -1.31500        3.61640       -2.46720
H          0.33780        4.17370       -2.70230
H         -0.34220        4.11000       -1.07650
H          8.48270        2.65400       -3.69280
H          7.88470        1.35580       -4.75890
H          5.74570        1.29480       -3.47660
H          7.12850        1.00720       -2.40890
H          6.32970        2.58450       -2.41730
H         10.40890        4.26370       -5.88500
H          8.76780        3.64130       -6.22160
H          9.67580        6.53890       -6.60210
H          8.04070        5.92500       -6.90030
H          9.39190        5.35820       -7.88860
H          2.65590        7.57800       -2.32340
H          4.58440        9.10490       -1.65080
H          7.81260        9.00530       -2.34850
H         10.16670       10.00480       -2.02700
