190

C          5.27490       -5.94480       10.12580
C          6.47630       -5.32010       10.06700
C          7.38340       -5.35060       11.25010
O          7.28690       -6.06450       12.22060
C          8.37400       -4.28460       11.00230
C          9.34680       -3.80690       11.83230
C         10.16830       -2.74460       11.39270
C         11.18900       -2.21520       12.20870
C         11.97310       -1.18230       11.77570
C         11.74860       -0.65010       10.49870
F         12.52800        0.36810       10.09010
C         10.77390       -1.12620        9.66700
C          9.95860       -2.19190       10.09570
C          8.94890       -2.71320        9.25400
C          8.17210       -3.74930        9.69750
C          7.08840       -4.48580        9.05370
C          6.87500       -4.54570        7.70200
C          7.59640       -3.78750        6.75930
N          8.13760       -3.18240        5.94670
C          5.93390       -5.38440        7.07350
N          5.19430       -6.04200        6.49140
C          4.12840       -5.72500        9.29700
C          3.21750       -6.74500        9.05440
F          3.45550       -7.96100        9.56530
C          2.10520       -6.59030        8.22820
F          1.38650       -7.68930        7.95570
C          1.78150       -5.36770        7.65080
C          2.67130       -4.28280        7.92620
N          2.39000       -3.07610        7.41920
C          3.17440       -2.05400        7.65740
C          2.78390       -0.73590        7.05870
C          1.28050       -0.61710        6.83190
C          4.31850       -2.21870        8.48860
N          4.60400       -3.39350        8.99720
C          3.82390       -4.45260        8.72930
C          5.24080       -1.10260        8.87850
C          6.07780       -0.57940        7.71020
C          0.68240       -5.16950        6.75440
C         -0.55060       -5.80610        6.69620
C         -1.10290       -6.67900        7.73000
C         -1.82770       -7.81430        7.38140
C         -2.35850       -8.62120        8.36950
C         -2.17980       -8.30220        9.70340
C         -1.46910       -7.16510       10.06990
C         -1.31840       -6.79150       11.51700
C         -2.52570       -5.97820       11.98770
C         -0.94150       -6.35820        9.07580
C         -1.27760       -5.39530        5.56410
S         -2.87200       -5.79670        4.96480
C         -2.63920       -4.67920        3.66290
C         -3.33910       -4.16010        2.56110
C         -4.67340       -4.34020        2.13500
C         -5.16910       -3.54710        1.04570
N         -6.44990       -3.77260        0.79810
S         -6.98470       -4.89080        1.83970
N         -5.60370       -5.12870        2.64990
C         -4.27320       -2.70580        0.35050
C         -4.43240       -1.94150       -0.81680
S         -5.67550       -1.50190       -1.93980
C         -4.48300       -0.64000       -2.88180
C         -4.56930        0.09080       -4.08160
C         -5.81970        0.28330       -4.82530
C         -6.91310        0.87330       -4.20160
C         -8.07680        1.08770       -4.91610
C         -8.15690        0.71860       -6.24700
C         -7.08160        0.10720       -6.87870
C         -7.17600       -0.33130       -8.31150
C         -7.68710       -1.77020       -8.40160
C         -5.92280       -0.12070       -6.15220
C         -3.33810        0.60210       -4.44970
S         -2.06330        0.15340       -3.32270
C         -3.19660       -0.70480       -2.34130
C         -3.17060       -1.44160       -1.15150
N         -2.24600       -1.84580       -0.22640
C         -2.90300       -2.60570        0.72390
C         -2.46720       -3.23740        1.91660
N         -1.28100       -3.17530        2.63320
C         -1.39710       -4.04130        3.69060
C         -0.61650       -4.44450        4.77910
S          0.90910       -4.01320        5.45830
C         -0.34360       -2.07970        2.75570
C         -1.00290       -0.86800        3.41180
C         -0.83690       -1.75670       -0.53350
C         -0.27970       -0.35400       -0.29310
C         -2.99660        1.48420       -5.51280
C         -1.74330        1.94030       -5.81560
C         -1.70700        2.86610       -6.88400
C         -0.58850        3.49940       -7.46010
C          0.75910        3.31490       -6.96200
C          1.91840        3.25920       -7.68410
C          3.05140        3.11690       -6.86100
F          4.29430        3.01410       -7.36400
C          2.80210        3.07140       -5.52160
C          3.77430        2.95360       -4.39940
C          3.84370        4.24380       -3.58100
S          1.09910        3.20730       -5.25340
C         -0.83680        4.34620       -8.54130
C         -2.13540        4.55950       -9.07400
C         -3.25290        3.88340       -8.52750
C         -4.56620        3.97020       -9.12640
S         -6.01570        3.94620       -8.15720
C         -7.03510        3.98660       -9.55350
C         -8.51930        3.99290       -9.44350
C         -9.03400        5.21310       -8.67090
C         -8.68410        6.51830       -9.37320
C         -6.26500        4.01900      -10.67890
C         -4.87540        4.01070      -10.45910
F         -6.79250        4.04220      -11.91730
C         -3.00350        3.09220       -7.41620
S         -4.21530        2.18640       -6.55290
C         -2.11820        5.52510      -10.09480
C         -0.86580        6.03200      -10.36990
S          0.36270        5.30930       -9.35400
C         -0.62910        7.01640      -11.35680
C          0.53490        7.59450      -11.75410
C          0.55960        8.62100      -12.82150
O         -0.39180        9.05250      -13.43420
C          1.98340        9.00320      -12.97710
C          2.56240        9.91890      -13.83550
C          3.94000       10.08930      -13.77950
C          4.71540        9.36140      -12.88710
C          4.13710        8.44040      -12.02310
C          2.76640        8.26890      -12.07680
C          1.90510        7.36410      -11.27900
O          2.27580        6.59490      -10.41470
H          5.14960       -6.65160       10.94040
H          9.48800       -4.23320       12.81420
H         11.34290       -2.64170       13.18850
H         12.75780       -0.76630       12.38730
H         10.63330       -0.69580        8.68770
H          8.81110       -2.27180        8.28000
H          3.12620        0.07390        7.70510
H          3.29880       -0.63770        6.09810
H          1.04570        0.35220        6.39890
H          0.74810       -0.71590        7.77450
H          0.93860       -1.39880        6.16230
H          4.65890       -0.28190        9.30570
H          5.90450       -1.49020        9.65400
H          6.60580       -1.39260        7.21990
H          5.45970       -0.08180        6.96880
H          6.80990        0.13450        8.07940
H         -1.94920       -8.07490        6.34140
H         -2.91070       -9.50810        8.09670
H         -2.59180       -8.94140       10.47090
H         -0.40950       -6.20210       11.65600
H         -1.23470       -7.69530       12.12360
H         -2.61910       -5.06620       11.40200
H         -2.41850       -5.70900       13.03600
H         -3.43990       -6.55500       11.86850
H         -0.40000       -5.46110        9.34630
H         -6.84070        1.17730       -3.16810
H         -8.92340        1.55330       -4.43370
H         -9.06570        0.90350       -6.80210
H         -6.19220       -0.26620       -8.78090
H         -7.85570        0.32750       -8.85590
H         -7.01650       -2.44340       -7.87240
H         -8.67450       -1.84960       -7.95230
H         -7.75060       -2.08740       -9.43980
H         -5.08290       -0.61140       -6.62410
H          0.07370       -1.80560        1.79200
H          0.47480       -2.43970        3.38440
H         -1.37550       -1.13050        4.39910
H         -0.28080       -0.06280        3.51620
H         -1.84010       -0.51760        2.81130
H         -0.71430       -2.00010       -1.59520
H         -0.30450       -2.51810        0.03780
H         -0.71810        0.34460       -1.00050
H          0.79710       -0.35610       -0.43850
H         -0.50200       -0.00260        0.71050
H         -0.87220        1.60370       -5.28400
H          1.97760        3.28900       -8.75540
H          3.48080        2.12760       -3.74600
H          4.75640        2.72830       -4.82030
H          2.86900        4.47290       -3.15560
H          4.56220        4.13650       -2.77240
H          4.15100        5.07500       -4.21120
H         -8.93900        3.98830      -10.45210
H         -8.84570        3.08450       -8.92890
H         -8.59880        5.20530       -7.66900
H        -10.11770        5.13080       -8.56990
H         -9.08650        7.36540       -8.82340
H         -7.60520        6.63780       -9.44450
H         -9.09710        6.53290      -10.37950
H         -4.15530        3.98340      -11.25540
H         -2.99980        5.87620      -10.59980
H         -1.51790        7.36190      -11.87880
H          1.95250       10.48050      -14.52630
H          4.41630       10.79850      -14.44010
H          5.78430        9.51420      -12.86560
H          4.73130        7.86950      -11.32610
