
  xtb     02052219003D
 energy: -453.769939772802 gnorm: 0.000275411507 xtb: 6.4.1 (unknown)
276303  0     0  0            999 V2000
   -7.3878    4.5528   10.0701 C   0  0  0  0  0  0  0  0  0  0  0  0
   -7.0282    3.9755   11.2452 C   0  0  0  0  0  0  0  0  0  0  0  0
   -5.6534    4.0317   11.8225 C   0  0  0  0  0  0  0  0  0  0  0  0
   -4.7898    4.8535   11.6034 O   0  0  0  0  0  0  0  0  0  0  0  0
   -5.6405    3.0053   12.8851 C   0  0  0  0  0  0  0  0  0  0  0  0
   -4.5886    2.5524   13.6271 C   0  0  0  0  0  0  0  0  0  0  0  0
   -4.8085    1.5499   14.5979 C   0  0  0  0  0  0  0  0  0  0  0  0
   -3.7538    1.0303   15.3762 C   0  0  0  0  0  0  0  0  0  0  0  0
   -3.9805    0.0597   16.3117 C   0  0  0  0  0  0  0  0  0  0  0  0
   -5.2860   -0.4184   16.4903 C   0  0  0  0  0  0  0  0  0  0  0  0
   -5.4881   -1.3756   17.4144 F   0  0  0  0  0  0  0  0  0  0  0  0
   -6.3441    0.0502   15.7631 C   0  0  0  0  0  0  0  0  0  0  0  0
   -6.1288    1.0503   14.7941 C   0  0  0  0  0  0  0  0  0  0  0  0
   -7.2028    1.5529   14.0243 C   0  0  0  0  0  0  0  0  0  0  0  0
   -6.9628    2.5154   13.0788 C   0  0  0  0  0  0  0  0  0  0  0  0
   -7.8562    3.1815   12.1338 C   0  0  0  0  0  0  0  0  0  0  0  0
   -9.2170    3.0370   12.0874 C   0  0  0  0  0  0  0  0  0  0  0  0
   -9.9574    2.2263   12.9733 C   0  0  0  0  0  0  0  0  0  0  0  0
  -10.6150    1.5855   13.6624 N   0  0  0  0  0  0  0  0  0  0  0  0
  -10.0717    3.6868   11.1714 C   0  0  0  0  0  0  0  0  0  0  0  0
  -10.8310    4.1714   10.4600 N   0  0  0  0  0  0  0  0  0  0  0  0
   -6.4361    4.9501    9.0755 C   0  0  0  0  0  0  0  0  0  0  0  0
   -6.7064    5.9527    8.1540 C   0  0  0  0  0  0  0  0  0  0  0  0
   -7.8489    6.6455    8.2584 F   0  0  0  0  0  0  0  0  0  0  0  0
   -5.8136    6.2975    7.1400 C   0  0  0  0  0  0  0  0  0  0  0  0
   -6.1577    7.2941    6.3047 F   0  0  0  0  0  0  0  0  0  0  0  0
   -4.5785    5.6785    6.9960 C   0  0  0  0  0  0  0  0  0  0  0  0
   -4.2877    4.6101    7.9012 C   0  0  0  0  0  0  0  0  0  0  0  0
   -3.1378    3.9307    7.7759 N   0  0  0  0  0  0  0  0  0  0  0  0
   -2.8967    2.8981    8.5421 C   0  0  0  0  0  0  0  0  0  0  0  0
   -1.5507    2.2584    8.3891 C   0  0  0  0  0  0  0  0  0  0  0  0
   -0.5842    2.8162    9.4365 C   0  0  0  0  0  0  0  0  0  0  0  0
   -3.8856    2.4391    9.4567 C   0  0  0  0  0  0  0  0  0  0  0  0
   -4.9992    3.1089    9.6071 N   0  0  0  0  0  0  0  0  0  0  0  0
   -5.2211    4.2223    8.8924 C   0  0  0  0  0  0  0  0  0  0  0  0
   -3.7724    1.1519   10.2164 C   0  0  0  0  0  0  0  0  0  0  0  0
   -4.2766   -0.0118    9.3589 C   0  0  0  0  0  0  0  0  0  0  0  0
   -3.6502    6.0060    5.9548 C   0  0  0  0  0  0  0  0  0  0  0  0
   -4.2240    6.4437    4.3526 S   0  0  0  0  0  0  0  0  0  0  0  0
   -2.6254    6.3375    3.7483 C   0  0  0  0  0  0  0  0  0  0  0  0
   -1.9755    6.2857    2.4926 C   0  0  0  0  0  0  0  0  0  0  0  0
   -0.6305    5.9796    2.6922 C   0  0  0  0  0  0  0  0  0  0  0  0
   -0.3092    5.8910    4.1665 C   0  0  0  0  0  0  0  0  0  0  0  0
   -1.6917    6.0721    4.7516 C   0  0  0  0  0  0  0  0  0  0  0  0
   -2.2742    5.8672    5.9933 C   0  0  0  0  0  0  0  0  0  0  0  0
    0.6704    6.9950    4.5141 C   0  0  0  0  0  0  0  0  0  0  0  0
    0.2793    8.1357    5.1987 C   0  0  0  0  0  0  0  0  0  0  0  0
    1.1988    9.1307    5.4786 C   0  0  0  0  0  0  0  0  0  0  0  0
    2.5230    9.0141    5.0793 C   0  0  0  0  0  0  0  0  0  0  0  0
    3.5058   10.1163    5.3506 C   0  0  0  0  0  0  0  0  0  0  0  0
    3.4711   11.1524    4.2253 C   0  0  0  0  0  0  0  0  0  0  0  0
    2.9052    7.8736    4.3836 C   0  0  0  0  0  0  0  0  0  0  0  0
    1.9928    6.8751    4.1044 C   0  0  0  0  0  0  0  0  0  0  0  0
    0.1862    4.5270    4.6081 C   0  0  0  0  0  0  0  0  0  0  0  0
    0.9164    4.4034    5.7823 C   0  0  0  0  0  0  0  0  0  0  0  0
    1.2898    3.1565    6.2472 C   0  0  0  0  0  0  0  0  0  0  0  0
    0.9287    2.0024    5.5649 C   0  0  0  0  0  0  0  0  0  0  0  0
    1.3371    0.6463    6.0654 C   0  0  0  0  0  0  0  0  0  0  0  0
    2.5862    0.1544    5.3333 C   0  0  0  0  0  0  0  0  0  0  0  0
    0.1996    2.1323    4.3901 C   0  0  0  0  0  0  0  0  0  0  0  0
   -0.1712    3.3771    3.9178 C   0  0  0  0  0  0  0  0  0  0  0  0
    0.0187    5.7215    1.4891 C   0  0  0  0  0  0  0  0  0  0  0  0
    1.5917    5.1219    1.0522 S   0  0  0  0  0  0  0  0  0  0  0  0
    1.0352    4.8892   -0.5735 C   0  0  0  0  0  0  0  0  0  0  0  0
    1.5131    4.1428   -1.6948 C   0  0  0  0  0  0  0  0  0  0  0  0
    2.6855    3.4099   -1.8715 C   0  0  0  0  0  0  0  0  0  0  0  0
    2.7145    2.5234   -2.9211 C   0  0  0  0  0  0  0  0  0  0  0  0
    3.7725    1.4765   -3.2306 C   0  0  0  0  0  0  0  0  0  0  0  0
    4.2860    0.8426   -1.9574 C   0  0  0  0  0  0  0  0  0  0  0  0
    3.5313   -0.1199   -1.3012 C   0  0  0  0  0  0  0  0  0  0  0  0
    3.9803   -0.6772   -0.1179 C   0  0  0  0  0  0  0  0  0  0  0  0
    5.1901   -0.2880    0.4399 C   0  0  0  0  0  0  0  0  0  0  0  0
    5.6731   -0.8633    1.7406 C   0  0  0  0  0  0  0  0  0  0  0  0
    5.5226    0.1557    2.8711 C   0  0  0  0  0  0  0  0  0  0  0  0
    5.9338    0.6867   -0.2132 C   0  0  0  0  0  0  0  0  0  0  0  0
    5.4871    1.2509   -1.3921 C   0  0  0  0  0  0  0  0  0  0  0  0
    4.9033    2.0148   -4.0941 C   0  0  0  0  0  0  0  0  0  0  0  0
    4.9512    3.3325   -4.5220 C   0  0  0  0  0  0  0  0  0  0  0  0
    5.9838    3.7650   -5.3359 C   0  0  0  0  0  0  0  0  0  0  0  0
    6.9869    2.8970   -5.7428 C   0  0  0  0  0  0  0  0  0  0  0  0
    8.0787    3.3579   -6.6647 C   0  0  0  0  0  0  0  0  0  0  0  0
    7.6719    3.1414   -8.1237 C   0  0  0  0  0  0  0  0  0  0  0  0
    6.9302    1.5759   -5.3145 C   0  0  0  0  0  0  0  0  0  0  0  0
    5.9032    1.1388   -4.5023 C   0  0  0  0  0  0  0  0  0  0  0  0
    2.9783    0.5462   -4.1121 C   0  0  0  0  0  0  0  0  0  0  0  0
    1.7924    1.1504   -4.4979 C   0  0  0  0  0  0  0  0  0  0  0  0
    1.5953    2.3668   -3.7742 C   0  0  0  0  0  0  0  0  0  0  0  0
    0.4786    3.1932   -3.6759 C   0  0  0  0  0  0  0  0  0  0  0  0
    0.4509    4.0826   -2.6284 C   0  0  0  0  0  0  0  0  0  0  0  0
   -0.7137    4.9498   -2.1786 C   0  0  0  0  0  0  0  0  0  0  0  0
   -1.9963    4.1455   -2.2332 C   0  0  0  0  0  0  0  0  0  0  0  0
   -2.3564    3.3059   -1.1882 C   0  0  0  0  0  0  0  0  0  0  0  0
   -3.5122    2.5506   -1.2597 C   0  0  0  0  0  0  0  0  0  0  0  0
   -4.3275    2.5987   -2.3823 C   0  0  0  0  0  0  0  0  0  0  0  0
   -5.6133    1.8257   -2.4384 C   0  0  0  0  0  0  0  0  0  0  0  0
   -6.7678    2.6783   -1.9080 C   0  0  0  0  0  0  0  0  0  0  0  0
   -3.9491    3.4201   -3.4362 C   0  0  0  0  0  0  0  0  0  0  0  0
   -2.7989    4.1826   -3.3661 C   0  0  0  0  0  0  0  0  0  0  0  0
   -0.8332    6.2507   -2.9543 C   0  0  0  0  0  0  0  0  0  0  0  0
   -1.8850    7.1102   -2.6586 C   0  0  0  0  0  0  0  0  0  0  0  0
   -2.0122    8.3156   -3.3194 C   0  0  0  0  0  0  0  0  0  0  0  0
   -1.0941    8.6959   -4.2910 C   0  0  0  0  0  0  0  0  0  0  0  0
   -1.2107   10.0255   -4.9788 C   0  0  0  0  0  0  0  0  0  0  0  0
   -0.4591   11.1013   -4.1922 C   0  0  0  0  0  0  0  0  0  0  0  0
   -0.0416    7.8374   -4.5753 C   0  0  0  0  0  0  0  0  0  0  0  0
    0.0921    6.6286   -3.9151 C   0  0  0  0  0  0  0  0  0  0  0  0
   -0.2708    5.2980   -0.7813 C   0  0  0  0  0  0  0  0  0  0  0  0
   -0.8513    5.7979    0.3818 C   0  0  0  0  0  0  0  0  0  0  0  0
   -2.4598    6.2824    0.8292 S   0  0  0  0  0  0  0  0  0  0  0  0
    0.7669    0.1390   -5.4605 S   0  0  0  0  0  0  0  0  0  0  0  0
    1.9098   -1.1582   -5.2804 C   0  0  0  0  0  0  0  0  0  0  0  0
    1.8924   -2.5198   -5.5552 C   0  0  0  0  0  0  0  0  0  0  0  0
    3.0159   -3.1626   -5.0335 C   0  0  0  0  0  0  0  0  0  0  0  0
    4.1423   -2.0942   -4.2609 S   0  0  0  0  0  0  0  0  0  0  0  0
    3.0601   -0.7672   -4.5608 C   0  0  0  0  0  0  0  0  0  0  0  0
    2.8597   -4.5560   -5.1729 C   0  0  0  0  0  0  0  0  0  0  0  0
    3.6830   -5.9882   -4.7048 S   0  0  0  0  0  0  0  0  0  0  0  0
    2.3650   -6.9542   -5.3504 C   0  0  0  0  0  0  0  0  0  0  0  0
    1.3541   -6.1616   -5.8939 C   0  0  0  0  0  0  0  0  0  0  0  0
    1.6184   -4.8123   -5.7719 C   0  0  0  0  0  0  0  0  0  0  0  0
    0.8907   -3.5221   -6.0792 C   0  0  0  0  0  0  0  0  0  0  0  0
   -0.3677   -3.3069   -5.2539 C   0  0  0  0  0  0  0  0  0  0  0  0
   -0.5707   -3.9717   -4.0531 C   0  0  0  0  0  0  0  0  0  0  0  0
   -1.6643   -3.6678   -3.2634 C   0  0  0  0  0  0  0  0  0  0  0  0
   -2.5716   -2.6875   -3.6433 C   0  0  0  0  0  0  0  0  0  0  0  0
   -3.7088   -2.3073   -2.7398 C   0  0  0  0  0  0  0  0  0  0  0  0
   -3.2508   -1.2548   -1.7277 C   0  0  0  0  0  0  0  0  0  0  0  0
   -2.3655   -2.0295   -4.8485 C   0  0  0  0  0  0  0  0  0  0  0  0
   -1.2790   -2.3343   -5.6460 C   0  0  0  0  0  0  0  0  0  0  0  0
    0.6131   -3.4387   -7.5643 C   0  0  0  0  0  0  0  0  0  0  0  0
    1.3956   -2.6724   -8.4142 C   0  0  0  0  0  0  0  0  0  0  0  0
    1.1299   -2.6451   -9.7718 C   0  0  0  0  0  0  0  0  0  0  0  0
    0.0887   -3.3873  -10.3109 C   0  0  0  0  0  0  0  0  0  0  0  0
   -0.2273   -3.3212  -11.7772 C   0  0  0  0  0  0  0  0  0  0  0  0
   -1.2598   -2.2258  -12.0512 C   0  0  0  0  0  0  0  0  0  0  0  0
   -0.6880   -4.1576   -9.4536 C   0  0  0  0  0  0  0  0  0  0  0  0
   -0.4303   -4.1857   -8.0976 C   0  0  0  0  0  0  0  0  0  0  0  0
    2.4026   -8.3666   -5.2171 C   0  0  0  0  0  0  0  0  0  0  0  0
    1.4624   -9.2494   -5.7561 C   0  0  0  0  0  0  0  0  0  0  0  0
    0.4278   -8.7894   -6.4850 F   0  0  0  0  0  0  0  0  0  0  0  0
    1.5566  -10.6261   -5.5921 C   0  0  0  0  0  0  0  0  0  0  0  0
    0.6294  -11.3947   -6.1840 F   0  0  0  0  0  0  0  0  0  0  0  0
    2.5912  -11.2444   -4.8917 C   0  0  0  0  0  0  0  0  0  0  0  0
    3.5287  -10.3743   -4.2571 C   0  0  0  0  0  0  0  0  0  0  0  0
    4.4225  -10.8605   -3.3878 N   0  0  0  0  0  0  0  0  0  0  0  0
    5.3055  -10.0663   -2.8335 C   0  0  0  0  0  0  0  0  0  0  0  0
    6.2293  -10.7082   -1.8432 C   0  0  0  0  0  0  0  0  0  0  0  0
    7.5938  -11.0019   -2.4689 C   0  0  0  0  0  0  0  0  0  0  0  0
    5.3346   -8.6838   -3.1651 C   0  0  0  0  0  0  0  0  0  0  0  0
    4.3823   -8.1886   -3.9177 N   0  0  0  0  0  0  0  0  0  0  0  0
    3.4532   -8.9776   -4.4598 C   0  0  0  0  0  0  0  0  0  0  0  0
    6.3732   -7.7118   -2.7003 C   0  0  0  0  0  0  0  0  0  0  0  0
    7.3034   -7.3533   -3.8623 C   0  0  0  0  0  0  0  0  0  0  0  0
    2.6481  -12.6569   -4.7248 C   0  0  0  0  0  0  0  0  0  0  0  0
    3.8096  -13.3612   -4.5828 C   0  0  0  0  0  0  0  0  0  0  0  0
    5.1292  -12.8864   -5.0650 C   0  0  0  0  0  0  0  0  0  0  0  0
    5.3850  -11.8679   -5.6673 O   0  0  0  0  0  0  0  0  0  0  0  0
    6.0643  -14.0076   -4.8010 C   0  0  0  0  0  0  0  0  0  0  0  0
    5.3593  -15.0932   -4.2501 C   0  0  0  0  0  0  0  0  0  0  0  0
    6.0275  -16.2653   -3.9322 C   0  0  0  0  0  0  0  0  0  0  0  0
    7.3934  -16.3355   -4.1616 C   0  0  0  0  0  0  0  0  0  0  0  0
    8.0840  -15.2654   -4.7094 C   0  0  0  0  0  0  0  0  0  0  0  0
    9.9468  -15.4197   -4.9921 Br  0  0  0  0  0  0  0  0  0  0  0  0
    7.4245  -14.0806   -5.0523 C   0  0  0  0  0  0  0  0  0  0  0  0
    8.2735  -12.7687   -5.7586 Cl  0  0  0  0  0  0  0  0  0  0  0  0
    3.9534  -14.7192   -4.1118 C   0  0  0  0  0  0  0  0  0  0  0  0
    2.9744  -15.4976   -3.5492 C   0  0  0  0  0  0  0  0  0  0  0  0
    3.1750  -16.8129   -3.0827 C   0  0  0  0  0  0  0  0  0  0  0  0
    3.2737  -17.8877   -2.6907 N   0  0  0  0  0  0  0  0  0  0  0  0
    1.6406  -15.0895   -3.3353 C   0  0  0  0  0  0  0  0  0  0  0  0
    0.5468  -14.8304   -3.1014 N   0  0  0  0  0  0  0  0  0  0  0  0
   -8.4313    4.6630    9.8052 H   0  0  0  0  0  0  0  0  0  0  0  0
   -3.5961    2.9471   13.4672 H   0  0  0  0  0  0  0  0  0  0  0  0
   -2.7570    1.4155   15.2217 H   0  0  0  0  0  0  0  0  0  0  0  0
   -3.1853   -0.3475   16.9160 H   0  0  0  0  0  0  0  0  0  0  0  0
   -7.3362   -0.3399   15.9281 H   0  0  0  0  0  0  0  0  0  0  0  0
   -8.1900    1.1570   14.1999 H   0  0  0  0  0  0  0  0  0  0  0  0
   -1.1732    2.4937    7.3930 H   0  0  0  0  0  0  0  0  0  0  0  0
   -1.6243    1.1759    8.4925 H   0  0  0  0  0  0  0  0  0  0  0  0
    0.3869    2.3378    9.3398 H   0  0  0  0  0  0  0  0  0  0  0  0
   -0.4601    3.8867    9.2961 H   0  0  0  0  0  0  0  0  0  0  0  0
   -0.9582    2.6447   10.4436 H   0  0  0  0  0  0  0  0  0  0  0  0
   -4.3907    1.2279   11.1116 H   0  0  0  0  0  0  0  0  0  0  0  0
   -2.7401    0.9729   10.5163 H   0  0  0  0  0  0  0  0  0  0  0  0
   -4.2005   -0.9441    9.9128 H   0  0  0  0  0  0  0  0  0  0  0  0
   -5.3177    0.1486    9.0898 H   0  0  0  0  0  0  0  0  0  0  0  0
   -3.6959   -0.1019    8.4433 H   0  0  0  0  0  0  0  0  0  0  0  0
   -1.7435    5.6165    6.8912 H   0  0  0  0  0  0  0  0  0  0  0  0
   -0.7451    8.2481    5.5215 H   0  0  0  0  0  0  0  0  0  0  0  0
    0.8806   10.0102    6.0200 H   0  0  0  0  0  0  0  0  0  0  0  0
    4.5134    9.7033    5.4287 H   0  0  0  0  0  0  0  0  0  0  0  0
    3.2620   10.6049    6.2962 H   0  0  0  0  0  0  0  0  0  0  0  0
    2.4772   11.5862    4.1412 H   0  0  0  0  0  0  0  0  0  0  0  0
    3.7220   10.6867    3.2748 H   0  0  0  0  0  0  0  0  0  0  0  0
    4.1834   11.9506    4.4207 H   0  0  0  0  0  0  0  0  0  0  0  0
    3.9304    7.7637    4.0600 H   0  0  0  0  0  0  0  0  0  0  0  0
    2.3085    5.9892    3.5723 H   0  0  0  0  0  0  0  0  0  0  0  0
    1.1932    5.2880    6.3367 H   0  0  0  0  0  0  0  0  0  0  0  0
    1.8611    3.0801    7.1612 H   0  0  0  0  0  0  0  0  0  0  0  0
    1.5419    0.6935    7.1367 H   0  0  0  0  0  0  0  0  0  0  0  0
    0.5239   -0.0654    5.9047 H   0  0  0  0  0  0  0  0  0  0  0  0
    2.8854   -0.8240    5.7020 H   0  0  0  0  0  0  0  0  0  0  0  0
    3.4095    0.8494    5.4827 H   0  0  0  0  0  0  0  0  0  0  0  0
    2.3905    0.0781    4.2662 H   0  0  0  0  0  0  0  0  0  0  0  0
   -0.0923    1.2472    3.8429 H   0  0  0  0  0  0  0  0  0  0  0  0
   -0.7525    3.4505    3.0102 H   0  0  0  0  0  0  0  0  0  0  0  0
    3.4999    3.4817   -1.1664 H   0  0  0  0  0  0  0  0  0  0  0  0
    2.5837   -0.4340   -1.7159 H   0  0  0  0  0  0  0  0  0  0  0  0
    3.3808   -1.4284    0.3767 H   0  0  0  0  0  0  0  0  0  0  0  0
    6.7248   -1.1454    1.6498 H   0  0  0  0  0  0  0  0  0  0  0  0
    5.1006   -1.7606    1.9830 H   0  0  0  0  0  0  0  0  0  0  0  0
    6.1330    1.0343    2.6771 H   0  0  0  0  0  0  0  0  0  0  0  0
    5.8309   -0.2784    3.8193 H   0  0  0  0  0  0  0  0  0  0  0  0
    4.4865    0.4743    2.9550 H   0  0  0  0  0  0  0  0  0  0  0  0
    6.8772    1.0072    0.2050 H   0  0  0  0  0  0  0  0  0  0  0  0
    6.0799    2.0110   -1.8798 H   0  0  0  0  0  0  0  0  0  0  0  0
    4.1837    4.0286   -4.2173 H   0  0  0  0  0  0  0  0  0  0  0  0
    6.0092    4.7968   -5.6569 H   0  0  0  0  0  0  0  0  0  0  0  0
    8.9951    2.8004   -6.4608 H   0  0  0  0  0  0  0  0  0  0  0  0
    8.2797    4.4185   -6.5008 H   0  0  0  0  0  0  0  0  0  0  0  0
    6.7668    3.7005   -8.3509 H   0  0  0  0  0  0  0  0  0  0  0  0
    8.4625    3.4727   -8.7928 H   0  0  0  0  0  0  0  0  0  0  0  0
    7.4778    2.0874   -8.3097 H   0  0  0  0  0  0  0  0  0  0  0  0
    7.7005    0.8823   -5.6197 H   0  0  0  0  0  0  0  0  0  0  0  0
    5.8786    0.1105   -4.1711 H   0  0  0  0  0  0  0  0  0  0  0  0
   -0.3592    3.0787   -4.3468 H   0  0  0  0  0  0  0  0  0  0  0  0
   -1.7297    3.2383   -0.3104 H   0  0  0  0  0  0  0  0  0  0  0  0
   -3.7818    1.9119   -0.4307 H   0  0  0  0  0  0  0  0  0  0  0  0
   -5.5298    0.9193   -1.8364 H   0  0  0  0  0  0  0  0  0  0  0  0
   -5.8256    1.5340   -3.4691 H   0  0  0  0  0  0  0  0  0  0  0  0
   -6.5790    2.9708   -0.8775 H   0  0  0  0  0  0  0  0  0  0  0  0
   -6.8765    3.5815   -2.5042 H   0  0  0  0  0  0  0  0  0  0  0  0
   -7.7014    2.1219   -1.9464 H   0  0  0  0  0  0  0  0  0  0  0  0
   -4.5633    3.4645   -4.3245 H   0  0  0  0  0  0  0  0  0  0  0  0
   -2.5259    4.8181   -4.1962 H   0  0  0  0  0  0  0  0  0  0  0  0
   -2.6128    6.8252   -1.9123 H   0  0  0  0  0  0  0  0  0  0  0  0
   -2.8381    8.9699   -3.0801 H   0  0  0  0  0  0  0  0  0  0  0  0
   -0.7945    9.9596   -5.9861 H   0  0  0  0  0  0  0  0  0  0  0  0
   -2.2619   10.3088   -5.0607 H   0  0  0  0  0  0  0  0  0  0  0  0
   -0.8675   11.1900   -3.1880 H   0  0  0  0  0  0  0  0  0  0  0  0
   -0.5440   12.0651   -4.6886 H   0  0  0  0  0  0  0  0  0  0  0  0
    0.5946   10.8436   -4.1107 H   0  0  0  0  0  0  0  0  0  0  0  0
    0.6842    8.1145   -5.3268 H   0  0  0  0  0  0  0  0  0  0  0  0
    0.9189    5.9764   -4.1558 H   0  0  0  0  0  0  0  0  0  0  0  0
    0.4595   -6.5639   -6.3292 H   0  0  0  0  0  0  0  0  0  0  0  0
    0.1289   -4.7281   -3.7285 H   0  0  0  0  0  0  0  0  0  0  0  0
   -1.8098   -4.1968   -2.3321 H   0  0  0  0  0  0  0  0  0  0  0  0
   -4.5348   -1.9047   -3.3289 H   0  0  0  0  0  0  0  0  0  0  0  0
   -4.0669   -3.1892   -2.2045 H   0  0  0  0  0  0  0  0  0  0  0  0
   -2.9359   -0.3464   -2.2374 H   0  0  0  0  0  0  0  0  0  0  0  0
   -2.4111   -1.6296   -1.1464 H   0  0  0  0  0  0  0  0  0  0  0  0
   -4.0603   -1.0086   -1.0443 H   0  0  0  0  0  0  0  0  0  0  0  0
   -3.0587   -1.2632   -5.1643 H   0  0  0  0  0  0  0  0  0  0  0  0
   -1.1341   -1.8112   -6.5800 H   0  0  0  0  0  0  0  0  0  0  0  0
    2.2158   -2.0915   -8.0177 H   0  0  0  0  0  0  0  0  0  0  0  0
    1.7458   -2.0394  -10.4213 H   0  0  0  0  0  0  0  0  0  0  0  0
   -0.6240   -4.2812  -12.1133 H   0  0  0  0  0  0  0  0  0  0  0  0
    0.6817   -3.1094  -12.3436 H   0  0  0  0  0  0  0  0  0  0  0  0
   -0.8778   -1.2580  -11.7337 H   0  0  0  0  0  0  0  0  0  0  0  0
   -2.1784   -2.4265  -11.5043 H   0  0  0  0  0  0  0  0  0  0  0  0
   -1.4909   -2.1773  -13.1127 H   0  0  0  0  0  0  0  0  0  0  0  0
   -1.5020   -4.7446   -9.8541 H   0  0  0  0  0  0  0  0  0  0  0  0
   -1.0477   -4.7830   -7.4427 H   0  0  0  0  0  0  0  0  0  0  0  0
    5.7701  -11.6475   -1.5303 H   0  0  0  0  0  0  0  0  0  0  0  0
    6.3489  -10.0688   -0.9666 H   0  0  0  0  0  0  0  0  0  0  0  0
    8.2033  -11.5813   -1.7798 H   0  0  0  0  0  0  0  0  0  0  0  0
    8.1229  -10.0838   -2.7092 H   0  0  0  0  0  0  0  0  0  0  0  0
    7.4644  -11.5733   -3.3835 H   0  0  0  0  0  0  0  0  0  0  0  0
    5.8665   -6.8034   -2.3694 H   0  0  0  0  0  0  0  0  0  0  0  0
    6.9480   -8.1206   -1.8708 H   0  0  0  0  0  0  0  0  0  0  0  0
    6.7292   -6.8964   -4.6637 H   0  0  0  0  0  0  0  0  0  0  0  0
    8.0636   -6.6510   -3.5298 H   0  0  0  0  0  0  0  0  0  0  0  0
    7.7947   -8.2416   -4.2530 H   0  0  0  0  0  0  0  0  0  0  0  0
    1.6982  -13.1758   -4.7026 H   0  0  0  0  0  0  0  0  0  0  0  0
    5.5149  -17.1166   -3.5167 H   0  0  0  0  0  0  0  0  0  0  0  0
    7.9336  -17.2366   -3.9155 H   0  0  0  0  0  0  0  0  0  0  0  0
  1  2  2  0  0  0  0
  2  3  1  0  0  0  0
  3  4  2  0  0  0  0
  3  5  1  0  0  0  0
  5  6  2  0  0  0  0
  6  7  1  0  0  0  0
  7  8  2  0  0  0  0
  8  9  1  0  0  0  0
  9 10  2  0  0  0  0
 10 11  1  0  0  0  0
 10 12  1  0  0  0  0
 12 13  2  0  0  0  0
 13 14  1  0  0  0  0
 14 15  2  0  0  0  0
 15 16  1  0  0  0  0
 16 17  2  0  0  0  0
 17 18  1  0  0  0  0
 18 19  3  0  0  0  0
 17 20  1  0  0  0  0
 20 21  3  0  0  0  0
  1 22  1  0  0  0  0
 22 23  2  0  0  0  0
 23 24  1  0  0  0  0
 23 25  1  0  0  0  0
 25 26  1  0  0  0  0
 25 27  2  0  0  0  0
 27 28  1  0  0  0  0
 28 29  2  0  0  0  0
 29 30  1  0  0  0  0
 30 31  1  0  0  0  0
 31 32  1  0  0  0  0
 30 33  2  0  0  0  0
 33 34  1  0  0  0  0
 34 35  2  0  0  0  0
 33 36  1  0  0  0  0
 36 37  1  0  0  0  0
 27 38  1  0  0  0  0
 38 39  1  0  0  0  0
 39 40  1  0  0  0  0
 40 41  1  0  0  0  0
 41 42  2  0  0  0  0
 42 43  1  0  0  0  0
 43 44  1  0  0  0  0
 44 45  1  0  0  0  0
 43 46  1  0  0  0  0
 46 47  2  0  0  0  0
 47 48  1  0  0  0  0
 48 49  2  0  0  0  0
 49 50  1  0  0  0  0
 50 51  1  0  0  0  0
 49 52  1  0  0  0  0
 52 53  2  0  0  0  0
 43 54  1  0  0  0  0
 54 55  2  0  0  0  0
 55 56  1  0  0  0  0
 56 57  2  0  0  0  0
 57 58  1  0  0  0  0
 58 59  1  0  0  0  0
 57 60  1  0  0  0  0
 60 61  2  0  0  0  0
 42 62  1  0  0  0  0
 62 63  1  0  0  0  0
 63 64  1  0  0  0  0
 64 65  1  0  0  0  0
 65 66  2  0  0  0  0
 66 67  1  0  0  0  0
 67 68  1  0  0  0  0
 68 69  1  0  0  0  0
 69 70  2  0  0  0  0
 70 71  1  0  0  0  0
 71 72  2  0  0  0  0
 72 73  1  0  0  0  0
 73 74  1  0  0  0  0
 72 75  1  0  0  0  0
 75 76  2  0  0  0  0
 68 77  1  0  0  0  0
 77 78  2  0  0  0  0
 78 79  1  0  0  0  0
 79 80  2  0  0  0  0
 80 81  1  0  0  0  0
 81 82  1  0  0  0  0
 80 83  1  0  0  0  0
 83 84  2  0  0  0  0
 68 85  1  0  0  0  0
 85 86  2  0  0  0  0
 86 87  1  0  0  0  0
 87 88  1  0  0  0  0
 88 89  2  0  0  0  0
 89 90  1  0  0  0  0
 90 91  1  0  0  0  0
 91 92  2  0  0  0  0
 92 93  1  0  0  0  0
 93 94  2  0  0  0  0
 94 95  1  0  0  0  0
 95 96  1  0  0  0  0
 94 97  1  0  0  0  0
 97 98  2  0  0  0  0
 90 99  1  0  0  0  0
 99100  2  0  0  0  0
100101  1  0  0  0  0
101102  2  0  0  0  0
102103  1  0  0  0  0
103104  1  0  0  0  0
102105  1  0  0  0  0
105106  2  0  0  0  0
 90107  1  0  0  0  0
107108  1  0  0  0  0
108109  1  0  0  0  0
 86110  1  0  0  0  0
110111  1  0  0  0  0
111112  1  0  0  0  0
112113  2  0  0  0  0
113114  1  0  0  0  0
114115  1  0  0  0  0
113116  1  0  0  0  0
116117  1  0  0  0  0
117118  1  0  0  0  0
118119  2  0  0  0  0
119120  1  0  0  0  0
120121  1  0  0  0  0
121122  1  0  0  0  0
122123  2  0  0  0  0
123124  1  0  0  0  0
124125  2  0  0  0  0
125126  1  0  0  0  0
126127  1  0  0  0  0
125128  1  0  0  0  0
128129  2  0  0  0  0
121130  1  0  0  0  0
130131  2  0  0  0  0
131132  1  0  0  0  0
132133  2  0  0  0  0
133134  1  0  0  0  0
134135  1  0  0  0  0
133136  1  0  0  0  0
136137  2  0  0  0  0
118138  1  0  0  0  0
138139  2  0  0  0  0
139140  1  0  0  0  0
139141  1  0  0  0  0
141142  1  0  0  0  0
141143  2  0  0  0  0
143144  1  0  0  0  0
144145  2  0  0  0  0
145146  1  0  0  0  0
146147  1  0  0  0  0
147148  1  0  0  0  0
146149  2  0  0  0  0
149150  1  0  0  0  0
150151  2  0  0  0  0
149152  1  0  0  0  0
152153  1  0  0  0  0
143154  1  0  0  0  0
154155  2  0  0  0  0
155156  1  0  0  0  0
156157  2  0  0  0  0
156158  1  0  0  0  0
158159  2  0  0  0  0
159160  1  0  0  0  0
160161  2  0  0  0  0
161162  1  0  0  0  0
162163  1  0  0  0  0
162164  2  0  0  0  0
164165  1  0  0  0  0
159166  1  0  0  0  0
166167  2  0  0  0  0
167168  1  0  0  0  0
168169  3  0  0  0  0
167170  1  0  0  0  0
170171  3  0  0  0  0
 16  2  1  0  0  0  0
 35 22  1  0  0  0  0
 45 38  2  0  0  0  0
 53 46  1  0  0  0  0
 61 54  1  0  0  0  0
108 62  2  0  0  0  0
115111  2  0  0  0  0
120116  2  0  0  0  0
129122  1  0  0  0  0
137130  1  0  0  0  0
151138  1  0  0  0  0
166155  1  0  0  0  0
 15  5  1  0  0  0  0
 35 28  1  0  0  0  0
 44 40  2  0  0  0  0
107 64  2  0  0  0  0
121112  1  0  0  0  0
151144  1  0  0  0  0
164158  1  0  0  0  0
 13  7  1  0  0  0  0
109 41  1  0  0  0  0
 89 65  1  0  0  0  0
 98 91  1  0  0  0  0
106 99  1  0  0  0  0
 87 67  2  0  0  0  0
 76 69  1  0  0  0  0
 84 77  1  0  0  0  0
115 85  1  0  0  0  0
  1172  1  0  0  0  0
  6173  1  0  0  0  0
  8174  1  0  0  0  0
  9175  1  0  0  0  0
 12176  1  0  0  0  0
 14177  1  0  0  0  0
 31178  1  0  0  0  0
 31179  1  0  0  0  0
 32180  1  0  0  0  0
 32181  1  0  0  0  0
 32182  1  0  0  0  0
 36183  1  0  0  0  0
 36184  1  0  0  0  0
 37185  1  0  0  0  0
 37186  1  0  0  0  0
 37187  1  0  0  0  0
 45188  1  0  0  0  0
 47189  1  0  0  0  0
 48190  1  0  0  0  0
 50191  1  0  0  0  0
 50192  1  0  0  0  0
 51193  1  0  0  0  0
 51194  1  0  0  0  0
 51195  1  0  0  0  0
 52196  1  0  0  0  0
 53197  1  0  0  0  0
 55198  1  0  0  0  0
 56199  1  0  0  0  0
 58200  1  0  0  0  0
 58201  1  0  0  0  0
 59202  1  0  0  0  0
 59203  1  0  0  0  0
 59204  1  0  0  0  0
 60205  1  0  0  0  0
 61206  1  0  0  0  0
 66207  1  0  0  0  0
 70208  1  0  0  0  0
 71209  1  0  0  0  0
 73210  1  0  0  0  0
 73211  1  0  0  0  0
 74212  1  0  0  0  0
 74213  1  0  0  0  0
 74214  1  0  0  0  0
 75215  1  0  0  0  0
 76216  1  0  0  0  0
 78217  1  0  0  0  0
 79218  1  0  0  0  0
 81219  1  0  0  0  0
 81220  1  0  0  0  0
 82221  1  0  0  0  0
 82222  1  0  0  0  0
 82223  1  0  0  0  0
 83224  1  0  0  0  0
 84225  1  0  0  0  0
 88226  1  0  0  0  0
 92227  1  0  0  0  0
 93228  1  0  0  0  0
 95229  1  0  0  0  0
 95230  1  0  0  0  0
 96231  1  0  0  0  0
 96232  1  0  0  0  0
 96233  1  0  0  0  0
 97234  1  0  0  0  0
 98235  1  0  0  0  0
100236  1  0  0  0  0
101237  1  0  0  0  0
103238  1  0  0  0  0
103239  1  0  0  0  0
104240  1  0  0  0  0
104241  1  0  0  0  0
104242  1  0  0  0  0
105243  1  0  0  0  0
106244  1  0  0  0  0
119245  1  0  0  0  0
123246  1  0  0  0  0
124247  1  0  0  0  0
126248  1  0  0  0  0
126249  1  0  0  0  0
127250  1  0  0  0  0
127251  1  0  0  0  0
127252  1  0  0  0  0
128253  1  0  0  0  0
129254  1  0  0  0  0
131255  1  0  0  0  0
132256  1  0  0  0  0
134257  1  0  0  0  0
134258  1  0  0  0  0
135259  1  0  0  0  0
135260  1  0  0  0  0
135261  1  0  0  0  0
136262  1  0  0  0  0
137263  1  0  0  0  0
147264  1  0  0  0  0
147265  1  0  0  0  0
148266  1  0  0  0  0
148267  1  0  0  0  0
148268  1  0  0  0  0
152269  1  0  0  0  0
152270  1  0  0  0  0
153271  1  0  0  0  0
153272  1  0  0  0  0
153273  1  0  0  0  0
154274  1  0  0  0  0
160275  1  0  0  0  0
161276  1  0  0  0  0
M  END
