180

C          1.05760       -0.29930      -11.41910
C          2.38840       -0.04780      -11.30440
C          3.21650       -0.47880      -10.14350
O          2.87280       -1.12520       -9.17680
C          4.59730       -0.08440      -10.47770
C          5.72870       -0.24230       -9.72970
C          6.96490        0.20440      -10.24530
C          8.16080        0.07790       -9.50930
C          9.35200        0.50900      -10.02280
C          9.37070        1.08470      -11.30080
F         10.55230        1.50380      -11.78800
C          8.24050        1.23180      -12.05570
C          7.00390        0.79340      -11.54260
C          5.81760        0.93070      -12.30010
C          4.62730        0.50220      -11.77360
C          3.26800        0.52780      -12.30480
C          2.88850        1.08160      -13.49850
C          1.55910        1.17210      -13.96370
N          0.50620        1.30210      -14.40240
C          3.78410        1.66140      -14.42170
N          4.46300        2.14460      -15.21140
C          0.22440       -0.60280      -10.29270
C         -0.81820       -1.51270      -10.35470
F         -1.03290       -2.18240      -11.49710
C         -1.60740       -1.84150       -9.24920
F         -2.49010       -2.83990       -9.41840
C         -1.43420       -1.24720       -8.00530
C         -0.37000       -0.29170       -7.92180
N         -0.09030        0.26430       -6.73870
C          0.87280        1.14310       -6.61720
C          1.16680        1.60010       -5.22110
C          1.90770        0.49900       -4.45810
C          1.54580        1.60790       -7.78090
N          1.30070        1.05790       -8.94350
C          0.41300        0.06100       -9.04490
C          2.54380        2.72600       -7.78410
C          3.92230        2.23610       -7.33560
C         -2.15780       -1.59080       -6.81270
C         -3.46260       -2.01190       -6.60800
C         -4.57550       -2.07980       -7.60510
C         -5.03720       -3.51770       -7.84690
C         -3.69790       -2.27760       -5.24800
S         -5.12960       -2.77190       -4.36670
C         -4.23150       -2.68090       -2.88970
C         -4.43910       -2.78210       -1.50330
C         -5.63190       -2.95980       -0.75860
N         -6.77250       -3.30640       -1.34960
C         -7.88150       -3.34720       -0.62870
C         -9.03110       -3.89470       -1.31410
S        -10.29700       -4.77020       -0.50490
C        -11.09880       -5.11880       -1.99780
C        -12.39620       -5.84810       -2.04100
C        -13.53320       -4.98210       -1.49410
C        -10.39230       -4.57870       -3.03390
C         -9.21530       -3.90170       -2.67020
F        -10.79210       -4.69280       -4.31350
C         -7.86700       -2.90940        0.72920
C         -9.04510       -2.64430        1.51910
C        -10.27750       -2.17910        1.14910
C        -11.10370       -1.96790        2.26610
F        -12.36910       -1.52190        2.14520
C        -10.53780       -2.25430        3.47580
C        -11.14670       -2.12670        4.82940
C        -10.42130       -1.07710        5.67200
S         -8.90890       -2.78440        3.24450
N         -6.71860       -2.68230        1.34540
C         -5.58850       -2.74440        0.64630
C         -4.32690       -2.54830        1.25980
C         -3.97400       -2.33140        2.60630
S         -4.72720       -2.10790        4.14900
C         -3.15020       -1.83130        4.85890
C         -2.73880       -1.45480        6.15130
C         -3.71680       -1.26010        7.26360
C         -4.28760        0.15900        7.24290
C         -1.37330       -1.24930        6.20160
S         -0.58850       -1.58640        4.65440
C         -2.11170       -1.94080        3.93330
C         -2.58180       -2.22910        2.65050
N         -2.04970       -2.37360        1.39380
C         -0.69930       -2.87540        1.25570
C         -0.54360       -4.23850        1.93030
C         -3.11280       -2.52940        0.52100
C         -3.18500       -2.50960       -0.88770
N         -2.26120       -2.21320       -1.86760
C         -2.89660       -2.31170       -3.07680
C         -2.58990       -2.07620       -4.42040
S         -1.25270       -1.45790       -5.31070
C         -0.97370       -1.56330       -1.77760
C          0.16290       -2.48210       -2.22580
C         -0.52730       -0.72850        7.22170
S         -1.11900       -0.17780        8.78170
C          0.46210        0.42410        9.21570
C          0.79070        1.10120       10.36170
C          2.10680        1.57290       10.48440
C          2.67110        2.34480       11.51010
C          3.99070        2.70350       11.28700
S          4.59830        2.03930        9.77970
C          3.05260        1.31630        9.45090
C          2.71960        0.60820        8.31670
C          1.40640        0.16430        8.18120
C          0.81530       -0.49540        7.08310
C          4.68930        3.54180       12.17930
C          5.93770        4.09550       12.09120
C          6.89460        3.91160       10.98520
O          6.79690        3.16590       10.03010
C          8.01910        4.82010       11.26410
C          9.13180        5.05190       10.50870
C         10.08250        5.99490       10.95730
C         11.24500        6.28210       10.21340
C         12.15330        7.20370       10.65460
C         11.91350        7.86480       11.86690
F         12.81790        8.76950       12.28390
C         10.80380        7.62240       12.62780
C          9.85680        6.67680       12.18840
C          8.69660        6.40860       12.95230
C          7.78680        5.49130       12.49690
C          6.51590        5.02450       13.04680
C          5.99650        5.40510       14.25730
C          6.62160        6.31900       15.13220
N          7.07400        7.05020       15.89290
C          4.78780        4.94800       14.82270
N          3.82150        4.63290       15.35850
H          0.57050       -0.26370      -12.38480
H          5.68140       -0.70340       -8.75390
H          8.12050       -0.36970       -8.52760
H         10.27610        0.41810       -9.47440
H          8.29280        1.67970      -13.03580
H          5.88350        1.36990      -13.28240
H          0.21700        1.79350       -4.71950
H          1.75610        2.51570       -5.22570
H          2.85090        0.26050       -4.94420
H          1.29940       -0.40080       -4.43170
H          2.11110        0.82090       -3.43960
H          2.61400        3.09940       -8.80680
H          2.20700        3.53860       -7.13800
H          4.23340        1.39420       -7.94870
H          4.65340        3.03350       -7.44420
H          3.90710        1.92030       -6.29590
H         -4.28420       -1.61390       -8.54470
H         -5.41490       -1.51070       -7.19380
H         -4.23220       -4.11200       -8.26860
H         -5.87180       -3.52290       -8.54240
H         -5.36020       -3.97380       -6.91450
H        -12.32250       -6.76290       -1.44810
H        -12.60460       -6.12190       -3.07740
H        -13.32950       -4.69820       -0.46390
H        -13.64020       -4.07770       -2.08850
H        -14.47050       -5.53110       -1.52640
H         -8.54200       -3.43410       -3.36330
H        -10.58140       -1.96840        0.14070
H        -11.10030       -3.09170        5.34090
H        -12.19660       -1.85050        4.71130
H        -10.87340       -1.01040        6.65800
H        -10.48090       -0.10120        5.19580
H         -9.37320       -1.34510        5.78330
H         -4.53170       -1.97450        7.12800
H         -3.24260       -1.45390        8.22620
H         -5.01100        0.28040        8.04430
H         -3.49510        0.89100        7.37790
H         -4.78290        0.35050        6.29400
H         -0.01450       -2.15470        1.71460
H         -0.46220       -2.98400        0.20360
H         -0.72540       -4.16800        2.99910
H          0.46680       -4.60740        1.77630
H         -1.24620       -4.95140        1.50370
H         -0.99550       -0.69320       -2.44370
H         -0.82760       -1.19950       -0.76020
H          1.11940       -1.99730       -2.05150
H          0.14740       -3.43090       -1.69400
H          0.07060       -2.69400       -3.28730
H          0.06410        1.29390       11.13490
H          2.13000        2.65640       12.38690
H          3.44530        0.42220        7.54120
H          1.36450       -0.76140        6.19680
H          4.10000        3.80640       13.04940
H          9.28050        4.52590        9.57760
H         11.40680        5.75970        9.28250
H         13.04700        7.43620       10.09750
H         10.65260        8.15030       13.55640
H          8.55760        6.94360       13.87770
