
  xtb     02052213463D
 energy: -311.022149499444 gnorm: 0.000381158018 xtb: 6.4.1 (unknown)
179196  0     0  0            999 V2000
   -1.4798   -9.4397    3.5046 C   0  0  0  0  0  0  0  0  0  0  0  0
   -1.2116  -10.7634    3.6600 C   0  0  0  0  0  0  0  0  0  0  0  0
   -0.6011  -11.6285    2.6144 C   0  0  0  0  0  0  0  0  0  0  0  0
   -0.3632  -11.3312    1.4643 O   0  0  0  0  0  0  0  0  0  0  0  0
   -0.4788  -12.9625    3.2272 C   0  0  0  0  0  0  0  0  0  0  0  0
    0.0902  -14.0887    2.7073 C   0  0  0  0  0  0  0  0  0  0  0  0
    0.1168  -15.2679    3.4847 C   0  0  0  0  0  0  0  0  0  0  0  0
    0.7084  -16.4547    3.0061 C   0  0  0  0  0  0  0  0  0  0  0  0
    0.7293  -17.5888    3.7693 C   0  0  0  0  0  0  0  0  0  0  0  0
    0.1499  -17.5583    5.0451 C   0  0  0  0  0  0  0  0  0  0  0  0
    0.1803  -18.6846    5.7816 F   0  0  0  0  0  0  0  0  0  0  0  0
   -0.4364  -16.4349    5.5575 C   0  0  0  0  0  0  0  0  0  0  0  0
   -0.4653  -15.2567    4.7857 C   0  0  0  0  0  0  0  0  0  0  0  0
   -1.0580  -14.0771    5.2926 C   0  0  0  0  0  0  0  0  0  0  0  0
   -1.0613  -12.9416    4.5260 C   0  0  0  0  0  0  0  0  0  0  0  0
   -1.5685  -11.5985    4.7916 C   0  0  0  0  0  0  0  0  0  0  0  0
   -2.2262  -11.2050    5.9278 C   0  0  0  0  0  0  0  0  0  0  0  0
   -2.5274  -12.0649    7.0048 C   0  0  0  0  0  0  0  0  0  0  0  0
   -2.8072  -12.7105    7.9122 N   0  0  0  0  0  0  0  0  0  0  0  0
   -2.7125   -9.9064    6.1873 C   0  0  0  0  0  0  0  0  0  0  0  0
   -3.1388   -8.8820    6.4847 N   0  0  0  0  0  0  0  0  0  0  0  0
   -0.9464   -8.5885    2.4861 C   0  0  0  0  0  0  0  0  0  0  0  0
    0.3478   -8.6738    1.9805 C   0  0  0  0  0  0  0  0  0  0  0  0
    1.2205   -9.5384    2.5156 F   0  0  0  0  0  0  0  0  0  0  0  0
    0.8403   -7.7988    1.0142 C   0  0  0  0  0  0  0  0  0  0  0  0
    2.1405   -7.9156    0.6970 F   0  0  0  0  0  0  0  0  0  0  0  0
    0.0653   -6.7809    0.4610 C   0  0  0  0  0  0  0  0  0  0  0  0
   -1.2310   -6.6087    1.0410 C   0  0  0  0  0  0  0  0  0  0  0  0
   -1.9722   -5.5669    0.6483 N   0  0  0  0  0  0  0  0  0  0  0  0
   -3.1533   -5.3570    1.1784 C   0  0  0  0  0  0  0  0  0  0  0  0
   -3.8668   -4.1210    0.7236 C   0  0  0  0  0  0  0  0  0  0  0  0
   -3.4412   -2.9310    1.5874 C   0  0  0  0  0  0  0  0  0  0  0  0
   -3.6555   -6.2495    2.1641 C   0  0  0  0  0  0  0  0  0  0  0  0
   -2.9454   -7.2805    2.5556 N   0  0  0  0  0  0  0  0  0  0  0  0
   -1.7275   -7.4863    2.0312 C   0  0  0  0  0  0  0  0  0  0  0  0
   -5.0118   -6.1133    2.7847 C   0  0  0  0  0  0  0  0  0  0  0  0
   -6.0624   -6.8114    1.9167 C   0  0  0  0  0  0  0  0  0  0  0  0
    0.5186   -5.8476   -0.5176 C   0  0  0  0  0  0  0  0  0  0  0  0
    1.5337   -5.9634   -1.4650 C   0  0  0  0  0  0  0  0  0  0  0  0
    2.1641   -7.2115   -1.8875 C   0  0  0  0  0  0  0  0  0  0  0  0
    3.5245   -7.2503   -2.1787 C   0  0  0  0  0  0  0  0  0  0  0  0
    4.1003   -8.4266   -2.6187 C   0  0  0  0  0  0  0  0  0  0  0  0
    3.3296   -9.5632   -2.7801 C   0  0  0  0  0  0  0  0  0  0  0  0
    1.9669   -9.5424   -2.5020 C   0  0  0  0  0  0  0  0  0  0  0  0
    1.1463  -10.7906   -2.6525 C   0  0  0  0  0  0  0  0  0  0  0  0
    1.3242  -11.7064   -1.4401 C   0  0  0  0  0  0  0  0  0  0  0  0
    1.3957   -8.3623   -2.0569 C   0  0  0  0  0  0  0  0  0  0  0  0
    1.7984   -4.7244   -2.0724 C   0  0  0  0  0  0  0  0  0  0  0  0
    2.9623   -4.2196   -3.2798 S   0  0  0  0  0  0  0  0  0  0  0  0
    2.3622   -2.6021   -3.1485 C   0  0  0  0  0  0  0  0  0  0  0  0
    2.6814   -1.3108   -3.5961 C   0  0  0  0  0  0  0  0  0  0  0  0
    3.7685   -0.8195   -4.3539 C   0  0  0  0  0  0  0  0  0  0  0  0
    3.9840    0.6005   -4.4263 C   0  0  0  0  0  0  0  0  0  0  0  0
    5.0856    0.9094   -5.0915 N   0  0  0  0  0  0  0  0  0  0  0  0
    5.7864   -0.4609   -5.5929 S   0  0  0  0  0  0  0  0  0  0  0  0
    4.7148   -1.5055   -4.9742 N   0  0  0  0  0  0  0  0  0  0  0  0
    3.0322    1.4702   -3.8490 C   0  0  0  0  0  0  0  0  0  0  0  0
    2.9509    2.8723   -3.7737 C   0  0  0  0  0  0  0  0  0  0  0  0
    3.8880    4.2718   -4.1787 S   0  0  0  0  0  0  0  0  0  0  0  0
    2.6219    5.2823   -3.5188 C   0  0  0  0  0  0  0  0  0  0  0  0
    2.5085    6.6731   -3.3300 C   0  0  0  0  0  0  0  0  0  0  0  0
    3.5853    7.6218   -3.6131 C   0  0  0  0  0  0  0  0  0  0  0  0
    4.2902    7.5662   -4.8109 C   0  0  0  0  0  0  0  0  0  0  0  0
    5.2965    8.4803   -5.0565 C   0  0  0  0  0  0  0  0  0  0  0  0
    5.6054    9.4515   -4.1198 C   0  0  0  0  0  0  0  0  0  0  0  0
    4.9274    9.5064   -2.9089 C   0  0  0  0  0  0  0  0  0  0  0  0
    5.2253   10.5721   -1.8919 C   0  0  0  0  0  0  0  0  0  0  0  0
    4.0838   11.5884   -1.8209 C   0  0  0  0  0  0  0  0  0  0  0  0
    3.9288    8.5777   -2.6624 C   0  0  0  0  0  0  0  0  0  0  0  0
    1.3082    6.9963   -2.7191 C   0  0  0  0  0  0  0  0  0  0  0  0
    0.3583    5.5904   -2.2933 S   0  0  0  0  0  0  0  0  0  0  0  0
    1.5322    4.5583   -3.0305 C   0  0  0  0  0  0  0  0  0  0  0  0
    1.7292    3.1791   -3.1694 C   0  0  0  0  0  0  0  0  0  0  0  0
    1.0521    2.0283   -2.8547 N   0  0  0  0  0  0  0  0  0  0  0  0
    1.8564    0.9641   -3.2300 C   0  0  0  0  0  0  0  0  0  0  0  0
    1.7523   -0.4251   -2.9805 C   0  0  0  0  0  0  0  0  0  0  0  0
    0.9206   -1.1579   -2.1571 N   0  0  0  0  0  0  0  0  0  0  0  0
    1.2950   -2.4731   -2.2509 C   0  0  0  0  0  0  0  0  0  0  0  0
    0.9793   -3.6816   -1.6244 C   0  0  0  0  0  0  0  0  0  0  0  0
   -0.1949   -4.2441   -0.4853 S   0  0  0  0  0  0  0  0  0  0  0  0
    0.0761   -0.7210   -1.0683 C   0  0  0  0  0  0  0  0  0  0  0  0
   -1.3949   -1.0616   -1.3076 C   0  0  0  0  0  0  0  0  0  0  0  0
   -0.3928    2.0637   -2.7806 C   0  0  0  0  0  0  0  0  0  0  0  0
   -1.0021    2.5606   -4.0917 C   0  0  0  0  0  0  0  0  0  0  0  0
    0.7823    8.2983   -2.4033 C   0  0  0  0  0  0  0  0  0  0  0  0
    1.0048    9.4350   -3.1619 C   0  0  0  0  0  0  0  0  0  0  0  0
    1.6524    9.3684   -4.3367 F   0  0  0  0  0  0  0  0  0  0  0  0
    0.5269   10.6914   -2.7648 C   0  0  0  0  0  0  0  0  0  0  0  0
    0.7964   11.7477   -3.5544 F   0  0  0  0  0  0  0  0  0  0  0  0
   -0.2303   10.8787   -1.6303 C   0  0  0  0  0  0  0  0  0  0  0  0
   -0.5045    9.7329   -0.8376 C   0  0  0  0  0  0  0  0  0  0  0  0
   -1.1454    9.8616    0.3349 N   0  0  0  0  0  0  0  0  0  0  0  0
   -1.4010    8.7960    1.0537 C   0  0  0  0  0  0  0  0  0  0  0  0
   -2.0075    9.0228    2.4044 C   0  0  0  0  0  0  0  0  0  0  0  0
   -3.5350    9.0414    2.3395 C   0  0  0  0  0  0  0  0  0  0  0  0
   -1.0861    7.4998    0.5541 C   0  0  0  0  0  0  0  0  0  0  0  0
   -0.3927    7.3750   -0.5490 N   0  0  0  0  0  0  0  0  0  0  0  0
   -0.0421    8.4600   -1.2499 C   0  0  0  0  0  0  0  0  0  0  0  0
   -1.4390    6.2217    1.2526 C   0  0  0  0  0  0  0  0  0  0  0  0
   -0.2415    5.7179    2.0622 C   0  0  0  0  0  0  0  0  0  0  0  0
   -0.7122   12.1964   -1.2390 C   0  0  0  0  0  0  0  0  0  0  0  0
   -1.9977   12.4775   -0.9925 C   0  0  0  0  0  0  0  0  0  0  0  0
   -3.0460   11.4879   -1.3188 C   0  0  0  0  0  0  0  0  0  0  0  0
   -2.8838   10.5561   -2.0737 O   0  0  0  0  0  0  0  0  0  0  0  0
   -4.3174   11.7306   -0.7920 N   0  0  0  0  0  0  0  0  0  0  0  0
   -5.4196   10.9373   -1.3351 C   0  0  0  0  0  0  0  0  0  0  0  0
   -5.5928    9.6091   -0.6135 C   0  0  0  0  0  0  0  0  0  0  0  0
   -4.6076   12.6070    0.2204 C   0  0  0  0  0  0  0  0  0  0  0  0
   -5.7111   12.7089    0.6959 O   0  0  0  0  0  0  0  0  0  0  0  0
   -3.4413   13.4760    0.6906 C   0  0  0  0  0  0  0  0  0  0  0  0
   -2.7328   12.7884    1.7435 C   0  0  0  0  0  0  0  0  0  0  0  0
   -2.1722   12.2604    2.5873 N   0  0  0  0  0  0  0  0  0  0  0  0
   -2.5026   13.8020   -0.4851 C   0  0  0  0  0  0  0  0  0  0  0  0
   -1.4137   14.7792   -0.0592 C   0  0  0  0  0  0  0  0  0  0  0  0
   -2.1773   -8.9468    4.1686 H   0  0  0  0  0  0  0  0  0  0  0  0
    0.5254  -14.0752    1.7192 H   0  0  0  0  0  0  0  0  0  0  0  0
    1.1487  -16.4530    2.0203 H   0  0  0  0  0  0  0  0  0  0  0  0
    1.1785  -18.5045    3.4187 H   0  0  0  0  0  0  0  0  0  0  0  0
   -0.8717  -16.4472    6.5445 H   0  0  0  0  0  0  0  0  0  0  0  0
   -1.4907  -14.1029    6.2797 H   0  0  0  0  0  0  0  0  0  0  0  0
   -3.5816   -3.9269   -0.3110 H   0  0  0  0  0  0  0  0  0  0  0  0
   -4.9466   -4.2535    0.7755 H   0  0  0  0  0  0  0  0  0  0  0  0
   -3.6923   -3.1012    2.6321 H   0  0  0  0  0  0  0  0  0  0  0  0
   -3.9441   -2.0273    1.2525 H   0  0  0  0  0  0  0  0  0  0  0  0
   -2.3666   -2.7862    1.5093 H   0  0  0  0  0  0  0  0  0  0  0  0
   -5.2725   -5.0630    2.9145 H   0  0  0  0  0  0  0  0  0  0  0  0
   -4.9825   -6.5954    3.7623 H   0  0  0  0  0  0  0  0  0  0  0  0
   -6.1016   -6.3749    0.9206 H   0  0  0  0  0  0  0  0  0  0  0  0
   -7.0438   -6.7206    2.3747 H   0  0  0  0  0  0  0  0  0  0  0  0
   -5.8205   -7.8667    1.8195 H   0  0  0  0  0  0  0  0  0  0  0  0
    4.1303   -6.3688   -2.0366 H   0  0  0  0  0  0  0  0  0  0  0  0
    5.1576   -8.4556   -2.8369 H   0  0  0  0  0  0  0  0  0  0  0  0
    3.7858  -10.4785   -3.1292 H   0  0  0  0  0  0  0  0  0  0  0  0
    0.0906  -10.5328   -2.7572 H   0  0  0  0  0  0  0  0  0  0  0  0
    1.4588  -11.3237   -3.5541 H   0  0  0  0  0  0  0  0  0  0  0  0
    0.7752  -12.6339   -1.5873 H   0  0  0  0  0  0  0  0  0  0  0  0
    2.3761  -11.9429   -1.2949 H   0  0  0  0  0  0  0  0  0  0  0  0
    0.9508  -11.2287   -0.5384 H   0  0  0  0  0  0  0  0  0  0  0  0
    0.3342   -8.3279   -1.8509 H   0  0  0  0  0  0  0  0  0  0  0  0
    4.0322    6.8244   -5.5510 H   0  0  0  0  0  0  0  0  0  0  0  0
    5.8382    8.4423   -5.9899 H   0  0  0  0  0  0  0  0  0  0  0  0
    6.3834   10.1718   -4.3285 H   0  0  0  0  0  0  0  0  0  0  0  0
    5.3599   10.1156   -0.9079 H   0  0  0  0  0  0  0  0  0  0  0  0
    6.1508   11.0860   -2.1572 H   0  0  0  0  0  0  0  0  0  0  0  0
    3.8998   12.0192   -2.8026 H   0  0  0  0  0  0  0  0  0  0  0  0
    3.1671   11.1102   -1.4804 H   0  0  0  0  0  0  0  0  0  0  0  0
    4.3310   12.3904   -1.1287 H   0  0  0  0  0  0  0  0  0  0  0  0
    3.4085    8.5927   -1.7139 H   0  0  0  0  0  0  0  0  0  0  0  0
    0.2259    0.3471   -0.9092 H   0  0  0  0  0  0  0  0  0  0  0  0
    0.4066   -1.2428   -0.1629 H   0  0  0  0  0  0  0  0  0  0  0  0
   -1.5330   -2.1389   -1.2869 H   0  0  0  0  0  0  0  0  0  0  0  0
   -2.0050   -0.6196   -0.5251 H   0  0  0  0  0  0  0  0  0  0  0  0
   -1.7413   -0.6971   -2.2722 H   0  0  0  0  0  0  0  0  0  0  0  0
   -0.7665    1.0648   -2.5853 H   0  0  0  0  0  0  0  0  0  0  0  0
   -0.6797    2.7327   -1.9630 H   0  0  0  0  0  0  0  0  0  0  0  0
   -2.0862    2.5323   -4.0236 H   0  0  0  0  0  0  0  0  0  0  0  0
   -0.6858    1.9261   -4.9171 H   0  0  0  0  0  0  0  0  0  0  0  0
   -0.6964    3.5818   -4.3000 H   0  0  0  0  0  0  0  0  0  0  0  0
   -1.6708    9.9962    2.7626 H   0  0  0  0  0  0  0  0  0  0  0  0
   -1.6744    8.2493    3.0967 H   0  0  0  0  0  0  0  0  0  0  0  0
   -3.8622    9.8804    1.7327 H   0  0  0  0  0  0  0  0  0  0  0  0
   -3.9282    8.1232    1.9072 H   0  0  0  0  0  0  0  0  0  0  0  0
   -3.9455    9.1614    3.3386 H   0  0  0  0  0  0  0  0  0  0  0  0
   -1.6840    5.4803    0.4902 H   0  0  0  0  0  0  0  0  0  0  0  0
   -2.3007    6.3604    1.9038 H   0  0  0  0  0  0  0  0  0  0  0  0
    0.0457    6.4420    2.8216 H   0  0  0  0  0  0  0  0  0  0  0  0
    0.6067    5.5560    1.4020 H   0  0  0  0  0  0  0  0  0  0  0  0
   -0.4883    4.7799    2.5534 H   0  0  0  0  0  0  0  0  0  0  0  0
    0.0450   12.9625   -1.1478 H   0  0  0  0  0  0  0  0  0  0  0  0
   -5.1944   10.7624   -2.3890 H   0  0  0  0  0  0  0  0  0  0  0  0
   -6.3247   11.5402   -1.2397 H   0  0  0  0  0  0  0  0  0  0  0  0
   -4.6735    9.0312   -0.6700 H   0  0  0  0  0  0  0  0  0  0  0  0
   -5.8549    9.7745    0.4285 H   0  0  0  0  0  0  0  0  0  0  0  0
   -6.3907    9.0441   -1.0875 H   0  0  0  0  0  0  0  0  0  0  0  0
   -3.8725   14.3879    1.1215 H   0  0  0  0  0  0  0  0  0  0  0  0
   -3.1109   14.2708   -1.2712 H   0  0  0  0  0  0  0  0  0  0  0  0
   -0.7788   14.3369    0.7055 H   0  0  0  0  0  0  0  0  0  0  0  0
   -0.8023   15.0644   -0.9113 H   0  0  0  0  0  0  0  0  0  0  0  0
   -1.8655   15.6820    0.3470 H   0  0  0  0  0  0  0  0  0  0  0  0
  1  2  2  0  0  0  0
  2  3  1  0  0  0  0
  3  4  2  0  0  0  0
  3  5  1  0  0  0  0
  5  6  2  0  0  0  0
  6  7  1  0  0  0  0
  7  8  2  0  0  0  0
  8  9  1  0  0  0  0
  9 10  2  0  0  0  0
 10 11  1  0  0  0  0
 10 12  1  0  0  0  0
 12 13  2  0  0  0  0
 13 14  1  0  0  0  0
 14 15  2  0  0  0  0
 15 16  1  0  0  0  0
 16 17  2  0  0  0  0
 17 18  1  0  0  0  0
 18 19  3  0  0  0  0
 17 20  1  0  0  0  0
 20 21  3  0  0  0  0
  1 22  1  0  0  0  0
 22 23  2  0  0  0  0
 23 24  1  0  0  0  0
 23 25  1  0  0  0  0
 25 26  1  0  0  0  0
 25 27  2  0  0  0  0
 27 28  1  0  0  0  0
 28 29  2  0  0  0  0
 29 30  1  0  0  0  0
 30 31  1  0  0  0  0
 31 32  1  0  0  0  0
 30 33  2  0  0  0  0
 33 34  1  0  0  0  0
 34 35  2  0  0  0  0
 33 36  1  0  0  0  0
 36 37  1  0  0  0  0
 27 38  1  0  0  0  0
 38 39  2  0  0  0  0
 39 40  1  0  0  0  0
 40 41  2  0  0  0  0
 41 42  1  0  0  0  0
 42 43  2  0  0  0  0
 43 44  1  0  0  0  0
 44 45  1  0  0  0  0
 45 46  1  0  0  0  0
 44 47  2  0  0  0  0
 39 48  1  0  0  0  0
 48 49  1  0  0  0  0
 49 50  1  0  0  0  0
 50 51  1  0  0  0  0
 51 52  1  0  0  0  0
 52 53  1  0  0  0  0
 53 54  2  0  0  0  0
 54 55  1  0  0  0  0
 55 56  1  0  0  0  0
 53 57  1  0  0  0  0
 57 58  1  0  0  0  0
 58 59  1  0  0  0  0
 59 60  1  0  0  0  0
 60 61  1  0  0  0  0
 61 62  1  0  0  0  0
 62 63  2  0  0  0  0
 63 64  1  0  0  0  0
 64 65  2  0  0  0  0
 65 66  1  0  0  0  0
 66 67  1  0  0  0  0
 67 68  1  0  0  0  0
 66 69  2  0  0  0  0
 61 70  2  0  0  0  0
 70 71  1  0  0  0  0
 71 72  1  0  0  0  0
 72 73  1  0  0  0  0
 73 74  1  0  0  0  0
 74 75  1  0  0  0  0
 75 76  1  0  0  0  0
 76 77  1  0  0  0  0
 77 78  1  0  0  0  0
 78 79  1  0  0  0  0
 79 80  1  0  0  0  0
 77 81  1  0  0  0  0
 81 82  1  0  0  0  0
 74 83  1  0  0  0  0
 83 84  1  0  0  0  0
 70 85  1  0  0  0  0
 85 86  2  0  0  0  0
 86 87  1  0  0  0  0
 86 88  1  0  0  0  0
 88 89  1  0  0  0  0
 88 90  2  0  0  0  0
 90 91  1  0  0  0  0
 91 92  2  0  0  0  0
 92 93  1  0  0  0  0
 93 94  1  0  0  0  0
 94 95  1  0  0  0  0
 93 96  2  0  0  0  0
 96 97  1  0  0  0  0
 97 98  2  0  0  0  0
 96 99  1  0  0  0  0
 99100  1  0  0  0  0
 90101  1  0  0  0  0
101102  2  0  0  0  0
102103  1  0  0  0  0
103104  2  0  0  0  0
103105  1  0  0  0  0
105106  1  0  0  0  0
106107  1  0  0  0  0
105108  1  0  0  0  0
108109  2  0  0  0  0
108110  1  0  0  0  0
110111  1  0  0  0  0
111112  3  0  0  0  0
110113  1  0  0  0  0
113114  1  0  0  0  0
 16  2  1  0  0  0  0
 35 22  1  0  0  0  0
 80 38  1  0  0  0  0
 98 85  1  0  0  0  0
113102  1  0  0  0  0
 15  5  1  0  0  0  0
 35 28  1  0  0  0  0
 47 40  1  0  0  0  0
 79 48  2  0  0  0  0
 98 91  1  0  0  0  0
 13  7  1  0  0  0  0
 78 50  2  0  0  0  0
 76 51  2  0  0  0  0
 56 52  2  0  0  0  0
 75 57  2  0  0  0  0
 73 58  2  0  0  0  0
 72 60  2  0  0  0  0
 69 62  1  0  0  0  0
  1115  1  0  0  0  0
  6116  1  0  0  0  0
  8117  1  0  0  0  0
  9118  1  0  0  0  0
 12119  1  0  0  0  0
 14120  1  0  0  0  0
 31121  1  0  0  0  0
 31122  1  0  0  0  0
 32123  1  0  0  0  0
 32124  1  0  0  0  0
 32125  1  0  0  0  0
 36126  1  0  0  0  0
 36127  1  0  0  0  0
 37128  1  0  0  0  0
 37129  1  0  0  0  0
 37130  1  0  0  0  0
 41131  1  0  0  0  0
 42132  1  0  0  0  0
 43133  1  0  0  0  0
 45134  1  0  0  0  0
 45135  1  0  0  0  0
 46136  1  0  0  0  0
 46137  1  0  0  0  0
 46138  1  0  0  0  0
 47139  1  0  0  0  0
 63140  1  0  0  0  0
 64141  1  0  0  0  0
 65142  1  0  0  0  0
 67143  1  0  0  0  0
 67144  1  0  0  0  0
 68145  1  0  0  0  0
 68146  1  0  0  0  0
 68147  1  0  0  0  0
 69148  1  0  0  0  0
 81149  1  0  0  0  0
 81150  1  0  0  0  0
 82151  1  0  0  0  0
 82152  1  0  0  0  0
 82153  1  0  0  0  0
 83154  1  0  0  0  0
 83155  1  0  0  0  0
 84156  1  0  0  0  0
 84157  1  0  0  0  0
 84158  1  0  0  0  0
 94159  1  0  0  0  0
 94160  1  0  0  0  0
 95161  1  0  0  0  0
 95162  1  0  0  0  0
 95163  1  0  0  0  0
 99164  1  0  0  0  0
 99165  1  0  0  0  0
100166  1  0  0  0  0
100167  1  0  0  0  0
100168  1  0  0  0  0
101169  1  0  0  0  0
106170  1  0  0  0  0
106171  1  0  0  0  0
107172  1  0  0  0  0
107173  1  0  0  0  0
107174  1  0  0  0  0
110175  1  0  0  0  0
113176  1  0  0  0  0
114177  1  0  0  0  0
114178  1  0  0  0  0
114179  1  0  0  0  0
M  END
