169

C         -0.12020      -12.23210        4.85230
C         -1.42470      -12.21780        5.25540
C         -2.35990      -11.09170        5.00530
O         -2.10560       -9.97900        4.59910
C         -3.70660      -11.64720        5.25930
C         -4.91700      -11.03250        5.12470
C         -6.09420      -11.75590        5.42150
C         -7.36940      -11.16630        5.30720
C         -8.50230      -11.87600        5.59410
C         -8.37970      -13.20920        6.00740
F         -9.50620      -13.89170        6.28670
C         -7.16800      -13.82920        6.13460
C         -5.99060      -13.11280        5.84450
C         -4.72150      -13.72470        5.97270
C         -3.59540      -12.99990        5.68890
C         -2.18030      -13.34450        5.75300
C         -1.64280      -14.47310        6.31880
C         -0.26060      -14.65020        6.53080
N          0.84770      -14.81490        6.78310
C         -2.40760      -15.54170        6.82440
N         -2.98840      -16.44000        7.24210
C          0.60550      -11.07000        4.43710
C          0.55610       -9.83470        5.09910
O          0.06140       -9.69720        6.35330
C          0.33810      -10.66550        7.36060
C         -0.87760      -10.82500        8.25960
C          1.04340       -8.65700        4.47830
O          0.94750       -7.42790        5.06010
C          1.33550       -7.23500        6.41520
C          2.75920       -7.70790        6.68270
C          1.60960       -8.70800        3.19290
C          1.86460       -9.99360        2.62840
C          1.37720      -11.17240        3.24660
N          1.58480      -12.37360        2.68150
C          2.28980      -12.41640        1.57770
C          2.79970      -11.25550        0.97880
N          2.57230      -10.07470        1.49770
C          1.99380       -7.54740        2.45680
S          3.06210       -7.69680        1.06360
C          3.01100       -5.98370        0.83320
C          3.46500       -4.97270       -0.01210
S          4.44320       -4.81370       -1.44420
C          4.09700       -3.11900       -1.43780
C          4.39680       -1.99470       -2.22610
C          5.21310       -1.83170       -3.36690
C          5.36590       -0.52000       -3.93420
N          6.19430       -0.51000       -4.96690
S          6.73220       -2.01830       -5.20810
N          5.92870       -2.74390       -4.00520
C          4.60910        0.54810       -3.40450
C          4.42210        1.87030       -3.83980
S          4.99640        2.94560       -5.07040
C          3.88030        4.16420       -4.49540
C          3.59710        5.47170       -4.93550
C          4.37890        6.12890       -6.02830
C          5.05300        7.41680       -5.55850
C          2.60720        6.04610       -4.17450
S          2.04920        4.99160       -2.88450
C          3.11780        3.74380       -3.40560
C          3.43610        2.43280       -3.02610
N          3.03380        1.52890       -2.08120
C          3.74580        0.35990       -2.28860
C          3.73750       -0.89150       -1.62860
N          3.10330       -1.31920       -0.46490
C          3.29710       -2.68590       -0.37340
C          2.89860       -3.75550        0.44440
N          2.09180       -4.00990        1.52940
C          2.16160       -5.36060        1.77160
C          1.59390       -6.24060        2.68500
C          1.17890       -3.13920        2.22590
C          1.70620       -2.74710        3.60610
C          2.96250       -0.53370        0.74760
C          4.15490        0.38910        0.98710
C          1.81970        1.75220       -1.33060
C          0.71840        0.77240       -1.72550
C          1.96670        7.34620       -4.23390
C          1.36990        7.85370       -5.38920
O          1.47440        7.11700       -6.52820
C          1.71410        7.78600       -7.77080
C          1.61160        6.74890       -8.87700
C          0.56260        9.01780       -5.30620
O         -0.21690        9.40990       -6.36910
C         -1.33920        8.56580       -6.62510
C         -2.42020        8.70020       -5.56070
C          0.44910        9.74870       -4.13040
C          1.15610        9.31260       -2.97590
C          1.85760        8.08180       -3.02110
N          2.46520        7.61510       -1.91580
C          2.39030        8.32690       -0.82370
C          1.75510        9.58040       -0.80370
N          1.15750       10.06060       -1.86190
C         -0.36490       10.93360       -4.06350
C         -1.17040       11.21420       -3.00850
C         -1.61280       10.19290       -2.02000
O         -1.41640        8.99610       -2.05260
C         -2.48440       10.91050       -1.07370
C         -3.11270       10.42780        0.03780
C         -3.92860       11.29270        0.79980
C         -4.59490       10.84830        1.96020
C         -5.38780       11.69400        2.68460
C         -5.53130       13.02130        2.25720
F         -6.31610       13.83820        2.98330
C         -4.90710       13.50380        1.14090
C         -4.08620       12.64640        0.38220
C         -3.42830       13.11630       -0.77790
C         -2.63410       12.26150       -1.49640
C         -1.84230       12.46470       -2.70570
C         -1.71730       13.64490       -3.38890
C         -2.37510       14.84070       -3.03150
N         -2.88600       15.84150       -2.79640
C         -0.92140       13.83800       -4.53810
N         -0.29760       14.08060       -5.47090
H          0.37670      -13.18010        4.68430
H         -4.97600      -10.00470        4.79890
H         -7.43790      -10.13770        4.98620
H         -9.48520      -11.43990        5.51120
H         -7.11140      -14.85710        6.45710
H         -4.67200      -14.75520        6.28700
H          0.62910      -11.62670        6.92670
H          1.18340      -10.28650        7.95420
H         -1.72460      -11.20890        7.69750
H         -1.15680       -9.86270        8.68020
H         -0.64460      -11.51440        9.06630
H          0.62890       -7.71160        7.09910
H          1.26970       -6.15030        6.54320
H          3.44850       -7.23270        5.98780
H          3.04680       -7.45080        7.69840
H          2.83730       -8.78600        6.55820
H          2.45630      -13.39590        1.15100
H          3.38750      -11.28350        0.07270
H          3.71920        6.34280       -6.86740
H          5.13940        5.42270       -6.36870
H          5.64540        7.84500       -6.36380
H          4.31300        8.14920       -5.24280
H          5.71090        7.21290       -4.71670
H          0.90240       -5.97450        3.45940
H          0.23060       -3.67410        2.34520
H          0.99160       -2.25650        1.61110
H          2.66420       -2.23660        3.53160
H          0.99760       -2.08920        4.10190
H          1.84380       -3.63660        4.21500
H          2.91810       -1.24440        1.57230
H          2.02460        0.02890        0.74060
H          4.02900        0.90640        1.93520
H          5.07180       -0.19500        1.02840
H          4.26020        1.12890        0.19920
H          2.01840        1.71130       -0.25800
H          1.49820        2.77100       -1.56090
H          1.02040       -0.25520       -1.54030
H          0.49280        0.87600       -2.78410
H         -0.18350        0.98340       -1.15700
H          2.71900        8.22930       -7.74460
H          0.99530        8.59010       -7.94050
H          1.82920        7.21630       -9.83300
H          2.31560        5.93770       -8.70900
H          0.60880        6.33070       -8.90650
H         -1.71380        8.90020       -7.59580
H         -1.01870        7.51990       -6.70390
H         -2.04430        8.39480       -4.58580
H         -2.75820        9.73210       -5.49670
H         -3.26440        8.06850       -5.82320
H          2.87210        7.91940        0.05430
H          1.75350       10.20430        0.07980
H         -0.29150       11.61030       -4.90390
H         -2.98540        9.39700        0.33360
H         -4.46940        9.82120        2.26860
H         -5.90570       11.37000        3.57340
H         -5.04030       14.53180        0.84190
H         -3.57360       14.14400       -1.06980
