
  xtb     02052212013D
 energy: -335.865203833436 gnorm: 0.000622995049 xtb: 6.4.1 (unknown)
190211  0     0  0            999 V2000
    5.2749   -5.9448   10.1258 C   0  0  0  0  0  0  0  0  0  0  0  0
    6.4763   -5.3201   10.0670 C   0  0  0  0  0  0  0  0  0  0  0  0
    7.3834   -5.3506   11.2501 C   0  0  0  0  0  0  0  0  0  0  0  0
    7.2869   -6.0645   12.2206 O   0  0  0  0  0  0  0  0  0  0  0  0
    8.3740   -4.2846   11.0023 C   0  0  0  0  0  0  0  0  0  0  0  0
    9.3468   -3.8069   11.8323 C   0  0  0  0  0  0  0  0  0  0  0  0
   10.1683   -2.7446   11.3927 C   0  0  0  0  0  0  0  0  0  0  0  0
   11.1890   -2.2152   12.2087 C   0  0  0  0  0  0  0  0  0  0  0  0
   11.9731   -1.1823   11.7757 C   0  0  0  0  0  0  0  0  0  0  0  0
   11.7486   -0.6501   10.4987 C   0  0  0  0  0  0  0  0  0  0  0  0
   12.5280    0.3681   10.0901 F   0  0  0  0  0  0  0  0  0  0  0  0
   10.7739   -1.1262    9.6670 C   0  0  0  0  0  0  0  0  0  0  0  0
    9.9586   -2.1919   10.0957 C   0  0  0  0  0  0  0  0  0  0  0  0
    8.9489   -2.7132    9.2540 C   0  0  0  0  0  0  0  0  0  0  0  0
    8.1721   -3.7493    9.6975 C   0  0  0  0  0  0  0  0  0  0  0  0
    7.0884   -4.4858    9.0537 C   0  0  0  0  0  0  0  0  0  0  0  0
    6.8750   -4.5457    7.7020 C   0  0  0  0  0  0  0  0  0  0  0  0
    7.5964   -3.7875    6.7593 C   0  0  0  0  0  0  0  0  0  0  0  0
    8.1376   -3.1824    5.9467 N   0  0  0  0  0  0  0  0  0  0  0  0
    5.9339   -5.3844    7.0735 C   0  0  0  0  0  0  0  0  0  0  0  0
    5.1943   -6.0420    6.4914 N   0  0  0  0  0  0  0  0  0  0  0  0
    4.1284   -5.7250    9.2970 C   0  0  0  0  0  0  0  0  0  0  0  0
    3.2175   -6.7450    9.0544 C   0  0  0  0  0  0  0  0  0  0  0  0
    3.4555   -7.9610    9.5653 F   0  0  0  0  0  0  0  0  0  0  0  0
    2.1052   -6.5903    8.2282 C   0  0  0  0  0  0  0  0  0  0  0  0
    1.3865   -7.6893    7.9557 F   0  0  0  0  0  0  0  0  0  0  0  0
    1.7815   -5.3677    7.6508 C   0  0  0  0  0  0  0  0  0  0  0  0
    2.6713   -4.2828    7.9262 C   0  0  0  0  0  0  0  0  0  0  0  0
    2.3900   -3.0761    7.4192 N   0  0  0  0  0  0  0  0  0  0  0  0
    3.1744   -2.0540    7.6574 C   0  0  0  0  0  0  0  0  0  0  0  0
    2.7839   -0.7359    7.0587 C   0  0  0  0  0  0  0  0  0  0  0  0
    1.2805   -0.6171    6.8319 C   0  0  0  0  0  0  0  0  0  0  0  0
    4.3185   -2.2187    8.4886 C   0  0  0  0  0  0  0  0  0  0  0  0
    4.6040   -3.3935    8.9972 N   0  0  0  0  0  0  0  0  0  0  0  0
    3.8239   -4.4526    8.7293 C   0  0  0  0  0  0  0  0  0  0  0  0
    5.2408   -1.1026    8.8785 C   0  0  0  0  0  0  0  0  0  0  0  0
    6.0778   -0.5794    7.7102 C   0  0  0  0  0  0  0  0  0  0  0  0
    0.6824   -5.1695    6.7544 C   0  0  0  0  0  0  0  0  0  0  0  0
   -0.5506   -5.8061    6.6962 C   0  0  0  0  0  0  0  0  0  0  0  0
   -1.1029   -6.6790    7.7300 C   0  0  0  0  0  0  0  0  0  0  0  0
   -1.8277   -7.8143    7.3814 C   0  0  0  0  0  0  0  0  0  0  0  0
   -2.3585   -8.6212    8.3695 C   0  0  0  0  0  0  0  0  0  0  0  0
   -2.1798   -8.3022    9.7034 C   0  0  0  0  0  0  0  0  0  0  0  0
   -1.4691   -7.1651   10.0699 C   0  0  0  0  0  0  0  0  0  0  0  0
   -1.3184   -6.7915   11.5170 C   0  0  0  0  0  0  0  0  0  0  0  0
   -2.5257   -5.9782   11.9877 C   0  0  0  0  0  0  0  0  0  0  0  0
   -0.9415   -6.3582    9.0758 C   0  0  0  0  0  0  0  0  0  0  0  0
   -1.2776   -5.3953    5.5641 C   0  0  0  0  0  0  0  0  0  0  0  0
   -2.8720   -5.7967    4.9648 S   0  0  0  0  0  0  0  0  0  0  0  0
   -2.6392   -4.6792    3.6629 C   0  0  0  0  0  0  0  0  0  0  0  0
   -3.3391   -4.1601    2.5611 C   0  0  0  0  0  0  0  0  0  0  0  0
   -4.6734   -4.3402    2.1350 C   0  0  0  0  0  0  0  0  0  0  0  0
   -5.1691   -3.5471    1.0457 C   0  0  0  0  0  0  0  0  0  0  0  0
   -6.4499   -3.7726    0.7981 N   0  0  0  0  0  0  0  0  0  0  0  0
   -6.9847   -4.8908    1.8397 S   0  0  0  0  0  0  0  0  0  0  0  0
   -5.6037   -5.1287    2.6499 N   0  0  0  0  0  0  0  0  0  0  0  0
   -4.2732   -2.7058    0.3505 C   0  0  0  0  0  0  0  0  0  0  0  0
   -4.4324   -1.9415   -0.8168 C   0  0  0  0  0  0  0  0  0  0  0  0
   -5.6755   -1.5019   -1.9398 S   0  0  0  0  0  0  0  0  0  0  0  0
   -4.4830   -0.6400   -2.8818 C   0  0  0  0  0  0  0  0  0  0  0  0
   -4.5693    0.0908   -4.0816 C   0  0  0  0  0  0  0  0  0  0  0  0
   -5.8197    0.2833   -4.8253 C   0  0  0  0  0  0  0  0  0  0  0  0
   -6.9131    0.8733   -4.2016 C   0  0  0  0  0  0  0  0  0  0  0  0
   -8.0768    1.0877   -4.9161 C   0  0  0  0  0  0  0  0  0  0  0  0
   -8.1569    0.7186   -6.2470 C   0  0  0  0  0  0  0  0  0  0  0  0
   -7.0816    0.1072   -6.8787 C   0  0  0  0  0  0  0  0  0  0  0  0
   -7.1760   -0.3313   -8.3115 C   0  0  0  0  0  0  0  0  0  0  0  0
   -7.6871   -1.7702   -8.4016 C   0  0  0  0  0  0  0  0  0  0  0  0
   -5.9228   -0.1207   -6.1522 C   0  0  0  0  0  0  0  0  0  0  0  0
   -3.3381    0.6021   -4.4497 C   0  0  0  0  0  0  0  0  0  0  0  0
   -2.0633    0.1534   -3.3227 S   0  0  0  0  0  0  0  0  0  0  0  0
   -3.1966   -0.7048   -2.3413 C   0  0  0  0  0  0  0  0  0  0  0  0
   -3.1706   -1.4416   -1.1515 C   0  0  0  0  0  0  0  0  0  0  0  0
   -2.2460   -1.8458   -0.2264 N   0  0  0  0  0  0  0  0  0  0  0  0
   -2.9030   -2.6057    0.7239 C   0  0  0  0  0  0  0  0  0  0  0  0
   -2.4672   -3.2374    1.9166 C   0  0  0  0  0  0  0  0  0  0  0  0
   -1.2810   -3.1753    2.6332 N   0  0  0  0  0  0  0  0  0  0  0  0
   -1.3971   -4.0413    3.6906 C   0  0  0  0  0  0  0  0  0  0  0  0
   -0.6165   -4.4445    4.7791 C   0  0  0  0  0  0  0  0  0  0  0  0
    0.9091   -4.0132    5.4583 S   0  0  0  0  0  0  0  0  0  0  0  0
   -0.3436   -2.0797    2.7557 C   0  0  0  0  0  0  0  0  0  0  0  0
   -1.0029   -0.8680    3.4118 C   0  0  0  0  0  0  0  0  0  0  0  0
   -0.8369   -1.7567   -0.5335 C   0  0  0  0  0  0  0  0  0  0  0  0
   -0.2797   -0.3540   -0.2931 C   0  0  0  0  0  0  0  0  0  0  0  0
   -2.9966    1.4842   -5.5128 C   0  0  0  0  0  0  0  0  0  0  0  0
   -1.7433    1.9403   -5.8156 C   0  0  0  0  0  0  0  0  0  0  0  0
   -1.7070    2.8661   -6.8840 C   0  0  0  0  0  0  0  0  0  0  0  0
   -0.5885    3.4994   -7.4601 C   0  0  0  0  0  0  0  0  0  0  0  0
    0.7591    3.3149   -6.9620 C   0  0  0  0  0  0  0  0  0  0  0  0
    1.9184    3.2592   -7.6841 C   0  0  0  0  0  0  0  0  0  0  0  0
    3.0514    3.1169   -6.8610 C   0  0  0  0  0  0  0  0  0  0  0  0
    4.2943    3.0141   -7.3640 F   0  0  0  0  0  0  0  0  0  0  0  0
    2.8021    3.0714   -5.5216 C   0  0  0  0  0  0  0  0  0  0  0  0
    3.7743    2.9536   -4.3994 C   0  0  0  0  0  0  0  0  0  0  0  0
    3.8437    4.2438   -3.5810 C   0  0  0  0  0  0  0  0  0  0  0  0
    1.0991    3.2073   -5.2534 S   0  0  0  0  0  0  0  0  0  0  0  0
   -0.8368    4.3462   -8.5413 C   0  0  0  0  0  0  0  0  0  0  0  0
   -2.1354    4.5595   -9.0740 C   0  0  0  0  0  0  0  0  0  0  0  0
   -3.2529    3.8834   -8.5275 C   0  0  0  0  0  0  0  0  0  0  0  0
   -4.5662    3.9702   -9.1264 C   0  0  0  0  0  0  0  0  0  0  0  0
   -6.0157    3.9462   -8.1572 S   0  0  0  0  0  0  0  0  0  0  0  0
   -7.0351    3.9866   -9.5535 C   0  0  0  0  0  0  0  0  0  0  0  0
   -8.5193    3.9929   -9.4435 C   0  0  0  0  0  0  0  0  0  0  0  0
   -9.0340    5.2131   -8.6709 C   0  0  0  0  0  0  0  0  0  0  0  0
   -8.6841    6.5183   -9.3732 C   0  0  0  0  0  0  0  0  0  0  0  0
   -6.2650    4.0190  -10.6789 C   0  0  0  0  0  0  0  0  0  0  0  0
   -4.8754    4.0107  -10.4591 C   0  0  0  0  0  0  0  0  0  0  0  0
   -6.7925    4.0422  -11.9173 F   0  0  0  0  0  0  0  0  0  0  0  0
   -3.0035    3.0922   -7.4162 C   0  0  0  0  0  0  0  0  0  0  0  0
   -4.2153    2.1864   -6.5529 S   0  0  0  0  0  0  0  0  0  0  0  0
   -2.1182    5.5251  -10.0948 C   0  0  0  0  0  0  0  0  0  0  0  0
   -0.8658    6.0320  -10.3699 C   0  0  0  0  0  0  0  0  0  0  0  0
    0.3627    5.3093   -9.3540 S   0  0  0  0  0  0  0  0  0  0  0  0
   -0.6291    7.0164  -11.3568 C   0  0  0  0  0  0  0  0  0  0  0  0
    0.5349    7.5945  -11.7541 C   0  0  0  0  0  0  0  0  0  0  0  0
    0.5596    8.6210  -12.8215 C   0  0  0  0  0  0  0  0  0  0  0  0
   -0.3918    9.0525  -13.4342 O   0  0  0  0  0  0  0  0  0  0  0  0
    1.9834    9.0032  -12.9771 C   0  0  0  0  0  0  0  0  0  0  0  0
    2.5624    9.9189  -13.8355 C   0  0  0  0  0  0  0  0  0  0  0  0
    3.9400   10.0893  -13.7795 C   0  0  0  0  0  0  0  0  0  0  0  0
    4.7154    9.3614  -12.8871 C   0  0  0  0  0  0  0  0  0  0  0  0
    4.1371    8.4404  -12.0231 C   0  0  0  0  0  0  0  0  0  0  0  0
    2.7664    8.2689  -12.0768 C   0  0  0  0  0  0  0  0  0  0  0  0
    1.9051    7.3641  -11.2790 C   0  0  0  0  0  0  0  0  0  0  0  0
    2.2758    6.5949  -10.4147 O   0  0  0  0  0  0  0  0  0  0  0  0
    5.1496   -6.6516   10.9404 H   0  0  0  0  0  0  0  0  0  0  0  0
    9.4880   -4.2332   12.8142 H   0  0  0  0  0  0  0  0  0  0  0  0
   11.3429   -2.6417   13.1885 H   0  0  0  0  0  0  0  0  0  0  0  0
   12.7578   -0.7663   12.3873 H   0  0  0  0  0  0  0  0  0  0  0  0
   10.6333   -0.6958    8.6877 H   0  0  0  0  0  0  0  0  0  0  0  0
    8.8111   -2.2718    8.2800 H   0  0  0  0  0  0  0  0  0  0  0  0
    3.1262    0.0739    7.7051 H   0  0  0  0  0  0  0  0  0  0  0  0
    3.2988   -0.6377    6.0981 H   0  0  0  0  0  0  0  0  0  0  0  0
    1.0457    0.3522    6.3989 H   0  0  0  0  0  0  0  0  0  0  0  0
    0.7481   -0.7159    7.7745 H   0  0  0  0  0  0  0  0  0  0  0  0
    0.9386   -1.3988    6.1623 H   0  0  0  0  0  0  0  0  0  0  0  0
    4.6589   -0.2819    9.3057 H   0  0  0  0  0  0  0  0  0  0  0  0
    5.9045   -1.4902    9.6540 H   0  0  0  0  0  0  0  0  0  0  0  0
    6.6058   -1.3926    7.2199 H   0  0  0  0  0  0  0  0  0  0  0  0
    5.4597   -0.0818    6.9688 H   0  0  0  0  0  0  0  0  0  0  0  0
    6.8099    0.1345    8.0794 H   0  0  0  0  0  0  0  0  0  0  0  0
   -1.9492   -8.0749    6.3414 H   0  0  0  0  0  0  0  0  0  0  0  0
   -2.9107   -9.5081    8.0967 H   0  0  0  0  0  0  0  0  0  0  0  0
   -2.5918   -8.9414   10.4709 H   0  0  0  0  0  0  0  0  0  0  0  0
   -0.4095   -6.2021   11.6560 H   0  0  0  0  0  0  0  0  0  0  0  0
   -1.2347   -7.6953   12.1236 H   0  0  0  0  0  0  0  0  0  0  0  0
   -2.6191   -5.0662   11.4020 H   0  0  0  0  0  0  0  0  0  0  0  0
   -2.4185   -5.7090   13.0360 H   0  0  0  0  0  0  0  0  0  0  0  0
   -3.4399   -6.5550   11.8685 H   0  0  0  0  0  0  0  0  0  0  0  0
   -0.4000   -5.4611    9.3463 H   0  0  0  0  0  0  0  0  0  0  0  0
   -6.8407    1.1773   -3.1681 H   0  0  0  0  0  0  0  0  0  0  0  0
   -8.9234    1.5533   -4.4337 H   0  0  0  0  0  0  0  0  0  0  0  0
   -9.0657    0.9035   -6.8021 H   0  0  0  0  0  0  0  0  0  0  0  0
   -6.1922   -0.2662   -8.7809 H   0  0  0  0  0  0  0  0  0  0  0  0
   -7.8557    0.3275   -8.8559 H   0  0  0  0  0  0  0  0  0  0  0  0
   -7.0165   -2.4434   -7.8724 H   0  0  0  0  0  0  0  0  0  0  0  0
   -8.6745   -1.8496   -7.9523 H   0  0  0  0  0  0  0  0  0  0  0  0
   -7.7506   -2.0874   -9.4398 H   0  0  0  0  0  0  0  0  0  0  0  0
   -5.0829   -0.6114   -6.6241 H   0  0  0  0  0  0  0  0  0  0  0  0
    0.0737   -1.8056    1.7920 H   0  0  0  0  0  0  0  0  0  0  0  0
    0.4748   -2.4397    3.3844 H   0  0  0  0  0  0  0  0  0  0  0  0
   -1.3755   -1.1305    4.3991 H   0  0  0  0  0  0  0  0  0  0  0  0
   -0.2808   -0.0628    3.5162 H   0  0  0  0  0  0  0  0  0  0  0  0
   -1.8401   -0.5176    2.8113 H   0  0  0  0  0  0  0  0  0  0  0  0
   -0.7143   -2.0001   -1.5952 H   0  0  0  0  0  0  0  0  0  0  0  0
   -0.3045   -2.5181    0.0378 H   0  0  0  0  0  0  0  0  0  0  0  0
   -0.7181    0.3446   -1.0005 H   0  0  0  0  0  0  0  0  0  0  0  0
    0.7971   -0.3561   -0.4385 H   0  0  0  0  0  0  0  0  0  0  0  0
   -0.5020   -0.0026    0.7105 H   0  0  0  0  0  0  0  0  0  0  0  0
   -0.8722    1.6037   -5.2840 H   0  0  0  0  0  0  0  0  0  0  0  0
    1.9776    3.2890   -8.7554 H   0  0  0  0  0  0  0  0  0  0  0  0
    3.4808    2.1276   -3.7460 H   0  0  0  0  0  0  0  0  0  0  0  0
    4.7564    2.7283   -4.8203 H   0  0  0  0  0  0  0  0  0  0  0  0
    2.8690    4.4729   -3.1556 H   0  0  0  0  0  0  0  0  0  0  0  0
    4.5622    4.1365   -2.7724 H   0  0  0  0  0  0  0  0  0  0  0  0
    4.1510    5.0750   -4.2112 H   0  0  0  0  0  0  0  0  0  0  0  0
   -8.9390    3.9883  -10.4521 H   0  0  0  0  0  0  0  0  0  0  0  0
   -8.8457    3.0845   -8.9289 H   0  0  0  0  0  0  0  0  0  0  0  0
   -8.5988    5.2053   -7.6690 H   0  0  0  0  0  0  0  0  0  0  0  0
  -10.1177    5.1308   -8.5699 H   0  0  0  0  0  0  0  0  0  0  0  0
   -9.0865    7.3654   -8.8234 H   0  0  0  0  0  0  0  0  0  0  0  0
   -7.6052    6.6378   -9.4445 H   0  0  0  0  0  0  0  0  0  0  0  0
   -9.0971    6.5329  -10.3795 H   0  0  0  0  0  0  0  0  0  0  0  0
   -4.1553    3.9834  -11.2554 H   0  0  0  0  0  0  0  0  0  0  0  0
   -2.9998    5.8762  -10.5998 H   0  0  0  0  0  0  0  0  0  0  0  0
   -1.5179    7.3619  -11.8788 H   0  0  0  0  0  0  0  0  0  0  0  0
    1.9525   10.4805  -14.5263 H   0  0  0  0  0  0  0  0  0  0  0  0
    4.4163   10.7985  -14.4401 H   0  0  0  0  0  0  0  0  0  0  0  0
    5.7843    9.5142  -12.8656 H   0  0  0  0  0  0  0  0  0  0  0  0
    4.7313    7.8695  -11.3261 H   0  0  0  0  0  0  0  0  0  0  0  0
  1  2  2  0  0  0  0
  2  3  1  0  0  0  0
  3  4  2  0  0  0  0
  3  5  1  0  0  0  0
  5  6  2  0  0  0  0
  6  7  1  0  0  0  0
  7  8  2  0  0  0  0
  8  9  1  0  0  0  0
  9 10  2  0  0  0  0
 10 11  1  0  0  0  0
 10 12  1  0  0  0  0
 12 13  2  0  0  0  0
 13 14  1  0  0  0  0
 14 15  2  0  0  0  0
 15 16  1  0  0  0  0
 16 17  2  0  0  0  0
 17 18  1  0  0  0  0
 18 19  3  0  0  0  0
 17 20  1  0  0  0  0
 20 21  3  0  0  0  0
  1 22  1  0  0  0  0
 22 23  2  0  0  0  0
 23 24  1  0  0  0  0
 23 25  1  0  0  0  0
 25 26  1  0  0  0  0
 25 27  2  0  0  0  0
 27 28  1  0  0  0  0
 28 29  2  0  0  0  0
 29 30  1  0  0  0  0
 30 31  1  0  0  0  0
 31 32  1  0  0  0  0
 30 33  2  0  0  0  0
 33 34  1  0  0  0  0
 34 35  2  0  0  0  0
 33 36  1  0  0  0  0
 36 37  1  0  0  0  0
 27 38  1  0  0  0  0
 38 39  2  0  0  0  0
 39 40  1  0  0  0  0
 40 41  2  0  0  0  0
 41 42  1  0  0  0  0
 42 43  2  0  0  0  0
 43 44  1  0  0  0  0
 44 45  1  0  0  0  0
 45 46  1  0  0  0  0
 44 47  2  0  0  0  0
 39 48  1  0  0  0  0
 48 49  1  0  0  0  0
 49 50  1  0  0  0  0
 50 51  1  0  0  0  0
 51 52  1  0  0  0  0
 52 53  1  0  0  0  0
 53 54  2  0  0  0  0
 54 55  1  0  0  0  0
 55 56  1  0  0  0  0
 53 57  1  0  0  0  0
 57 58  1  0  0  0  0
 58 59  1  0  0  0  0
 59 60  1  0  0  0  0
 60 61  1  0  0  0  0
 61 62  1  0  0  0  0
 62 63  2  0  0  0  0
 63 64  1  0  0  0  0
 64 65  2  0  0  0  0
 65 66  1  0  0  0  0
 66 67  1  0  0  0  0
 67 68  1  0  0  0  0
 66 69  2  0  0  0  0
 61 70  2  0  0  0  0
 70 71  1  0  0  0  0
 71 72  1  0  0  0  0
 72 73  1  0  0  0  0
 73 74  1  0  0  0  0
 74 75  1  0  0  0  0
 75 76  1  0  0  0  0
 76 77  1  0  0  0  0
 77 78  1  0  0  0  0
 78 79  1  0  0  0  0
 79 80  1  0  0  0  0
 77 81  1  0  0  0  0
 81 82  1  0  0  0  0
 74 83  1  0  0  0  0
 83 84  1  0  0  0  0
 70 85  1  0  0  0  0
 85 86  2  0  0  0  0
 86 87  1  0  0  0  0
 87 88  2  0  0  0  0
 88 89  1  0  0  0  0
 89 90  2  0  0  0  0
 90 91  1  0  0  0  0
 91 92  1  0  0  0  0
 91 93  2  0  0  0  0
 93 94  1  0  0  0  0
 94 95  1  0  0  0  0
 93 96  1  0  0  0  0
 88 97  1  0  0  0  0
 97 98  2  0  0  0  0
 98 99  1  0  0  0  0
 99100  1  0  0  0  0
100101  1  0  0  0  0
101102  1  0  0  0  0
102103  1  0  0  0  0
103104  1  0  0  0  0
104105  1  0  0  0  0
102106  2  0  0  0  0
106107  1  0  0  0  0
106108  1  0  0  0  0
 99109  2  0  0  0  0
109110  1  0  0  0  0
 98111  1  0  0  0  0
111112  2  0  0  0  0
112113  1  0  0  0  0
112114  1  0  0  0  0
114115  2  0  0  0  0
115116  1  0  0  0  0
116117  2  0  0  0  0
116118  1  0  0  0  0
118119  2  0  0  0  0
119120  1  0  0  0  0
120121  2  0  0  0  0
121122  1  0  0  0  0
122123  2  0  0  0  0
123124  1  0  0  0  0
124125  2  0  0  0  0
 16  2  1  0  0  0  0
 35 22  1  0  0  0  0
 80 38  1  0  0  0  0
110 85  1  0  0  0  0
124115  1  0  0  0  0
 15  5  1  0  0  0  0
 35 28  1  0  0  0  0
 47 40  1  0  0  0  0
 79 48  2  0  0  0  0
109 87  1  0  0  0  0
123118  1  0  0  0  0
 13  7  1  0  0  0  0
 78 50  2  0  0  0  0
 96 89  1  0  0  0  0
113 97  1  0  0  0  0
 76 51  2  0  0  0  0
107100  2  0  0  0  0
 56 52  2  0  0  0  0
 75 57  2  0  0  0  0
 73 58  2  0  0  0  0
 72 60  2  0  0  0  0
 69 62  1  0  0  0  0
  1126  1  0  0  0  0
  6127  1  0  0  0  0
  8128  1  0  0  0  0
  9129  1  0  0  0  0
 12130  1  0  0  0  0
 14131  1  0  0  0  0
 31132  1  0  0  0  0
 31133  1  0  0  0  0
 32134  1  0  0  0  0
 32135  1  0  0  0  0
 32136  1  0  0  0  0
 36137  1  0  0  0  0
 36138  1  0  0  0  0
 37139  1  0  0  0  0
 37140  1  0  0  0  0
 37141  1  0  0  0  0
 41142  1  0  0  0  0
 42143  1  0  0  0  0
 43144  1  0  0  0  0
 45145  1  0  0  0  0
 45146  1  0  0  0  0
 46147  1  0  0  0  0
 46148  1  0  0  0  0
 46149  1  0  0  0  0
 47150  1  0  0  0  0
 63151  1  0  0  0  0
 64152  1  0  0  0  0
 65153  1  0  0  0  0
 67154  1  0  0  0  0
 67155  1  0  0  0  0
 68156  1  0  0  0  0
 68157  1  0  0  0  0
 68158  1  0  0  0  0
 69159  1  0  0  0  0
 81160  1  0  0  0  0
 81161  1  0  0  0  0
 82162  1  0  0  0  0
 82163  1  0  0  0  0
 82164  1  0  0  0  0
 83165  1  0  0  0  0
 83166  1  0  0  0  0
 84167  1  0  0  0  0
 84168  1  0  0  0  0
 84169  1  0  0  0  0
 86170  1  0  0  0  0
 90171  1  0  0  0  0
 94172  1  0  0  0  0
 94173  1  0  0  0  0
 95174  1  0  0  0  0
 95175  1  0  0  0  0
 95176  1  0  0  0  0
103177  1  0  0  0  0
103178  1  0  0  0  0
104179  1  0  0  0  0
104180  1  0  0  0  0
105181  1  0  0  0  0
105182  1  0  0  0  0
105183  1  0  0  0  0
107184  1  0  0  0  0
111185  1  0  0  0  0
114186  1  0  0  0  0
119187  1  0  0  0  0
120188  1  0  0  0  0
121189  1  0  0  0  0
122190  1  0  0  0  0
M  END
