
  xtb     02052210383D
 energy: -327.307437542912 gnorm: 0.000877820515 xtb: 6.4.1 (unknown)
185205  0     0  0            999 V2000
  -10.3588    4.9129   -2.4823 C   0  0  0  0  0  0  0  0  0  0  0  0
  -10.1730    6.2341   -2.2276 C   0  0  0  0  0  0  0  0  0  0  0  0
   -8.8457    6.9070   -2.1940 C   0  0  0  0  0  0  0  0  0  0  0  0
   -7.7897    6.4908   -2.6203 O   0  0  0  0  0  0  0  0  0  0  0  0
   -9.1152    8.2736   -1.7037 C   0  0  0  0  0  0  0  0  0  0  0  0
   -8.2265    9.2607   -1.3921 C   0  0  0  0  0  0  0  0  0  0  0  0
   -8.7101   10.5075   -0.9361 C   0  0  0  0  0  0  0  0  0  0  0  0
   -7.8357   11.5552   -0.5823 C   0  0  0  0  0  0  0  0  0  0  0  0
   -8.3169   12.7564   -0.1411 C   0  0  0  0  0  0  0  0  0  0  0  0
   -9.7035   12.9366   -0.0439 C   0  0  0  0  0  0  0  0  0  0  0  0
  -10.1580   14.1257    0.3943 F   0  0  0  0  0  0  0  0  0  0  0  0
  -10.5952   11.9552   -0.3750 C   0  0  0  0  0  0  0  0  0  0  0  0
  -10.1167   10.7106   -0.8303 C   0  0  0  0  0  0  0  0  0  0  0  0
  -11.0145    9.6742   -1.1752 C   0  0  0  0  0  0  0  0  0  0  0  0
  -10.5215    8.4690   -1.6016 C   0  0  0  0  0  0  0  0  0  0  0  0
  -11.1966    7.2325   -1.9863 C   0  0  0  0  0  0  0  0  0  0  0  0
  -12.5537    7.0522   -2.0523 C   0  0  0  0  0  0  0  0  0  0  0  0
  -13.2000    5.8476   -2.3995 C   0  0  0  0  0  0  0  0  0  0  0  0
  -13.8063    4.9083   -2.6635 N   0  0  0  0  0  0  0  0  0  0  0  0
  -13.5008    8.0636   -1.7891 C   0  0  0  0  0  0  0  0  0  0  0  0
  -14.3209    8.8437   -1.5956 N   0  0  0  0  0  0  0  0  0  0  0  0
   -9.3364    3.9183   -2.3634 C   0  0  0  0  0  0  0  0  0  0  0  0
   -9.3759    2.7849   -3.1883 C   0  0  0  0  0  0  0  0  0  0  0  0
  -10.3189    2.8507   -4.1470 O   0  0  0  0  0  0  0  0  0  0  0  0
  -10.8976    1.7046   -4.7606 C   0  0  0  0  0  0  0  0  0  0  0  0
  -11.5856    0.7987   -3.7509 C   0  0  0  0  0  0  0  0  0  0  0  0
   -8.3945    1.7670   -3.0581 C   0  0  0  0  0  0  0  0  0  0  0  0
   -8.4111    0.7325   -3.9636 O   0  0  0  0  0  0  0  0  0  0  0  0
   -7.2797    0.6191   -4.8188 C   0  0  0  0  0  0  0  0  0  0  0  0
   -7.0810    1.8505   -5.6951 C   0  0  0  0  0  0  0  0  0  0  0  0
   -7.4309    1.8385   -2.0553 C   0  0  0  0  0  0  0  0  0  0  0  0
   -7.3719    2.9962   -1.2254 C   0  0  0  0  0  0  0  0  0  0  0  0
   -8.3435    4.0202   -1.3531 C   0  0  0  0  0  0  0  0  0  0  0  0
   -8.3728    5.0281   -0.4656 N   0  0  0  0  0  0  0  0  0  0  0  0
   -7.4172    5.0972    0.4229 C   0  0  0  0  0  0  0  0  0  0  0  0
   -6.3831    4.1481    0.4672 C   0  0  0  0  0  0  0  0  0  0  0  0
   -6.3955    3.0982   -0.3119 N   0  0  0  0  0  0  0  0  0  0  0  0
   -6.4596    0.7943   -1.8310 C   0  0  0  0  0  0  0  0  0  0  0  0
   -6.6623   -0.5736   -1.8346 C   0  0  0  0  0  0  0  0  0  0  0  0
   -7.9608   -1.2349   -1.9646 C   0  0  0  0  0  0  0  0  0  0  0  0
   -8.0980   -2.3537   -2.7795 C   0  0  0  0  0  0  0  0  0  0  0  0
   -9.3192   -2.9943   -2.8689 C   0  0  0  0  0  0  0  0  0  0  0  0
  -10.4018   -2.5380   -2.1390 C   0  0  0  0  0  0  0  0  0  0  0  0
  -10.2786   -1.4296   -1.3088 C   0  0  0  0  0  0  0  0  0  0  0  0
  -11.4375   -0.9735   -0.4687 C   0  0  0  0  0  0  0  0  0  0  0  0
  -11.4865   -1.7632    0.8407 C   0  0  0  0  0  0  0  0  0  0  0  0
   -9.0539   -0.7851   -1.2309 C   0  0  0  0  0  0  0  0  0  0  0  0
   -5.4587   -1.2654   -1.5965 C   0  0  0  0  0  0  0  0  0  0  0  0
   -5.0847   -2.9639   -1.4138 S   0  0  0  0  0  0  0  0  0  0  0  0
   -3.4391   -2.5389   -1.0802 C   0  0  0  0  0  0  0  0  0  0  0  0
   -2.2305   -3.1557   -0.7157 C   0  0  0  0  0  0  0  0  0  0  0  0
   -1.9307   -4.4914   -0.3677 C   0  0  0  0  0  0  0  0  0  0  0  0
   -0.6233   -4.8008    0.1401 C   0  0  0  0  0  0  0  0  0  0  0  0
   -0.5063   -6.0704    0.4945 N   0  0  0  0  0  0  0  0  0  0  0  0
   -1.9155   -6.8157    0.2078 S   0  0  0  0  0  0  0  0  0  0  0  0
   -2.7312   -5.5453   -0.3779 N   0  0  0  0  0  0  0  0  0  0  0  0
    0.3674   -3.7937    0.1342 C   0  0  0  0  0  0  0  0  0  0  0  0
    1.7449   -3.8446    0.3920 C   0  0  0  0  0  0  0  0  0  0  0  0
    2.9314   -4.9742    0.9531 S   0  0  0  0  0  0  0  0  0  0  0  0
    4.1632   -3.7608    0.6772 C   0  0  0  0  0  0  0  0  0  0  0  0
    5.5460   -3.7745    0.8476 C   0  0  0  0  0  0  0  0  0  0  0  0
    6.2718   -4.9576    1.3286 C   0  0  0  0  0  0  0  0  0  0  0  0
    7.1419   -5.6381    0.4809 C   0  0  0  0  0  0  0  0  0  0  0  0
    7.8126   -6.7534    0.9418 C   0  0  0  0  0  0  0  0  0  0  0  0
    7.6236   -7.1932    2.2406 C   0  0  0  0  0  0  0  0  0  0  0  0
    6.7494   -6.5329    3.0922 C   0  0  0  0  0  0  0  0  0  0  0  0
    6.5014   -7.0339    4.4848 C   0  0  0  0  0  0  0  0  0  0  0  0
    5.2706   -7.9422    4.5119 C   0  0  0  0  0  0  0  0  0  0  0  0
    6.0663   -5.4218    2.6204 C   0  0  0  0  0  0  0  0  0  0  0  0
    6.1305   -2.5633    0.4640 C   0  0  0  0  0  0  0  0  0  0  0  0
    4.9372   -1.4348   -0.1724 S   0  0  0  0  0  0  0  0  0  0  0  0
    3.6661   -2.5497    0.1761 C   0  0  0  0  0  0  0  0  0  0  0  0
    2.2758   -2.6004    0.0310 C   0  0  0  0  0  0  0  0  0  0  0  0
    1.2719   -1.7750   -0.4022 N   0  0  0  0  0  0  0  0  0  0  0  0
    0.0850   -2.4746   -0.3251 C   0  0  0  0  0  0  0  0  0  0  0  0
   -1.2593   -2.1216   -0.6073 C   0  0  0  0  0  0  0  0  0  0  0  0
   -1.8769   -0.9056   -0.8590 N   0  0  0  0  0  0  0  0  0  0  0  0
   -3.1955   -1.1652   -1.1296 C   0  0  0  0  0  0  0  0  0  0  0  0
   -4.3547   -0.4298   -1.4104 C   0  0  0  0  0  0  0  0  0  0  0  0
   -4.8011    1.2367   -1.4900 S   0  0  0  0  0  0  0  0  0  0  0  0
   -1.5365    0.4115   -0.3667 C   0  0  0  0  0  0  0  0  0  0  0  0
   -1.9647    0.5773    1.0908 C   0  0  0  0  0  0  0  0  0  0  0  0
    1.5921   -0.5622   -1.1199 C   0  0  0  0  0  0  0  0  0  0  0  0
    2.0187    0.5666   -0.1806 C   0  0  0  0  0  0  0  0  0  0  0  0
    7.4792   -2.2089    0.6998 C   0  0  0  0  0  0  0  0  0  0  0  0
    8.3905   -3.1730    1.8270 S   0  0  0  0  0  0  0  0  0  0  0  0
    9.8031   -2.1693    1.6448 C   0  0  0  0  0  0  0  0  0  0  0  0
    9.5539   -1.1220    0.7502 C   0  0  0  0  0  0  0  0  0  0  0  0
   10.5445   -0.0856    0.4086 C   0  0  0  0  0  0  0  0  0  0  0  0
   11.5457    0.1352    1.0695 O   0  0  0  0  0  0  0  0  0  0  0  0
   10.2008    0.6582   -0.8000 C   0  0  0  0  0  0  0  0  0  0  0  0
   11.0707    1.4530   -1.5018 C   0  0  0  0  0  0  0  0  0  0  0  0
   12.4912    1.7633   -1.2045 C   0  0  0  0  0  0  0  0  0  0  0  0
   12.5956    2.9681   -0.2643 C   0  0  0  0  0  0  0  0  0  0  0  0
   10.2860    2.1454   -2.8825 S   0  0  0  0  0  0  0  0  0  0  0  0
    8.7789    1.3814   -2.5064 C   0  0  0  0  0  0  0  0  0  0  0  0
    7.5832    1.6196   -3.3552 C   0  0  0  0  0  0  0  0  0  0  0  0
    6.7221    2.7450   -2.7740 C   0  0  0  0  0  0  0  0  0  0  0  0
    8.8908    0.6143   -1.3736 C   0  0  0  0  0  0  0  0  0  0  0  0
    7.8122   -0.1795   -0.7925 C   0  0  0  0  0  0  0  0  0  0  0  0
    6.6440   -0.0569   -1.1478 O   0  0  0  0  0  0  0  0  0  0  0  0
    8.2507   -1.1390    0.2127 C   0  0  0  0  0  0  0  0  0  0  0  0
   11.0608   -2.4374    2.2107 C   0  0  0  0  0  0  0  0  0  0  0  0
   11.4266   -3.4003    3.1128 C   0  0  0  0  0  0  0  0  0  0  0  0
   10.5257   -4.2833    3.8696 C   0  0  0  0  0  0  0  0  0  0  0  0
    9.3281   -4.4415    3.7139 O   0  0  0  0  0  0  0  0  0  0  0  0
   11.3615   -4.9307    4.8945 C   0  0  0  0  0  0  0  0  0  0  0  0
   10.9844   -5.8001    5.8767 C   0  0  0  0  0  0  0  0  0  0  0  0
   11.9605   -6.2909    6.7721 C   0  0  0  0  0  0  0  0  0  0  0  0
   11.6291   -7.1931    7.8035 C   0  0  0  0  0  0  0  0  0  0  0  0
   12.5822   -7.6572    8.6668 C   0  0  0  0  0  0  0  0  0  0  0  0
   13.9051   -7.2207    8.5141 C   0  0  0  0  0  0  0  0  0  0  0  0
   14.8289   -7.6877    9.3736 F   0  0  0  0  0  0  0  0  0  0  0  0
   14.2803   -6.3472    7.5315 C   0  0  0  0  0  0  0  0  0  0  0  0
   13.3123   -5.8610    6.6315 C   0  0  0  0  0  0  0  0  0  0  0  0
   13.6733   -4.9629    5.5994 C   0  0  0  0  0  0  0  0  0  0  0  0
   12.7121   -4.5079    4.7373 C   0  0  0  0  0  0  0  0  0  0  0  0
   12.7817   -3.6130    3.5853 C   0  0  0  0  0  0  0  0  0  0  0  0
   13.9315   -3.1462    3.0043 C   0  0  0  0  0  0  0  0  0  0  0  0
   14.0048   -2.4258    1.7914 C   0  0  0  0  0  0  0  0  0  0  0  0
   14.1641   -1.8944    0.7860 N   0  0  0  0  0  0  0  0  0  0  0  0
   15.2222   -3.3935    3.5164 C   0  0  0  0  0  0  0  0  0  0  0  0
   16.2948   -3.5607    3.8903 N   0  0  0  0  0  0  0  0  0  0  0  0
  -11.3379    4.5413   -2.7535 H   0  0  0  0  0  0  0  0  0  0  0  0
   -7.1642    9.0896   -1.4839 H   0  0  0  0  0  0  0  0  0  0  0  0
   -6.7715   11.3929   -0.6664 H   0  0  0  0  0  0  0  0  0  0  0  0
   -7.6617   13.5678    0.1336 H   0  0  0  0  0  0  0  0  0  0  0  0
  -11.6564   12.1290   -0.2881 H   0  0  0  0  0  0  0  0  0  0  0  0
  -12.0727    9.8613   -1.0880 H   0  0  0  0  0  0  0  0  0  0  0  0
  -11.6290    2.1388   -5.4481 H   0  0  0  0  0  0  0  0  0  0  0  0
  -10.1569    1.1404   -5.3314 H   0  0  0  0  0  0  0  0  0  0  0  0
  -12.2903    1.3715   -3.1522 H   0  0  0  0  0  0  0  0  0  0  0  0
  -10.8500    0.3358   -3.0981 H   0  0  0  0  0  0  0  0  0  0  0  0
  -12.1234    0.0149   -4.2761 H   0  0  0  0  0  0  0  0  0  0  0  0
   -6.3702    0.4264   -4.2390 H   0  0  0  0  0  0  0  0  0  0  0  0
   -7.5004   -0.2615   -5.4262 H   0  0  0  0  0  0  0  0  0  0  0  0
   -7.9719    2.0513   -6.2858 H   0  0  0  0  0  0  0  0  0  0  0  0
   -6.8689    2.7244   -5.0815 H   0  0  0  0  0  0  0  0  0  0  0  0
   -6.2442    1.6846   -6.3677 H   0  0  0  0  0  0  0  0  0  0  0  0
   -7.4755    5.9089    1.1353 H   0  0  0  0  0  0  0  0  0  0  0  0
   -5.5656    4.2230    1.1704 H   0  0  0  0  0  0  0  0  0  0  0  0
   -7.2525   -2.7082   -3.3495 H   0  0  0  0  0  0  0  0  0  0  0  0
   -9.4259   -3.8575   -3.5091 H   0  0  0  0  0  0  0  0  0  0  0  0
  -11.3534   -3.0447   -2.2103 H   0  0  0  0  0  0  0  0  0  0  0  0
  -12.3712   -1.1231   -1.0145 H   0  0  0  0  0  0  0  0  0  0  0  0
  -11.3395    0.0908   -0.2447 H   0  0  0  0  0  0  0  0  0  0  0  0
  -10.5675   -1.6178    1.4044 H   0  0  0  0  0  0  0  0  0  0  0  0
  -11.5976   -2.8259    0.6381 H   0  0  0  0  0  0  0  0  0  0  0  0
  -12.3247   -1.4358    1.4512 H   0  0  0  0  0  0  0  0  0  0  0  0
   -8.9403    0.0718   -0.5806 H   0  0  0  0  0  0  0  0  0  0  0  0
    7.2904   -5.2840   -0.5292 H   0  0  0  0  0  0  0  0  0  0  0  0
    8.4896   -7.2814    0.2860 H   0  0  0  0  0  0  0  0  0  0  0  0
    8.1641   -8.0586    2.5969 H   0  0  0  0  0  0  0  0  0  0  0  0
    6.3426   -6.1872    5.1553 H   0  0  0  0  0  0  0  0  0  0  0  0
    7.3714   -7.5921    4.8363 H   0  0  0  0  0  0  0  0  0  0  0  0
    4.3940   -7.4023    4.1616 H   0  0  0  0  0  0  0  0  0  0  0  0
    5.0804   -8.2980    5.5219 H   0  0  0  0  0  0  0  0  0  0  0  0
    5.4218   -8.8022    3.8632 H   0  0  0  0  0  0  0  0  0  0  0  0
    5.3855   -4.8920    3.2708 H   0  0  0  0  0  0  0  0  0  0  0  0
   -2.0678    1.1350   -0.9915 H   0  0  0  0  0  0  0  0  0  0  0  0
   -0.4723    0.5924   -0.4538 H   0  0  0  0  0  0  0  0  0  0  0  0
   -3.0394    0.4466    1.1892 H   0  0  0  0  0  0  0  0  0  0  0  0
   -1.4660   -0.1592    1.7178 H   0  0  0  0  0  0  0  0  0  0  0  0
   -1.7035    1.5723    1.4406 H   0  0  0  0  0  0  0  0  0  0  0  0
    0.7383   -0.2848   -1.7402 H   0  0  0  0  0  0  0  0  0  0  0  0
    2.4295   -0.7850   -1.7907 H   0  0  0  0  0  0  0  0  0  0  0  0
    2.9933    0.3446    0.2444 H   0  0  0  0  0  0  0  0  0  0  0  0
    1.3144    0.6940    0.6384 H   0  0  0  0  0  0  0  0  0  0  0  0
    2.0930    1.4986   -0.7342 H   0  0  0  0  0  0  0  0  0  0  0  0
   12.9474    0.9001   -0.7153 H   0  0  0  0  0  0  0  0  0  0  0  0
   13.0229    1.9760   -2.1340 H   0  0  0  0  0  0  0  0  0  0  0  0
   13.6406    3.1972   -0.0765 H   0  0  0  0  0  0  0  0  0  0  0  0
   12.1173    3.8415   -0.7033 H   0  0  0  0  0  0  0  0  0  0  0  0
   12.1158    2.7376    0.6830 H   0  0  0  0  0  0  0  0  0  0  0  0
    6.9849    0.7067   -3.3875 H   0  0  0  0  0  0  0  0  0  0  0  0
    7.8989    1.8811   -4.3670 H   0  0  0  0  0  0  0  0  0  0  0  0
    5.8717    2.9323   -3.4238 H   0  0  0  0  0  0  0  0  0  0  0  0
    6.3538    2.4549   -1.7937 H   0  0  0  0  0  0  0  0  0  0  0  0
    7.3014    3.6609   -2.6810 H   0  0  0  0  0  0  0  0  0  0  0  0
   11.8343   -1.7510    1.8848 H   0  0  0  0  0  0  0  0  0  0  0  0
    9.9532   -6.1070    5.9689 H   0  0  0  0  0  0  0  0  0  0  0  0
   10.6029   -7.5138    7.9018 H   0  0  0  0  0  0  0  0  0  0  0  0
   12.3456   -8.3479    9.4605 H   0  0  0  0  0  0  0  0  0  0  0  0
   15.3087   -6.0338    7.4428 H   0  0  0  0  0  0  0  0  0  0  0  0
   14.7035   -4.6545    5.5220 H   0  0  0  0  0  0  0  0  0  0  0  0
  1  2  2  0  0  0  0
  2  3  1  0  0  0  0
  3  4  2  0  0  0  0
  3  5  1  0  0  0  0
  5  6  2  0  0  0  0
  6  7  1  0  0  0  0
  7  8  2  0  0  0  0
  8  9  1  0  0  0  0
  9 10  2  0  0  0  0
 10 11  1  0  0  0  0
 10 12  1  0  0  0  0
 12 13  2  0  0  0  0
 13 14  1  0  0  0  0
 14 15  2  0  0  0  0
 15 16  1  0  0  0  0
 16 17  2  0  0  0  0
 17 18  1  0  0  0  0
 18 19  3  0  0  0  0
 17 20  1  0  0  0  0
 20 21  3  0  0  0  0
  1 22  1  0  0  0  0
 22 23  2  0  0  0  0
 23 24  1  0  0  0  0
 24 25  1  0  0  0  0
 25 26  1  0  0  0  0
 23 27  1  0  0  0  0
 27 28  1  0  0  0  0
 28 29  1  0  0  0  0
 29 30  1  0  0  0  0
 27 31  2  0  0  0  0
 31 32  1  0  0  0  0
 32 33  2  0  0  0  0
 33 34  1  0  0  0  0
 34 35  2  0  0  0  0
 35 36  1  0  0  0  0
 36 37  2  0  0  0  0
 31 38  1  0  0  0  0
 38 39  2  0  0  0  0
 39 40  1  0  0  0  0
 40 41  2  0  0  0  0
 41 42  1  0  0  0  0
 42 43  2  0  0  0  0
 43 44  1  0  0  0  0
 44 45  1  0  0  0  0
 45 46  1  0  0  0  0
 44 47  2  0  0  0  0
 39 48  1  0  0  0  0
 48 49  1  0  0  0  0
 49 50  1  0  0  0  0
 50 51  1  0  0  0  0
 51 52  1  0  0  0  0
 52 53  1  0  0  0  0
 53 54  2  0  0  0  0
 54 55  1  0  0  0  0
 55 56  1  0  0  0  0
 53 57  1  0  0  0  0
 57 58  1  0  0  0  0
 58 59  1  0  0  0  0
 59 60  1  0  0  0  0
 60 61  1  0  0  0  0
 61 62  1  0  0  0  0
 62 63  2  0  0  0  0
 63 64  1  0  0  0  0
 64 65  2  0  0  0  0
 65 66  1  0  0  0  0
 66 67  1  0  0  0  0
 67 68  1  0  0  0  0
 66 69  2  0  0  0  0
 61 70  2  0  0  0  0
 70 71  1  0  0  0  0
 71 72  1  0  0  0  0
 72 73  1  0  0  0  0
 73 74  1  0  0  0  0
 74 75  1  0  0  0  0
 75 76  1  0  0  0  0
 76 77  1  0  0  0  0
 77 78  1  0  0  0  0
 78 79  1  0  0  0  0
 79 80  1  0  0  0  0
 77 81  1  0  0  0  0
 81 82  1  0  0  0  0
 74 83  1  0  0  0  0
 83 84  1  0  0  0  0
 70 85  1  0  0  0  0
 85 86  1  0  0  0  0
 86 87  1  0  0  0  0
 87 88  2  0  0  0  0
 88 89  1  0  0  0  0
 89 90  2  0  0  0  0
 89 91  1  0  0  0  0
 91 92  2  0  0  0  0
 92 93  1  0  0  0  0
 93 94  1  0  0  0  0
 92 95  1  0  0  0  0
 95 96  1  0  0  0  0
 96 97  1  0  0  0  0
 97 98  1  0  0  0  0
 96 99  2  0  0  0  0
 99100  1  0  0  0  0
100101  2  0  0  0  0
100102  1  0  0  0  0
 87103  1  0  0  0  0
103104  2  0  0  0  0
104105  1  0  0  0  0
105106  2  0  0  0  0
105107  1  0  0  0  0
107108  2  0  0  0  0
108109  1  0  0  0  0
109110  2  0  0  0  0
110111  1  0  0  0  0
111112  2  0  0  0  0
112113  1  0  0  0  0
112114  1  0  0  0  0
114115  2  0  0  0  0
115116  1  0  0  0  0
116117  2  0  0  0  0
117118  1  0  0  0  0
118119  2  0  0  0  0
119120  1  0  0  0  0
120121  3  0  0  0  0
119122  1  0  0  0  0
122123  3  0  0  0  0
 16  2  1  0  0  0  0
 33 22  1  0  0  0  0
 80 38  1  0  0  0  0
102 85  2  0  0  0  0
118104  1  0  0  0  0
 15  5  1  0  0  0  0
 37 32  1  0  0  0  0
 47 40  1  0  0  0  0
 79 48  2  0  0  0  0
102 88  1  0  0  0  0
117107  1  0  0  0  0
 13  7  1  0  0  0  0
 78 50  2  0  0  0  0
 99 91  1  0  0  0  0
115109  1  0  0  0  0
 76 51  2  0  0  0  0
 56 52  2  0  0  0  0
 75 57  2  0  0  0  0
 73 58  2  0  0  0  0
 72 60  2  0  0  0  0
 69 62  1  0  0  0  0
  1124  1  0  0  0  0
  6125  1  0  0  0  0
  8126  1  0  0  0  0
  9127  1  0  0  0  0
 12128  1  0  0  0  0
 14129  1  0  0  0  0
 25130  1  0  0  0  0
 25131  1  0  0  0  0
 26132  1  0  0  0  0
 26133  1  0  0  0  0
 26134  1  0  0  0  0
 29135  1  0  0  0  0
 29136  1  0  0  0  0
 30137  1  0  0  0  0
 30138  1  0  0  0  0
 30139  1  0  0  0  0
 35140  1  0  0  0  0
 36141  1  0  0  0  0
 41142  1  0  0  0  0
 42143  1  0  0  0  0
 43144  1  0  0  0  0
 45145  1  0  0  0  0
 45146  1  0  0  0  0
 46147  1  0  0  0  0
 46148  1  0  0  0  0
 46149  1  0  0  0  0
 47150  1  0  0  0  0
 63151  1  0  0  0  0
 64152  1  0  0  0  0
 65153  1  0  0  0  0
 67154  1  0  0  0  0
 67155  1  0  0  0  0
 68156  1  0  0  0  0
 68157  1  0  0  0  0
 68158  1  0  0  0  0
 69159  1  0  0  0  0
 81160  1  0  0  0  0
 81161  1  0  0  0  0
 82162  1  0  0  0  0
 82163  1  0  0  0  0
 82164  1  0  0  0  0
 83165  1  0  0  0  0
 83166  1  0  0  0  0
 84167  1  0  0  0  0
 84168  1  0  0  0  0
 84169  1  0  0  0  0
 93170  1  0  0  0  0
 93171  1  0  0  0  0
 94172  1  0  0  0  0
 94173  1  0  0  0  0
 94174  1  0  0  0  0
 97175  1  0  0  0  0
 97176  1  0  0  0  0
 98177  1  0  0  0  0
 98178  1  0  0  0  0
 98179  1  0  0  0  0
103180  1  0  0  0  0
108181  1  0  0  0  0
110182  1  0  0  0  0
111183  1  0  0  0  0
114184  1  0  0  0  0
116185  1  0  0  0  0
M  END
