149

C          3.98180        2.38160        9.70460
C          4.44340        3.63400        9.89480
C          5.26010        4.37210        8.88500
O          6.04420        3.90120        8.09000
C          5.05000        5.79780        9.20710
C          5.41790        6.90460        8.49940
C          5.11740        8.18560        9.01460
C          5.46970        9.36070        8.31940
C          5.17690       10.59530        8.82810
C          4.51500       10.68180       10.06080
F          4.23440       11.90540       10.54410
C          4.15020        9.57540       10.77570
C          4.44510        8.29480       10.26720
C          4.08460        7.13180       10.98470
C          4.38220        5.90050       10.46210
C          4.12500        4.55870       10.97060
C          3.71090        4.22380       12.22880
C          3.41200        5.16120       13.23970
N          3.15360        5.88630       14.09070
C          3.59760        2.88780       12.66950
N          3.52130        1.81330       13.06510
C          4.06700        1.72740        8.40960
C          4.36560        0.38900        8.23130
O          4.78140       -0.44950        9.20290
C          5.68680        0.00730       10.20190
C          6.96610        0.57510        9.60090
C          4.23490       -0.23110        6.94160
O          4.50750       -1.55780        6.94310
C          3.69460       -2.44590        6.18820
C          2.21700       -2.32260        6.53570
C          3.90420        0.52270        5.83170
C          3.61060        1.90310        5.99500
C          3.68490        2.50610        7.27770
N          3.39210        3.80790        7.42270
C          3.08790        4.50340        6.35770
C          3.06100        3.91320        5.08480
N          3.30510        2.64010        4.91500
C          3.93690        0.00450        4.46740
C          5.03640       -0.40790        3.76330
C          6.44180       -0.42450        4.27470
C          6.94740       -1.84590        4.52340
C          4.68060       -0.79100        2.45080
S          5.61250       -1.42340        1.11570
C          4.16450       -1.49480        0.17050
C          3.73910       -1.93610       -1.09330
C          4.42560       -2.62480       -2.11630
C          3.68150       -3.11270       -3.24220
N          4.43410       -3.79810       -4.08880
S          5.95080       -3.82210       -3.52100
N          5.70480       -2.96170       -2.17230
C          2.31510       -2.77680       -3.35250
C          1.39040       -2.99990       -4.38560
S          1.30220       -3.80940       -5.90900
C         -0.33830       -3.21800       -6.10930
C         -1.31640       -3.35280       -7.11400
O         -1.27130       -4.02160       -8.27660
C         -0.09210       -4.73720       -8.61270
C         -0.33280       -5.40180       -9.95660
C         -2.48380       -2.66630       -6.79660
S         -2.37630       -1.85140       -5.24980
C         -0.76440       -2.43460       -5.03110
C          0.22140       -2.31950       -4.04400
N          0.36690       -1.71320       -2.82120
C          1.65120       -1.99110       -2.37080
C          2.34040       -1.68160       -1.16880
N          1.93130       -1.15180        0.04130
C          3.03190       -1.03840        0.84600
C          3.32560       -0.64610        2.16120
S          2.46190       -0.02150        3.52300
C          0.61250       -1.02240        0.61450
C          0.19970        0.44000        0.77760
C         -0.47040       -0.57040       -2.52390
C          0.18050        0.72410       -3.00860
C         -3.64930       -2.59850       -7.59140
C         -4.82670       -1.94090       -7.29690
C         -5.79460       -2.04720       -8.30470
O         -7.07010       -1.64310       -8.25370
C         -7.49150       -0.81860       -7.18060
C         -6.96560        0.60690       -7.29930
C         -5.34350       -2.79020       -9.40560
S         -3.72670       -3.39840       -9.12310
C         -6.00870       -3.15300      -10.59170
C         -7.01750       -2.47910      -11.21310
S         -7.94170       -3.22450      -12.51490
C         -8.94940       -1.80800      -12.66330
C        -10.05350       -1.77910      -13.48000
C        -10.96560       -0.71310      -13.55120
N        -11.76530        0.10760      -13.63570
C        -10.36390       -2.89080      -14.28580
N        -10.61820       -3.78900      -14.95300
N         -8.51340       -0.80880      -11.85430
C         -9.03540        0.51490      -11.88450
C         -9.62600        1.03410      -10.74320
C        -10.10250        2.33220      -10.75910
C         -9.98690        3.10190      -11.90390
C         -9.38270        2.58060      -13.03540
C         -8.89720        1.28650      -13.02940
C         -7.42040       -1.09770      -11.02990
O         -6.88020       -0.24950      -10.35580
H          3.37210        1.89370       10.45440
H          5.92950        6.80550        7.55360
H          5.98040        9.26920        7.37260
H          5.44100       11.50330        8.30950
H          3.64370        9.67940       11.72250
H          3.57400        7.24200       11.92850
H          5.90190       -0.89520       10.77910
H          5.21770        0.73970       10.86670
H          7.41350       -0.15070        8.92570
H          7.67090        0.79810       10.39700
H          6.76550        1.48980        9.04610
H          4.06870       -3.43370        6.46880
H          3.84490       -2.30530        5.11230
H          2.07760       -2.42090        7.60950
H          1.65950       -3.10710        6.03190
H          1.82450       -1.35820        6.21870
H          2.86060        5.54990        6.51070
H          2.82840        4.48590        4.19790
H          7.07730        0.05130        3.52310
H          6.50240        0.15640        5.19670
H          6.83060       -2.45310        3.62860
H          6.39990       -2.30850        5.34010
H          8.00140       -1.82110        4.78770
H          0.11930       -5.48840       -7.84150
H          0.75800       -4.04600       -8.66950
H          0.55230       -5.95490      -10.25570
H         -0.55790       -4.64900      -10.70670
H         -1.17660       -6.08250       -9.88800
H          0.63900       -1.48650        1.60720
H         -0.09470       -1.58990        0.00810
H          0.27570        0.98320       -0.16030
H         -0.82350        0.49710        1.13910
H          0.84640        0.92560        1.50350
H         -1.41480       -0.72900       -3.05120
H         -0.68890       -0.50680       -1.46200
H          0.33900        0.68600       -4.08420
H         -0.46230        1.57050       -2.78270
H          1.14460        0.87130       -2.52510
H         -4.95430       -1.41380       -6.36860
H         -7.20940       -1.26910       -6.22010
H         -8.58230       -0.82290       -7.25790
H         -5.89340        0.64390       -7.12580
H         -7.15800        0.97330       -8.30420
H         -7.46460        1.24450       -6.57470
H         -5.67070       -4.07170      -11.05740
H         -9.70840        0.42130       -9.85840
H        -10.56940        2.74060       -9.87550
H        -10.36700        4.11210      -11.91440
H         -9.28680        3.18170      -13.92640
H         -8.41790        0.87360      -13.90520
