
  xtb     02052221203D
 energy: -326.914369345109 gnorm: 0.000859554205 xtb: 6.4.1 (unknown)
180200  0     0  0            999 V2000
    1.0576   -0.2993  -11.4191 C   0  0  0  0  0  0  0  0  0  0  0  0
    2.3884   -0.0478  -11.3044 C   0  0  0  0  0  0  0  0  0  0  0  0
    3.2165   -0.4788  -10.1435 C   0  0  0  0  0  0  0  0  0  0  0  0
    2.8728   -1.1252   -9.1768 O   0  0  0  0  0  0  0  0  0  0  0  0
    4.5973   -0.0844  -10.4777 C   0  0  0  0  0  0  0  0  0  0  0  0
    5.7287   -0.2423   -9.7297 C   0  0  0  0  0  0  0  0  0  0  0  0
    6.9649    0.2044  -10.2453 C   0  0  0  0  0  0  0  0  0  0  0  0
    8.1608    0.0779   -9.5093 C   0  0  0  0  0  0  0  0  0  0  0  0
    9.3520    0.5090  -10.0228 C   0  0  0  0  0  0  0  0  0  0  0  0
    9.3707    1.0847  -11.3008 C   0  0  0  0  0  0  0  0  0  0  0  0
   10.5523    1.5038  -11.7880 F   0  0  0  0  0  0  0  0  0  0  0  0
    8.2405    1.2318  -12.0557 C   0  0  0  0  0  0  0  0  0  0  0  0
    7.0039    0.7934  -11.5426 C   0  0  0  0  0  0  0  0  0  0  0  0
    5.8176    0.9307  -12.3001 C   0  0  0  0  0  0  0  0  0  0  0  0
    4.6273    0.5022  -11.7736 C   0  0  0  0  0  0  0  0  0  0  0  0
    3.2680    0.5278  -12.3048 C   0  0  0  0  0  0  0  0  0  0  0  0
    2.8885    1.0816  -13.4985 C   0  0  0  0  0  0  0  0  0  0  0  0
    1.5591    1.1721  -13.9637 C   0  0  0  0  0  0  0  0  0  0  0  0
    0.5062    1.3021  -14.4024 N   0  0  0  0  0  0  0  0  0  0  0  0
    3.7841    1.6614  -14.4217 C   0  0  0  0  0  0  0  0  0  0  0  0
    4.4630    2.1446  -15.2114 N   0  0  0  0  0  0  0  0  0  0  0  0
    0.2244   -0.6028  -10.2927 C   0  0  0  0  0  0  0  0  0  0  0  0
   -0.8182   -1.5127  -10.3547 C   0  0  0  0  0  0  0  0  0  0  0  0
   -1.0329   -2.1824  -11.4971 F   0  0  0  0  0  0  0  0  0  0  0  0
   -1.6074   -1.8415   -9.2492 C   0  0  0  0  0  0  0  0  0  0  0  0
   -2.4901   -2.8399   -9.4184 F   0  0  0  0  0  0  0  0  0  0  0  0
   -1.4342   -1.2472   -8.0053 C   0  0  0  0  0  0  0  0  0  0  0  0
   -0.3700   -0.2917   -7.9218 C   0  0  0  0  0  0  0  0  0  0  0  0
   -0.0903    0.2643   -6.7387 N   0  0  0  0  0  0  0  0  0  0  0  0
    0.8728    1.1431   -6.6172 C   0  0  0  0  0  0  0  0  0  0  0  0
    1.1668    1.6001   -5.2211 C   0  0  0  0  0  0  0  0  0  0  0  0
    1.9077    0.4990   -4.4581 C   0  0  0  0  0  0  0  0  0  0  0  0
    1.5458    1.6079   -7.7809 C   0  0  0  0  0  0  0  0  0  0  0  0
    1.3007    1.0579   -8.9435 N   0  0  0  0  0  0  0  0  0  0  0  0
    0.4130    0.0610   -9.0449 C   0  0  0  0  0  0  0  0  0  0  0  0
    2.5438    2.7260   -7.7841 C   0  0  0  0  0  0  0  0  0  0  0  0
    3.9223    2.2361   -7.3356 C   0  0  0  0  0  0  0  0  0  0  0  0
   -2.1578   -1.5908   -6.8127 C   0  0  0  0  0  0  0  0  0  0  0  0
   -3.4626   -2.0119   -6.6080 C   0  0  0  0  0  0  0  0  0  0  0  0
   -4.5755   -2.0798   -7.6051 C   0  0  0  0  0  0  0  0  0  0  0  0
   -5.0372   -3.5177   -7.8469 C   0  0  0  0  0  0  0  0  0  0  0  0
   -3.6979   -2.2776   -5.2480 C   0  0  0  0  0  0  0  0  0  0  0  0
   -5.1296   -2.7719   -4.3667 S   0  0  0  0  0  0  0  0  0  0  0  0
   -4.2315   -2.6809   -2.8897 C   0  0  0  0  0  0  0  0  0  0  0  0
   -4.4391   -2.7821   -1.5033 C   0  0  0  0  0  0  0  0  0  0  0  0
   -5.6319   -2.9598   -0.7586 C   0  0  0  0  0  0  0  0  0  0  0  0
   -6.7725   -3.3064   -1.3496 N   0  0  0  0  0  0  0  0  0  0  0  0
   -7.8815   -3.3472   -0.6287 C   0  0  0  0  0  0  0  0  0  0  0  0
   -9.0311   -3.8947   -1.3141 C   0  0  0  0  0  0  0  0  0  0  0  0
  -10.2970   -4.7702   -0.5049 S   0  0  0  0  0  0  0  0  0  0  0  0
  -11.0988   -5.1188   -1.9978 C   0  0  0  0  0  0  0  0  0  0  0  0
  -12.3962   -5.8481   -2.0410 C   0  0  0  0  0  0  0  0  0  0  0  0
  -13.5332   -4.9821   -1.4941 C   0  0  0  0  0  0  0  0  0  0  0  0
  -10.3923   -4.5787   -3.0339 C   0  0  0  0  0  0  0  0  0  0  0  0
   -9.2153   -3.9017   -2.6702 C   0  0  0  0  0  0  0  0  0  0  0  0
  -10.7921   -4.6928   -4.3135 F   0  0  0  0  0  0  0  0  0  0  0  0
   -7.8670   -2.9094    0.7292 C   0  0  0  0  0  0  0  0  0  0  0  0
   -9.0451   -2.6443    1.5191 C   0  0  0  0  0  0  0  0  0  0  0  0
  -10.2775   -2.1791    1.1491 C   0  0  0  0  0  0  0  0  0  0  0  0
  -11.1037   -1.9679    2.2661 C   0  0  0  0  0  0  0  0  0  0  0  0
  -12.3691   -1.5219    2.1452 F   0  0  0  0  0  0  0  0  0  0  0  0
  -10.5378   -2.2543    3.4758 C   0  0  0  0  0  0  0  0  0  0  0  0
  -11.1467   -2.1267    4.8294 C   0  0  0  0  0  0  0  0  0  0  0  0
  -10.4213   -1.0771    5.6720 C   0  0  0  0  0  0  0  0  0  0  0  0
   -8.9089   -2.7844    3.2445 S   0  0  0  0  0  0  0  0  0  0  0  0
   -6.7186   -2.6823    1.3454 N   0  0  0  0  0  0  0  0  0  0  0  0
   -5.5885   -2.7444    0.6463 C   0  0  0  0  0  0  0  0  0  0  0  0
   -4.3269   -2.5483    1.2598 C   0  0  0  0  0  0  0  0  0  0  0  0
   -3.9740   -2.3314    2.6063 C   0  0  0  0  0  0  0  0  0  0  0  0
   -4.7272   -2.1079    4.1490 S   0  0  0  0  0  0  0  0  0  0  0  0
   -3.1502   -1.8313    4.8589 C   0  0  0  0  0  0  0  0  0  0  0  0
   -2.7388   -1.4548    6.1513 C   0  0  0  0  0  0  0  0  0  0  0  0
   -3.7168   -1.2601    7.2636 C   0  0  0  0  0  0  0  0  0  0  0  0
   -4.2876    0.1590    7.2429 C   0  0  0  0  0  0  0  0  0  0  0  0
   -1.3733   -1.2493    6.2016 C   0  0  0  0  0  0  0  0  0  0  0  0
   -0.5885   -1.5864    4.6544 S   0  0  0  0  0  0  0  0  0  0  0  0
   -2.1117   -1.9408    3.9333 C   0  0  0  0  0  0  0  0  0  0  0  0
   -2.5818   -2.2291    2.6505 C   0  0  0  0  0  0  0  0  0  0  0  0
   -2.0497   -2.3736    1.3938 N   0  0  0  0  0  0  0  0  0  0  0  0
   -0.6993   -2.8754    1.2557 C   0  0  0  0  0  0  0  0  0  0  0  0
   -0.5436   -4.2385    1.9303 C   0  0  0  0  0  0  0  0  0  0  0  0
   -3.1128   -2.5294    0.5210 C   0  0  0  0  0  0  0  0  0  0  0  0
   -3.1850   -2.5096   -0.8877 C   0  0  0  0  0  0  0  0  0  0  0  0
   -2.2612   -2.2132   -1.8676 N   0  0  0  0  0  0  0  0  0  0  0  0
   -2.8966   -2.3117   -3.0768 C   0  0  0  0  0  0  0  0  0  0  0  0
   -2.5899   -2.0762   -4.4204 C   0  0  0  0  0  0  0  0  0  0  0  0
   -1.2527   -1.4579   -5.3107 S   0  0  0  0  0  0  0  0  0  0  0  0
   -0.9737   -1.5633   -1.7776 C   0  0  0  0  0  0  0  0  0  0  0  0
    0.1629   -2.4821   -2.2258 C   0  0  0  0  0  0  0  0  0  0  0  0
   -0.5273   -0.7285    7.2217 C   0  0  0  0  0  0  0  0  0  0  0  0
   -1.1190   -0.1778    8.7817 S   0  0  0  0  0  0  0  0  0  0  0  0
    0.4621    0.4241    9.2157 C   0  0  0  0  0  0  0  0  0  0  0  0
    0.7907    1.1012   10.3617 C   0  0  0  0  0  0  0  0  0  0  0  0
    2.1068    1.5729   10.4844 C   0  0  0  0  0  0  0  0  0  0  0  0
    2.6711    2.3448   11.5101 C   0  0  0  0  0  0  0  0  0  0  0  0
    3.9907    2.7035   11.2870 C   0  0  0  0  0  0  0  0  0  0  0  0
    4.5983    2.0393    9.7797 S   0  0  0  0  0  0  0  0  0  0  0  0
    3.0526    1.3163    9.4509 C   0  0  0  0  0  0  0  0  0  0  0  0
    2.7196    0.6082    8.3167 C   0  0  0  0  0  0  0  0  0  0  0  0
    1.4064    0.1643    8.1812 C   0  0  0  0  0  0  0  0  0  0  0  0
    0.8153   -0.4954    7.0831 C   0  0  0  0  0  0  0  0  0  0  0  0
    4.6893    3.5418   12.1793 C   0  0  0  0  0  0  0  0  0  0  0  0
    5.9377    4.0955   12.0912 C   0  0  0  0  0  0  0  0  0  0  0  0
    6.8946    3.9116   10.9852 C   0  0  0  0  0  0  0  0  0  0  0  0
    6.7969    3.1659   10.0301 O   0  0  0  0  0  0  0  0  0  0  0  0
    8.0191    4.8201   11.2641 C   0  0  0  0  0  0  0  0  0  0  0  0
    9.1318    5.0519   10.5087 C   0  0  0  0  0  0  0  0  0  0  0  0
   10.0825    5.9949   10.9573 C   0  0  0  0  0  0  0  0  0  0  0  0
   11.2450    6.2821   10.2134 C   0  0  0  0  0  0  0  0  0  0  0  0
   12.1533    7.2037   10.6546 C   0  0  0  0  0  0  0  0  0  0  0  0
   11.9135    7.8648   11.8669 C   0  0  0  0  0  0  0  0  0  0  0  0
   12.8179    8.7695   12.2839 F   0  0  0  0  0  0  0  0  0  0  0  0
   10.8038    7.6224   12.6278 C   0  0  0  0  0  0  0  0  0  0  0  0
    9.8568    6.6768   12.1884 C   0  0  0  0  0  0  0  0  0  0  0  0
    8.6966    6.4086   12.9523 C   0  0  0  0  0  0  0  0  0  0  0  0
    7.7868    5.4913   12.4969 C   0  0  0  0  0  0  0  0  0  0  0  0
    6.5159    5.0245   13.0468 C   0  0  0  0  0  0  0  0  0  0  0  0
    5.9965    5.4051   14.2573 C   0  0  0  0  0  0  0  0  0  0  0  0
    6.6216    6.3190   15.1322 C   0  0  0  0  0  0  0  0  0  0  0  0
    7.0740    7.0502   15.8929 N   0  0  0  0  0  0  0  0  0  0  0  0
    4.7878    4.9480   14.8227 C   0  0  0  0  0  0  0  0  0  0  0  0
    3.8215    4.6329   15.3585 N   0  0  0  0  0  0  0  0  0  0  0  0
    0.5705   -0.2637  -12.3848 H   0  0  0  0  0  0  0  0  0  0  0  0
    5.6814   -0.7034   -8.7539 H   0  0  0  0  0  0  0  0  0  0  0  0
    8.1205   -0.3697   -8.5276 H   0  0  0  0  0  0  0  0  0  0  0  0
   10.2761    0.4181   -9.4744 H   0  0  0  0  0  0  0  0  0  0  0  0
    8.2928    1.6797  -13.0358 H   0  0  0  0  0  0  0  0  0  0  0  0
    5.8835    1.3699  -13.2824 H   0  0  0  0  0  0  0  0  0  0  0  0
    0.2170    1.7935   -4.7195 H   0  0  0  0  0  0  0  0  0  0  0  0
    1.7561    2.5157   -5.2257 H   0  0  0  0  0  0  0  0  0  0  0  0
    2.8509    0.2605   -4.9442 H   0  0  0  0  0  0  0  0  0  0  0  0
    1.2994   -0.4008   -4.4317 H   0  0  0  0  0  0  0  0  0  0  0  0
    2.1111    0.8209   -3.4396 H   0  0  0  0  0  0  0  0  0  0  0  0
    2.6140    3.0994   -8.8068 H   0  0  0  0  0  0  0  0  0  0  0  0
    2.2070    3.5386   -7.1380 H   0  0  0  0  0  0  0  0  0  0  0  0
    4.2334    1.3942   -7.9487 H   0  0  0  0  0  0  0  0  0  0  0  0
    4.6534    3.0335   -7.4442 H   0  0  0  0  0  0  0  0  0  0  0  0
    3.9071    1.9203   -6.2959 H   0  0  0  0  0  0  0  0  0  0  0  0
   -4.2842   -1.6139   -8.5447 H   0  0  0  0  0  0  0  0  0  0  0  0
   -5.4149   -1.5107   -7.1938 H   0  0  0  0  0  0  0  0  0  0  0  0
   -4.2322   -4.1120   -8.2686 H   0  0  0  0  0  0  0  0  0  0  0  0
   -5.8718   -3.5229   -8.5424 H   0  0  0  0  0  0  0  0  0  0  0  0
   -5.3602   -3.9738   -6.9145 H   0  0  0  0  0  0  0  0  0  0  0  0
  -12.3225   -6.7629   -1.4481 H   0  0  0  0  0  0  0  0  0  0  0  0
  -12.6046   -6.1219   -3.0774 H   0  0  0  0  0  0  0  0  0  0  0  0
  -13.3295   -4.6982   -0.4639 H   0  0  0  0  0  0  0  0  0  0  0  0
  -13.6402   -4.0777   -2.0885 H   0  0  0  0  0  0  0  0  0  0  0  0
  -14.4705   -5.5311   -1.5264 H   0  0  0  0  0  0  0  0  0  0  0  0
   -8.5420   -3.4341   -3.3633 H   0  0  0  0  0  0  0  0  0  0  0  0
  -10.5814   -1.9684    0.1407 H   0  0  0  0  0  0  0  0  0  0  0  0
  -11.1003   -3.0917    5.3409 H   0  0  0  0  0  0  0  0  0  0  0  0
  -12.1966   -1.8505    4.7113 H   0  0  0  0  0  0  0  0  0  0  0  0
  -10.8734   -1.0104    6.6580 H   0  0  0  0  0  0  0  0  0  0  0  0
  -10.4809   -0.1012    5.1958 H   0  0  0  0  0  0  0  0  0  0  0  0
   -9.3732   -1.3451    5.7833 H   0  0  0  0  0  0  0  0  0  0  0  0
   -4.5317   -1.9745    7.1280 H   0  0  0  0  0  0  0  0  0  0  0  0
   -3.2426   -1.4539    8.2262 H   0  0  0  0  0  0  0  0  0  0  0  0
   -5.0110    0.2804    8.0443 H   0  0  0  0  0  0  0  0  0  0  0  0
   -3.4951    0.8910    7.3779 H   0  0  0  0  0  0  0  0  0  0  0  0
   -4.7829    0.3505    6.2940 H   0  0  0  0  0  0  0  0  0  0  0  0
   -0.0145   -2.1547    1.7146 H   0  0  0  0  0  0  0  0  0  0  0  0
   -0.4622   -2.9840    0.2036 H   0  0  0  0  0  0  0  0  0  0  0  0
   -0.7254   -4.1680    2.9991 H   0  0  0  0  0  0  0  0  0  0  0  0
    0.4668   -4.6074    1.7763 H   0  0  0  0  0  0  0  0  0  0  0  0
   -1.2462   -4.9514    1.5037 H   0  0  0  0  0  0  0  0  0  0  0  0
   -0.9955   -0.6932   -2.4437 H   0  0  0  0  0  0  0  0  0  0  0  0
   -0.8276   -1.1995   -0.7602 H   0  0  0  0  0  0  0  0  0  0  0  0
    1.1194   -1.9973   -2.0515 H   0  0  0  0  0  0  0  0  0  0  0  0
    0.1474   -3.4309   -1.6940 H   0  0  0  0  0  0  0  0  0  0  0  0
    0.0706   -2.6940   -3.2873 H   0  0  0  0  0  0  0  0  0  0  0  0
    0.0641    1.2939   11.1349 H   0  0  0  0  0  0  0  0  0  0  0  0
    2.1300    2.6564   12.3869 H   0  0  0  0  0  0  0  0  0  0  0  0
    3.4453    0.4222    7.5412 H   0  0  0  0  0  0  0  0  0  0  0  0
    1.3645   -0.7614    6.1968 H   0  0  0  0  0  0  0  0  0  0  0  0
    4.1000    3.8064   13.0494 H   0  0  0  0  0  0  0  0  0  0  0  0
    9.2805    4.5259    9.5776 H   0  0  0  0  0  0  0  0  0  0  0  0
   11.4068    5.7597    9.2825 H   0  0  0  0  0  0  0  0  0  0  0  0
   13.0470    7.4362   10.0975 H   0  0  0  0  0  0  0  0  0  0  0  0
   10.6526    8.1503   13.5564 H   0  0  0  0  0  0  0  0  0  0  0  0
    8.5576    6.9436   13.8777 H   0  0  0  0  0  0  0  0  0  0  0  0
  1  2  2  0  0  0  0
  2  3  1  0  0  0  0
  3  4  2  0  0  0  0
  3  5  1  0  0  0  0
  5  6  2  0  0  0  0
  6  7  1  0  0  0  0
  7  8  2  0  0  0  0
  8  9  1  0  0  0  0
  9 10  2  0  0  0  0
 10 11  1  0  0  0  0
 10 12  1  0  0  0  0
 12 13  2  0  0  0  0
 13 14  1  0  0  0  0
 14 15  2  0  0  0  0
 15 16  1  0  0  0  0
 16 17  2  0  0  0  0
 17 18  1  0  0  0  0
 18 19  3  0  0  0  0
 17 20  1  0  0  0  0
 20 21  3  0  0  0  0
  1 22  1  0  0  0  0
 22 23  2  0  0  0  0
 23 24  1  0  0  0  0
 23 25  1  0  0  0  0
 25 26  1  0  0  0  0
 25 27  2  0  0  0  0
 27 28  1  0  0  0  0
 28 29  2  0  0  0  0
 29 30  1  0  0  0  0
 30 31  1  0  0  0  0
 31 32  1  0  0  0  0
 30 33  2  0  0  0  0
 33 34  1  0  0  0  0
 34 35  2  0  0  0  0
 33 36  1  0  0  0  0
 36 37  1  0  0  0  0
 27 38  1  0  0  0  0
 38 39  2  0  0  0  0
 39 40  1  0  0  0  0
 40 41  1  0  0  0  0
 39 42  1  0  0  0  0
 42 43  1  0  0  0  0
 43 44  1  0  0  0  0
 44 45  1  0  0  0  0
 45 46  2  0  0  0  0
 46 47  1  0  0  0  0
 47 48  2  0  0  0  0
 48 49  1  0  0  0  0
 49 50  1  0  0  0  0
 50 51  1  0  0  0  0
 51 52  1  0  0  0  0
 52 53  1  0  0  0  0
 51 54  2  0  0  0  0
 54 55  1  0  0  0  0
 54 56  1  0  0  0  0
 48 57  1  0  0  0  0
 57 58  1  0  0  0  0
 58 59  2  0  0  0  0
 59 60  1  0  0  0  0
 60 61  1  0  0  0  0
 60 62  2  0  0  0  0
 62 63  1  0  0  0  0
 63 64  1  0  0  0  0
 62 65  1  0  0  0  0
 57 66  2  0  0  0  0
 66 67  1  0  0  0  0
 67 68  2  0  0  0  0
 68 69  1  0  0  0  0
 69 70  1  0  0  0  0
 70 71  1  0  0  0  0
 71 72  1  0  0  0  0
 72 73  1  0  0  0  0
 73 74  1  0  0  0  0
 72 75  2  0  0  0  0
 75 76  1  0  0  0  0
 76 77  1  0  0  0  0
 77 78  1  0  0  0  0
 78 79  1  0  0  0  0
 79 80  1  0  0  0  0
 80 81  1  0  0  0  0
 79 82  1  0  0  0  0
 82 83  2  0  0  0  0
 83 84  1  0  0  0  0
 84 85  1  0  0  0  0
 85 86  1  0  0  0  0
 86 87  1  0  0  0  0
 84 88  1  0  0  0  0
 88 89  1  0  0  0  0
 75 90  1  0  0  0  0
 90 91  1  0  0  0  0
 91 92  1  0  0  0  0
 92 93  2  0  0  0  0
 93 94  1  0  0  0  0
 94 95  1  0  0  0  0
 95 96  2  0  0  0  0
 96 97  1  0  0  0  0
 97 98  1  0  0  0  0
 98 99  1  0  0  0  0
 99100  2  0  0  0  0
100101  1  0  0  0  0
 96102  1  0  0  0  0
102103  2  0  0  0  0
103104  1  0  0  0  0
104105  2  0  0  0  0
104106  1  0  0  0  0
106107  2  0  0  0  0
107108  1  0  0  0  0
108109  2  0  0  0  0
109110  1  0  0  0  0
110111  2  0  0  0  0
111112  1  0  0  0  0
111113  1  0  0  0  0
113114  2  0  0  0  0
114115  1  0  0  0  0
115116  2  0  0  0  0
116117  1  0  0  0  0
117118  2  0  0  0  0
118119  1  0  0  0  0
119120  3  0  0  0  0
118121  1  0  0  0  0
121122  3  0  0  0  0
 16  2  1  0  0  0  0
 35 22  1  0  0  0  0
 87 38  1  0  0  0  0
101 90  2  0  0  0  0
117103  1  0  0  0  0
 15  5  1  0  0  0  0
 35 28  1  0  0  0  0
 86 42  2  0  0  0  0
100 92  1  0  0  0  0
116106  1  0  0  0  0
 13  7  1  0  0  0  0
 85 44  2  0  0  0  0
 98 94  2  0  0  0  0
114108  1  0  0  0  0
 83 45  1  0  0  0  0
 67 46  1  0  0  0  0
 82 68  1  0  0  0  0
 55 49  2  0  0  0  0
 65 58  1  0  0  0  0
 78 69  2  0  0  0  0
 77 71  2  0  0  0  0
  1123  1  0  0  0  0
  6124  1  0  0  0  0
  8125  1  0  0  0  0
  9126  1  0  0  0  0
 12127  1  0  0  0  0
 14128  1  0  0  0  0
 31129  1  0  0  0  0
 31130  1  0  0  0  0
 32131  1  0  0  0  0
 32132  1  0  0  0  0
 32133  1  0  0  0  0
 36134  1  0  0  0  0
 36135  1  0  0  0  0
 37136  1  0  0  0  0
 37137  1  0  0  0  0
 37138  1  0  0  0  0
 40139  1  0  0  0  0
 40140  1  0  0  0  0
 41141  1  0  0  0  0
 41142  1  0  0  0  0
 41143  1  0  0  0  0
 52144  1  0  0  0  0
 52145  1  0  0  0  0
 53146  1  0  0  0  0
 53147  1  0  0  0  0
 53148  1  0  0  0  0
 55149  1  0  0  0  0
 59150  1  0  0  0  0
 63151  1  0  0  0  0
 63152  1  0  0  0  0
 64153  1  0  0  0  0
 64154  1  0  0  0  0
 64155  1  0  0  0  0
 73156  1  0  0  0  0
 73157  1  0  0  0  0
 74158  1  0  0  0  0
 74159  1  0  0  0  0
 74160  1  0  0  0  0
 80161  1  0  0  0  0
 80162  1  0  0  0  0
 81163  1  0  0  0  0
 81164  1  0  0  0  0
 81165  1  0  0  0  0
 88166  1  0  0  0  0
 88167  1  0  0  0  0
 89168  1  0  0  0  0
 89169  1  0  0  0  0
 89170  1  0  0  0  0
 93171  1  0  0  0  0
 95172  1  0  0  0  0
 99173  1  0  0  0  0
101174  1  0  0  0  0
102175  1  0  0  0  0
107176  1  0  0  0  0
109177  1  0  0  0  0
110178  1  0  0  0  0
113179  1  0  0  0  0
115180  1  0  0  0  0
M  END
