194

C          2.39040       -8.77630        7.69490
C          2.36430       -9.92330        6.96690
C          2.20720       -9.96740        5.48550
O          2.06930       -9.03910        4.71850
C          2.09130      -11.39820        5.14590
C          1.94090      -11.96770        3.91440
C          1.81010      -13.37030        3.81390
C          1.65670      -14.01050        2.56700
C          1.51720      -15.36780        2.48480
C          1.52980      -16.12350        3.66540
F          1.39050      -17.45760        3.56390
C          1.67790      -15.55380        4.89920
C          1.82360      -14.15640        5.00290
C          1.97920      -13.53820        6.26520
C          2.11830      -12.17710        6.33690
C          2.30910      -11.28210        7.47330
C          2.50670      -11.67060        8.77140
C          2.47620      -13.01150        9.20850
N          2.45550      -14.08220        9.62200
C          2.79960      -10.79670        9.84010
N          3.06780      -10.15560       10.75400
C          2.70550       -7.49770        7.12710
C          2.10420       -6.32510        7.55770
F          1.15780       -6.38250        8.50740
C          2.41570       -5.08180        7.00540
F          1.77880       -3.99790        7.48840
C          3.35570       -4.93440        5.99530
C          3.98090       -6.12550        5.52150
N          4.76800       -6.08210        4.43490
C          5.37730       -7.16160        4.02850
C          6.10680       -7.07940        2.72530
C          5.22260       -7.61740        1.59720
C          5.31470       -8.35420        4.81340
N          4.46940       -8.43490        5.80360
C          3.71570       -7.37420        6.12890
C          6.21160       -9.52690        4.55720
C          5.95300      -10.68320        5.51350
C          3.65200       -3.66560        5.38510
C          4.87610       -3.22190        4.90920
C          6.14740       -3.89790        5.15820
C          7.13300       -3.93480        4.17620
C          8.31960       -4.60260        4.41400
C          8.53720       -5.23380        5.62530
C          7.57720       -5.18250        6.62960
C          7.79510       -5.89250        7.93530
C          7.37910       -7.36070        7.82260
C          6.39460       -4.50380        6.38810
C          4.73600       -2.00200        4.21930
S          5.85970       -0.97100        3.36140
C          4.54910        0.07690        2.93430
C          4.30640        1.23020        2.16600
C          5.16070        2.11310        1.46860
C          4.58830        3.22430        0.75690
N          5.50860        3.98540        0.18690
S          6.96670        3.36150        0.51110
N          6.48180        2.09170        1.39010
C          3.18180        3.33040        0.66560
C          2.35390        4.11520       -0.15400
S          2.49720        5.34610       -1.36480
C          0.78390        5.20300       -1.67640
C         -0.05390        5.80100       -2.63610
C          0.45680        6.75960       -3.62350
C          0.41490        6.47260       -4.98380
C          0.94770        7.37040       -5.88990
C          1.52820        8.54580       -5.44800
C          1.59270        8.83820       -4.09130
C          2.28430       10.07770       -3.60270
C          3.76130        9.78480       -3.33050
C          1.05770        7.93360       -3.18670
C         -1.35540        5.34660       -2.52360
S         -1.53420        4.15700       -1.23270
C          0.14770        4.26970       -0.85520
C          1.04630        3.64700        0.01790
N          1.02950        2.62860        0.93340
C          2.33060        2.41910        1.34880
C          2.90340        1.45320        2.21000
N          2.32110        0.51240        3.04290
C          3.31910       -0.33480        3.45450
C          3.42470       -1.51810        4.19180
S          2.34130       -2.55710        5.03620
C          1.14210        0.68040        3.86710
C          1.51450        1.07170        5.29700
C         -0.12350        1.76160        1.03710
C         -1.26090        2.40430        1.83000
C         -2.53250        5.69740       -3.23460
S         -2.54580        6.73500       -4.63650
C         -4.26270        6.54120       -4.79020
C         -5.11170        6.96480       -5.83070
C         -6.38730        6.38220       -5.92150
O         -6.83830        5.47370       -5.03640
C         -6.27650        5.53100       -3.70960
C         -6.55600        4.20310       -3.03180
C         -6.63030        3.03570       -3.77620
C         -6.80730        1.81770       -3.14580
C         -6.90440        1.73730       -1.76330
C         -7.02620        0.40980       -1.07200
C         -5.64270       -0.10940       -0.67410
C         -6.83160        2.91220       -1.02530
C         -6.66140        4.13340       -1.64860
C         -6.95690        6.67770       -2.96830
C         -8.33960        6.77890       -3.05860
C         -9.00750        7.80900       -2.42670
C         -8.31360        8.76010       -1.68820
C         -9.04540        9.85440       -0.96650
C         -9.45450        9.39020        0.43290
C         -6.93340        8.64710       -1.59520
C         -6.25740        7.62040       -2.23000
C         -4.78490        5.74070       -3.78440
C         -3.80860        5.26360       -2.91700
C         -7.08420        6.76710       -7.05890
C         -6.37720        7.65900       -7.85570
S         -4.80380        8.01900       -7.14730
C         -6.65940        8.29390       -9.07420
C         -7.74440        8.23320       -9.91600
C         -9.00490        7.46470       -9.75010
O         -9.34370        6.74450       -8.83340
C         -9.79640        7.76030      -10.95290
C        -11.00630        7.40940      -11.45470
S        -11.27750        8.17230      -12.97910
C         -9.74740        8.96930      -12.93610
C         -9.06960        8.65590      -11.79840
C         -7.79860        8.96480      -11.17210
C         -6.86510        9.80310      -11.73030
C         -7.10040       10.42420      -12.97420
N         -7.27000       10.94060      -13.98540
C         -5.61080       10.16000      -11.20070
N         -4.57220       10.50580      -10.84990
H          2.18030       -8.79500        8.75650
H          1.92120      -11.35310        3.02660
H          1.64790      -13.40690        1.67180
H          1.39640      -15.87300        1.53960
H          1.68370      -16.16680        5.78690
H          1.97710      -14.15990        7.14590
H          7.03780       -7.64540        2.77390
H          6.33810       -6.03170        2.53470
H          4.31200       -7.02790        1.52790
H          5.74980       -7.55990        0.64820
H          4.94430       -8.65310        1.77910
H          7.24820       -9.18880        4.65160
H          6.07330       -9.86160        3.52600
H          4.94170      -11.05940        5.38230
H          6.06250      -10.35340        6.54290
H          6.65440      -11.49190        5.32350
H          6.95960       -3.45880        3.22350
H          9.07900       -4.63440        3.64640
H          9.46430       -5.76050        5.80140
H          8.84930       -5.83950        8.21490
H          7.20820       -5.41280        8.72050
H          7.53060       -7.87240        8.77000
H          7.96780       -7.86390        7.05840
H          6.32800       -7.44070        7.55230
H          5.65230       -4.43950        7.17140
H         -0.01460        5.54180       -5.32390
H          0.91370        7.14890       -6.94610
H          1.94130        9.24250       -6.16280
H          1.81160       10.42830       -2.68310
H          2.20400       10.86740       -4.35210
H          3.86040        9.00220       -2.58170
H          4.26580       10.67840       -2.97050
H          4.25400        9.45020       -4.24050
H          1.09960        8.14470       -2.12750
H          0.58120       -0.25980        3.87520
H          0.52870        1.46970        3.44560
H          2.11150        1.98150        5.29470
H          0.60930        1.24820        5.87150
H          2.08090        0.28400        5.78500
H         -0.48210        1.56210        0.02070
H          0.18510        0.81100        1.47180
H         -1.65030        3.26520        1.29360
H         -2.06590        1.68660        1.95990
H         -0.93050        2.74140        2.80990
H         -6.55470        3.08590       -4.85150
H         -6.86580        0.91560       -3.73790
H         -7.64200        0.51360       -0.17640
H         -7.50530       -0.31270       -1.73500
H         -5.15200        0.59580       -0.00650
H         -5.01850       -0.23500       -1.55610
H         -5.72650       -1.06810       -0.16770
H         -6.91090        2.87090        0.05180
H         -6.60920        5.03730       -1.05930
H         -8.88320        6.04610       -3.63610
H        -10.08250        7.87830       -2.51010
H         -8.40510       10.73460       -0.88090
H         -9.93880       10.13440       -1.52780
H        -10.10190        8.51860        0.36800
H         -8.57530        9.12060        1.01400
H         -9.98730       10.18110        0.95540
H         -6.37540        9.37600       -1.02470
H         -5.18240        7.55780       -2.14270
H         -4.01360        4.62100       -2.07920
H         -8.06650        6.41200       -7.30870
H         -5.85340        8.93900       -9.40480
H        -11.74990        6.76070      -11.03740
H         -9.46570        9.60560      -13.75050
