
  xtb     02052207043D
 energy: -327.633323143035 gnorm: 0.000336317363 xtb: 6.4.1 (unknown)
183203  0     0  0            999 V2000
   -6.9177    7.3584   -4.6253 C   0  0  0  0  0  0  0  0  0  0  0  0
   -7.3164    7.7695   -5.8529 C   0  0  0  0  0  0  0  0  0  0  0  0
   -7.5288    6.8725   -7.0259 C   0  0  0  0  0  0  0  0  0  0  0  0
   -7.4837    5.6635   -7.0425 O   0  0  0  0  0  0  0  0  0  0  0  0
   -7.9320    7.7604   -8.1311 C   0  0  0  0  0  0  0  0  0  0  0  0
   -8.1888    7.4355   -9.4318 C   0  0  0  0  0  0  0  0  0  0  0  0
   -8.5615    8.4542  -10.3360 C   0  0  0  0  0  0  0  0  0  0  0  0
   -8.8305    8.1762  -11.6919 C   0  0  0  0  0  0  0  0  0  0  0  0
   -9.1928    9.1713  -12.5563 C   0  0  0  0  0  0  0  0  0  0  0  0
   -9.2941   10.4842  -12.0754 C   0  0  0  0  0  0  0  0  0  0  0  0
   -9.6522   11.4496  -12.9415 F   0  0  0  0  0  0  0  0  0  0  0  0
   -9.0437   10.8088  -10.7715 C   0  0  0  0  0  0  0  0  0  0  0  0
   -8.6693    9.7959   -9.8666 C   0  0  0  0  0  0  0  0  0  0  0  0
   -8.4054   10.1009   -8.5118 C   0  0  0  0  0  0  0  0  0  0  0  0
   -8.0406    9.0970   -7.6530 C   0  0  0  0  0  0  0  0  0  0  0  0
   -7.7185    9.1158   -6.2302 C   0  0  0  0  0  0  0  0  0  0  0  0
   -7.7842   10.2121   -5.4125 C   0  0  0  0  0  0  0  0  0  0  0  0
   -7.5156   10.2225   -4.0271 C   0  0  0  0  0  0  0  0  0  0  0  0
   -7.3311   10.3218   -2.8978 N   0  0  0  0  0  0  0  0  0  0  0  0
   -8.1662   11.5003   -5.8450 C   0  0  0  0  0  0  0  0  0  0  0  0
   -8.4682   12.5706   -6.1291 N   0  0  0  0  0  0  0  0  0  0  0  0
   -6.4024    6.0594   -4.2896 C   0  0  0  0  0  0  0  0  0  0  0  0
   -5.5106    5.3374   -5.0656 C   0  0  0  0  0  0  0  0  0  0  0  0
   -5.0035    5.8664   -6.1860 F   0  0  0  0  0  0  0  0  0  0  0  0
   -5.0330    4.0860   -4.6652 C   0  0  0  0  0  0  0  0  0  0  0  0
   -4.1551    3.4635   -5.4731 F   0  0  0  0  0  0  0  0  0  0  0  0
   -5.4471    3.4665   -3.4964 C   0  0  0  0  0  0  0  0  0  0  0  0
   -6.3180    4.2126   -2.6457 C   0  0  0  0  0  0  0  0  0  0  0  0
   -6.6800    3.7127   -1.4533 N   0  0  0  0  0  0  0  0  0  0  0  0
   -7.4189    4.4318   -0.6453 C   0  0  0  0  0  0  0  0  0  0  0  0
   -7.8130    3.7729    0.6408 C   0  0  0  0  0  0  0  0  0  0  0  0
   -9.3086    3.4554    0.6715 C   0  0  0  0  0  0  0  0  0  0  0  0
   -7.8043    5.7582   -1.0017 C   0  0  0  0  0  0  0  0  0  0  0  0
   -7.4842    6.2428   -2.1762 N   0  0  0  0  0  0  0  0  0  0  0  0
   -6.7528    5.5038   -3.0241 C   0  0  0  0  0  0  0  0  0  0  0  0
   -8.5468    6.6841   -0.0850 C   0  0  0  0  0  0  0  0  0  0  0  0
   -7.9747    8.1002   -0.1276 C   0  0  0  0  0  0  0  0  0  0  0  0
   -4.9530    2.1776   -3.0850 C   0  0  0  0  0  0  0  0  0  0  0  0
   -5.6392    1.1745   -2.4230 C   0  0  0  0  0  0  0  0  0  0  0  0
   -7.0896    1.1073   -2.2678 C   0  0  0  0  0  0  0  0  0  0  0  0
   -7.9382    1.5646   -3.2747 C   0  0  0  0  0  0  0  0  0  0  0  0
   -9.3059    1.4341   -3.1371 C   0  0  0  0  0  0  0  0  0  0  0  0
   -9.8434    0.8337   -2.0107 C   0  0  0  0  0  0  0  0  0  0  0  0
   -9.0133    0.3669   -0.9994 C   0  0  0  0  0  0  0  0  0  0  0  0
   -9.5722   -0.3348    0.2049 C   0  0  0  0  0  0  0  0  0  0  0  0
   -9.4714   -1.8509    0.0262 C   0  0  0  0  0  0  0  0  0  0  0  0
   -7.6418    0.5132   -1.1382 C   0  0  0  0  0  0  0  0  0  0  0  0
   -4.7613    0.1473   -2.0191 C   0  0  0  0  0  0  0  0  0  0  0  0
   -4.9906   -1.3356   -1.1206 S   0  0  0  0  0  0  0  0  0  0  0  0
   -3.2898   -1.6357   -1.2136 C   0  0  0  0  0  0  0  0  0  0  0  0
   -2.3438   -2.5600   -0.7385 C   0  0  0  0  0  0  0  0  0  0  0  0
   -2.4752   -3.7645   -0.0129 C   0  0  0  0  0  0  0  0  0  0  0  0
   -1.2900   -4.4912    0.3514 C   0  0  0  0  0  0  0  0  0  0  0  0
   -1.5649   -5.6125    0.9979 N   0  0  0  0  0  0  0  0  0  0  0  0
   -3.1724   -5.7447    1.1391 S   0  0  0  0  0  0  0  0  0  0  0  0
   -3.5821   -4.3717    0.3839 N   0  0  0  0  0  0  0  0  0  0  0  0
   -0.0260   -3.9199    0.0804 C   0  0  0  0  0  0  0  0  0  0  0  0
    1.2587   -4.2490    0.5369 C   0  0  0  0  0  0  0  0  0  0  0  0
    2.0245   -5.4348    1.5404 S   0  0  0  0  0  0  0  0  0  0  0  0
    3.5035   -4.5011    1.4571 C   0  0  0  0  0  0  0  0  0  0  0  0
    4.7532   -4.6587    2.0581 C   0  0  0  0  0  0  0  0  0  0  0  0
    5.1075   -5.8085    2.8944 C   0  0  0  0  0  0  0  0  0  0  0  0
    6.2017   -6.6033    2.5609 C   0  0  0  0  0  0  0  0  0  0  0  0
    6.5125   -7.7024    3.3366 C   0  0  0  0  0  0  0  0  0  0  0  0
    5.7470   -8.0092    4.4483 C   0  0  0  0  0  0  0  0  0  0  0  0
    4.6504   -7.2291    4.7909 C   0  0  0  0  0  0  0  0  0  0  0  0
    3.8611   -7.5212    6.0332 C   0  0  0  0  0  0  0  0  0  0  0  0
    4.5395   -6.8689    7.2397 C   0  0  0  0  0  0  0  0  0  0  0  0
    4.3323   -6.1361    3.9995 C   0  0  0  0  0  0  0  0  0  0  0  0
    5.6229   -3.6188    1.7181 C   0  0  0  0  0  0  0  0  0  0  0  0
    4.9027   -2.5059    0.5641 S   0  0  0  0  0  0  0  0  0  0  0  0
    3.4024   -3.3530    0.6594 C   0  0  0  0  0  0  0  0  0  0  0  0
    2.1146   -3.2181    0.1300 C   0  0  0  0  0  0  0  0  0  0  0  0
    1.4123   -2.2828   -0.5822 N   0  0  0  0  0  0  0  0  0  0  0  0
    0.0957   -2.6925   -0.6323 C   0  0  0  0  0  0  0  0  0  0  0  0
   -1.0710   -2.0825   -1.1541 C   0  0  0  0  0  0  0  0  0  0  0  0
   -1.2470   -0.9435   -1.9234 N   0  0  0  0  0  0  0  0  0  0  0  0
   -2.5900   -0.6604   -1.9286 C   0  0  0  0  0  0  0  0  0  0  0  0
   -3.4314    0.3581   -2.3911 C   0  0  0  0  0  0  0  0  0  0  0  0
   -3.2432    1.8318   -3.2648 S   0  0  0  0  0  0  0  0  0  0  0  0
   -0.4144   -0.4803   -3.0142 C   0  0  0  0  0  0  0  0  0  0  0  0
   -0.9742   -0.9202   -4.3670 C   0  0  0  0  0  0  0  0  0  0  0  0
    1.9989   -0.9877   -0.8459 C   0  0  0  0  0  0  0  0  0  0  0  0
    2.9908   -1.0301   -2.0081 C   0  0  0  0  0  0  0  0  0  0  0  0
    6.8346   -3.3251    2.3889 C   0  0  0  0  0  0  0  0  0  0  0  0
    7.0587   -3.9691    3.9899 S   0  0  0  0  0  0  0  0  0  0  0  0
    8.5745   -3.1295    4.1817 C   0  0  0  0  0  0  0  0  0  0  0  0
    8.8798   -2.3893    3.0335 C   0  0  0  0  0  0  0  0  0  0  0  0
   10.0890   -1.5609    2.8855 C   0  0  0  0  0  0  0  0  0  0  0  0
   10.7916   -1.2162    3.8216 O   0  0  0  0  0  0  0  0  0  0  0  0
   10.3576   -1.1802    1.5012 C   0  0  0  0  0  0  0  0  0  0  0  0
   11.5432   -0.6516    1.0574 C   0  0  0  0  0  0  0  0  0  0  0  0
   12.7702   -0.3403    1.8323 C   0  0  0  0  0  0  0  0  0  0  0  0
   12.6935    1.0757    2.4117 C   0  0  0  0  0  0  0  0  0  0  0  0
   11.4645   -0.3116   -0.6386 S   0  0  0  0  0  0  0  0  0  0  0  0
    9.8253   -0.8568   -0.7501 C   0  0  0  0  0  0  0  0  0  0  0  0
    9.1250   -0.8577   -2.0610 C   0  0  0  0  0  0  0  0  0  0  0  0
    9.2475   -2.2262   -2.7383 C   0  0  0  0  0  0  0  0  0  0  0  0
    9.3778   -1.3116    0.4653 C   0  0  0  0  0  0  0  0  0  0  0  0
    8.0411   -1.8418    0.7243 C   0  0  0  0  0  0  0  0  0  0  0  0
    7.1293   -1.7698   -0.0925 O   0  0  0  0  0  0  0  0  0  0  0  0
    7.8994   -2.4861    2.0255 C   0  0  0  0  0  0  0  0  0  0  0  0
    9.4233   -3.2324    5.2977 C   0  0  0  0  0  0  0  0  0  0  0  0
    9.1917   -3.7960    6.5229 C   0  0  0  0  0  0  0  0  0  0  0  0
    7.9058   -4.3047    7.0235 C   0  0  0  0  0  0  0  0  0  0  0  0
    6.8915   -4.5243    6.3861 O   0  0  0  0  0  0  0  0  0  0  0  0
    8.0764   -4.4733    8.4764 C   0  0  0  0  0  0  0  0  0  0  0  0
    7.1528   -4.8555    9.4060 C   0  0  0  0  0  0  0  0  0  0  0  0
    7.5334   -4.9259   10.7643 C   0  0  0  0  0  0  0  0  0  0  0  0
    6.6191   -5.3110   11.7659 C   0  0  0  0  0  0  0  0  0  0  0  0
    6.9952   -5.3662   13.0792 C   0  0  0  0  0  0  0  0  0  0  0  0
    8.3128   -5.0328   13.4211 C   0  0  0  0  0  0  0  0  0  0  0  0
    8.6640   -5.0915   14.7185 F   0  0  0  0  0  0  0  0  0  0  0  0
    9.2394   -4.6549   12.4894 C   0  0  0  0  0  0  0  0  0  0  0  0
    8.8698   -4.5936   11.1318 C   0  0  0  0  0  0  0  0  0  0  0  0
    9.8075   -4.2098   10.1440 C   0  0  0  0  0  0  0  0  0  0  0  0
    9.4181   -4.1541    8.8327 C   0  0  0  0  0  0  0  0  0  0  0  0
   10.1474   -3.8111    7.6153 C   0  0  0  0  0  0  0  0  0  0  0  0
   11.5004   -3.6229    7.5161 C   0  0  0  0  0  0  0  0  0  0  0  0
   12.3752   -3.6383    8.6223 C   0  0  0  0  0  0  0  0  0  0  0  0
   13.1293   -3.6325    9.4878 N   0  0  0  0  0  0  0  0  0  0  0  0
   12.2142   -3.4627    6.3076 C   0  0  0  0  0  0  0  0  0  0  0  0
   12.8798   -3.3867    5.3753 N   0  0  0  0  0  0  0  0  0  0  0  0
   -7.0224    8.0160   -3.7730 H   0  0  0  0  0  0  0  0  0  0  0  0
   -8.1019    6.4129   -9.7670 H   0  0  0  0  0  0  0  0  0  0  0  0
   -8.7457    7.1573  -12.0387 H   0  0  0  0  0  0  0  0  0  0  0  0
   -9.4029    8.9758  -13.5959 H   0  0  0  0  0  0  0  0  0  0  0  0
   -9.1315   11.8304  -10.4359 H   0  0  0  0  0  0  0  0  0  0  0  0
   -8.4983   11.1251   -8.1883 H   0  0  0  0  0  0  0  0  0  0  0  0
   -7.5511    4.4133    1.4862 H   0  0  0  0  0  0  0  0  0  0  0  0
   -7.2455    2.8450    0.7165 H   0  0  0  0  0  0  0  0  0  0  0  0
   -9.5544    2.9253    1.5882 H   0  0  0  0  0  0  0  0  0  0  0  0
   -9.5700    2.8238   -0.1736 H   0  0  0  0  0  0  0  0  0  0  0  0
   -9.9068    4.3613    0.6254 H   0  0  0  0  0  0  0  0  0  0  0  0
   -9.5914    6.7141   -0.4083 H   0  0  0  0  0  0  0  0  0  0  0  0
   -8.5196    6.3057    0.9366 H   0  0  0  0  0  0  0  0  0  0  0  0
   -8.5479    8.7527    0.5256 H   0  0  0  0  0  0  0  0  0  0  0  0
   -6.9397    8.0992    0.2056 H   0  0  0  0  0  0  0  0  0  0  0  0
   -8.0081    8.4988   -1.1366 H   0  0  0  0  0  0  0  0  0  0  0  0
   -7.5257    2.0048   -4.1703 H   0  0  0  0  0  0  0  0  0  0  0  0
   -9.9586    1.7926   -3.9198 H   0  0  0  0  0  0  0  0  0  0  0  0
  -10.9148    0.7259   -1.9172 H   0  0  0  0  0  0  0  0  0  0  0  0
   -9.0125   -0.0420    1.0956 H   0  0  0  0  0  0  0  0  0  0  0  0
  -10.6175   -0.0546    0.3490 H   0  0  0  0  0  0  0  0  0  0  0  0
   -8.4336   -2.1481   -0.1050 H   0  0  0  0  0  0  0  0  0  0  0  0
   -9.8737   -2.3642    0.8964 H   0  0  0  0  0  0  0  0  0  0  0  0
  -10.0310   -2.1654   -0.8520 H   0  0  0  0  0  0  0  0  0  0  0  0
   -6.9936    0.1706   -0.3457 H   0  0  0  0  0  0  0  0  0  0  0  0
    6.7962   -6.3571    1.6926 H   0  0  0  0  0  0  0  0  0  0  0  0
    7.3569   -8.3230    3.0743 H   0  0  0  0  0  0  0  0  0  0  0  0
    6.0020   -8.8660    5.0555 H   0  0  0  0  0  0  0  0  0  0  0  0
    2.8485   -7.1273    5.9292 H   0  0  0  0  0  0  0  0  0  0  0  0
    3.7954   -8.5998    6.1916 H   0  0  0  0  0  0  0  0  0  0  0  0
    4.6639   -5.8033    7.0620 H   0  0  0  0  0  0  0  0  0  0  0  0
    5.5259   -7.3008    7.3961 H   0  0  0  0  0  0  0  0  0  0  0  0
    3.9444   -7.0177    8.1387 H   0  0  0  0  0  0  0  0  0  0  0  0
    3.4848   -5.5165    4.2536 H   0  0  0  0  0  0  0  0  0  0  0  0
    0.5787   -0.9024   -2.9030 H   0  0  0  0  0  0  0  0  0  0  0  0
   -0.3581    0.6125   -2.9756 H   0  0  0  0  0  0  0  0  0  0  0  0
   -1.9425   -0.4672   -4.5585 H   0  0  0  0  0  0  0  0  0  0  0  0
   -1.0827   -2.0026   -4.3951 H   0  0  0  0  0  0  0  0  0  0  0  0
   -0.2923   -0.6163   -5.1564 H   0  0  0  0  0  0  0  0  0  0  0  0
    2.5401   -0.6813    0.0563 H   0  0  0  0  0  0  0  0  0  0  0  0
    1.2018   -0.2642   -1.0167 H   0  0  0  0  0  0  0  0  0  0  0  0
    2.5544   -1.4877   -2.8935 H   0  0  0  0  0  0  0  0  0  0  0  0
    3.3082   -0.0211   -2.2549 H   0  0  0  0  0  0  0  0  0  0  0  0
    3.8688   -1.6061   -1.7290 H   0  0  0  0  0  0  0  0  0  0  0  0
   12.8594   -1.0500    2.6573 H   0  0  0  0  0  0  0  0  0  0  0  0
   13.6454   -0.4250    1.1852 H   0  0  0  0  0  0  0  0  0  0  0  0
   12.5718    1.8099    1.6177 H   0  0  0  0  0  0  0  0  0  0  0  0
   13.6045    1.2982    2.9598 H   0  0  0  0  0  0  0  0  0  0  0  0
   11.8518    1.1478    3.0952 H   0  0  0  0  0  0  0  0  0  0  0  0
    9.5579   -0.0911   -2.7062 H   0  0  0  0  0  0  0  0  0  0  0  0
    8.0690   -0.6372   -1.8963 H   0  0  0  0  0  0  0  0  0  0  0  0
   10.2929   -2.4877   -2.8877 H   0  0  0  0  0  0  0  0  0  0  0  0
    8.7785   -2.9896   -2.1229 H   0  0  0  0  0  0  0  0  0  0  0  0
    8.7505   -2.2067   -3.7043 H   0  0  0  0  0  0  0  0  0  0  0  0
   10.3760   -2.7329    5.1595 H   0  0  0  0  0  0  0  0  0  0  0  0
    6.1437   -5.0994    9.1100 H   0  0  0  0  0  0  0  0  0  0  0  0
    5.6097   -5.5623   11.4768 H   0  0  0  0  0  0  0  0  0  0  0  0
    6.3084   -5.6578   13.8579 H   0  0  0  0  0  0  0  0  0  0  0  0
   10.2455   -4.4066   12.7893 H   0  0  0  0  0  0  0  0  0  0  0  0
   10.8101   -3.9619   10.4535 H   0  0  0  0  0  0  0  0  0  0  0  0
  1  2  2  0  0  0  0
  2  3  1  0  0  0  0
  3  4  2  0  0  0  0
  3  5  1  0  0  0  0
  5  6  2  0  0  0  0
  6  7  1  0  0  0  0
  7  8  2  0  0  0  0
  8  9  1  0  0  0  0
  9 10  2  0  0  0  0
 10 11  1  0  0  0  0
 10 12  1  0  0  0  0
 12 13  2  0  0  0  0
 13 14  1  0  0  0  0
 14 15  2  0  0  0  0
 15 16  1  0  0  0  0
 16 17  2  0  0  0  0
 17 18  1  0  0  0  0
 18 19  3  0  0  0  0
 17 20  1  0  0  0  0
 20 21  3  0  0  0  0
  1 22  1  0  0  0  0
 22 23  2  0  0  0  0
 23 24  1  0  0  0  0
 23 25  1  0  0  0  0
 25 26  1  0  0  0  0
 25 27  2  0  0  0  0
 27 28  1  0  0  0  0
 28 29  2  0  0  0  0
 29 30  1  0  0  0  0
 30 31  1  0  0  0  0
 31 32  1  0  0  0  0
 30 33  2  0  0  0  0
 33 34  1  0  0  0  0
 34 35  2  0  0  0  0
 33 36  1  0  0  0  0
 36 37  1  0  0  0  0
 27 38  1  0  0  0  0
 38 39  2  0  0  0  0
 39 40  1  0  0  0  0
 40 41  2  0  0  0  0
 41 42  1  0  0  0  0
 42 43  2  0  0  0  0
 43 44  1  0  0  0  0
 44 45  1  0  0  0  0
 45 46  1  0  0  0  0
 44 47  2  0  0  0  0
 39 48  1  0  0  0  0
 48 49  1  0  0  0  0
 49 50  1  0  0  0  0
 50 51  1  0  0  0  0
 51 52  1  0  0  0  0
 52 53  1  0  0  0  0
 53 54  2  0  0  0  0
 54 55  1  0  0  0  0
 55 56  1  0  0  0  0
 53 57  1  0  0  0  0
 57 58  1  0  0  0  0
 58 59  1  0  0  0  0
 59 60  1  0  0  0  0
 60 61  1  0  0  0  0
 61 62  1  0  0  0  0
 62 63  2  0  0  0  0
 63 64  1  0  0  0  0
 64 65  2  0  0  0  0
 65 66  1  0  0  0  0
 66 67  1  0  0  0  0
 67 68  1  0  0  0  0
 66 69  2  0  0  0  0
 61 70  2  0  0  0  0
 70 71  1  0  0  0  0
 71 72  1  0  0  0  0
 72 73  1  0  0  0  0
 73 74  1  0  0  0  0
 74 75  1  0  0  0  0
 75 76  1  0  0  0  0
 76 77  1  0  0  0  0
 77 78  1  0  0  0  0
 78 79  1  0  0  0  0
 79 80  1  0  0  0  0
 77 81  1  0  0  0  0
 81 82  1  0  0  0  0
 74 83  1  0  0  0  0
 83 84  1  0  0  0  0
 70 85  1  0  0  0  0
 85 86  1  0  0  0  0
 86 87  1  0  0  0  0
 87 88  2  0  0  0  0
 88 89  1  0  0  0  0
 89 90  2  0  0  0  0
 89 91  1  0  0  0  0
 91 92  2  0  0  0  0
 92 93  1  0  0  0  0
 93 94  1  0  0  0  0
 92 95  1  0  0  0  0
 95 96  1  0  0  0  0
 96 97  1  0  0  0  0
 97 98  1  0  0  0  0
 96 99  2  0  0  0  0
 99100  1  0  0  0  0
100101  2  0  0  0  0
100102  1  0  0  0  0
 87103  1  0  0  0  0
103104  2  0  0  0  0
104105  1  0  0  0  0
105106  2  0  0  0  0
105107  1  0  0  0  0
107108  2  0  0  0  0
108109  1  0  0  0  0
109110  2  0  0  0  0
110111  1  0  0  0  0
111112  2  0  0  0  0
112113  1  0  0  0  0
112114  1  0  0  0  0
114115  2  0  0  0  0
115116  1  0  0  0  0
116117  2  0  0  0  0
117118  1  0  0  0  0
118119  2  0  0  0  0
119120  1  0  0  0  0
120121  3  0  0  0  0
119122  1  0  0  0  0
122123  3  0  0  0  0
 16  2  1  0  0  0  0
 35 22  1  0  0  0  0
 80 38  1  0  0  0  0
102 85  2  0  0  0  0
118104  1  0  0  0  0
 15  5  1  0  0  0  0
 35 28  1  0  0  0  0
 47 40  1  0  0  0  0
 79 48  2  0  0  0  0
102 88  1  0  0  0  0
117107  1  0  0  0  0
 13  7  1  0  0  0  0
 78 50  2  0  0  0  0
 99 91  1  0  0  0  0
115109  1  0  0  0  0
 76 51  2  0  0  0  0
 56 52  2  0  0  0  0
 75 57  2  0  0  0  0
 73 58  2  0  0  0  0
 72 60  2  0  0  0  0
 69 62  1  0  0  0  0
  1124  1  0  0  0  0
  6125  1  0  0  0  0
  8126  1  0  0  0  0
  9127  1  0  0  0  0
 12128  1  0  0  0  0
 14129  1  0  0  0  0
 31130  1  0  0  0  0
 31131  1  0  0  0  0
 32132  1  0  0  0  0
 32133  1  0  0  0  0
 32134  1  0  0  0  0
 36135  1  0  0  0  0
 36136  1  0  0  0  0
 37137  1  0  0  0  0
 37138  1  0  0  0  0
 37139  1  0  0  0  0
 41140  1  0  0  0  0
 42141  1  0  0  0  0
 43142  1  0  0  0  0
 45143  1  0  0  0  0
 45144  1  0  0  0  0
 46145  1  0  0  0  0
 46146  1  0  0  0  0
 46147  1  0  0  0  0
 47148  1  0  0  0  0
 63149  1  0  0  0  0
 64150  1  0  0  0  0
 65151  1  0  0  0  0
 67152  1  0  0  0  0
 67153  1  0  0  0  0
 68154  1  0  0  0  0
 68155  1  0  0  0  0
 68156  1  0  0  0  0
 69157  1  0  0  0  0
 81158  1  0  0  0  0
 81159  1  0  0  0  0
 82160  1  0  0  0  0
 82161  1  0  0  0  0
 82162  1  0  0  0  0
 83163  1  0  0  0  0
 83164  1  0  0  0  0
 84165  1  0  0  0  0
 84166  1  0  0  0  0
 84167  1  0  0  0  0
 93168  1  0  0  0  0
 93169  1  0  0  0  0
 94170  1  0  0  0  0
 94171  1  0  0  0  0
 94172  1  0  0  0  0
 97173  1  0  0  0  0
 97174  1  0  0  0  0
 98175  1  0  0  0  0
 98176  1  0  0  0  0
 98177  1  0  0  0  0
103178  1  0  0  0  0
108179  1  0  0  0  0
110180  1  0  0  0  0
111181  1  0  0  0  0
114182  1  0  0  0  0
116183  1  0  0  0  0
M  END
