183

C         -6.91770        7.35840       -4.62530
C         -7.31640        7.76950       -5.85290
C         -7.52880        6.87250       -7.02590
O         -7.48370        5.66350       -7.04250
C         -7.93200        7.76040       -8.13110
C         -8.18880        7.43550       -9.43180
C         -8.56150        8.45420      -10.33600
C         -8.83050        8.17620      -11.69190
C         -9.19280        9.17130      -12.55630
C         -9.29410       10.48420      -12.07540
F         -9.65220       11.44960      -12.94150
C         -9.04370       10.80880      -10.77150
C         -8.66930        9.79590       -9.86660
C         -8.40540       10.10090       -8.51180
C         -8.04060        9.09700       -7.65300
C         -7.71850        9.11580       -6.23020
C         -7.78420       10.21210       -5.41250
C         -7.51560       10.22250       -4.02710
N         -7.33110       10.32180       -2.89780
C         -8.16620       11.50030       -5.84500
N         -8.46820       12.57060       -6.12910
C         -6.40240        6.05940       -4.28960
C         -5.51060        5.33740       -5.06560
F         -5.00350        5.86640       -6.18600
C         -5.03300        4.08600       -4.66520
F         -4.15510        3.46350       -5.47310
C         -5.44710        3.46650       -3.49640
C         -6.31800        4.21260       -2.64570
N         -6.68000        3.71270       -1.45330
C         -7.41890        4.43180       -0.64530
C         -7.81300        3.77290        0.64080
C         -9.30860        3.45540        0.67150
C         -7.80430        5.75820       -1.00170
N         -7.48420        6.24280       -2.17620
C         -6.75280        5.50380       -3.02410
C         -8.54680        6.68410       -0.08500
C         -7.97470        8.10020       -0.12760
C         -4.95300        2.17760       -3.08500
C         -5.63920        1.17450       -2.42300
C         -7.08960        1.10730       -2.26780
C         -7.93820        1.56460       -3.27470
C         -9.30590        1.43410       -3.13710
C         -9.84340        0.83370       -2.01070
C         -9.01330        0.36690       -0.99940
C         -9.57220       -0.33480        0.20490
C         -9.47140       -1.85090        0.02620
C         -7.64180        0.51320       -1.13820
C         -4.76130        0.14730       -2.01910
S         -4.99060       -1.33560       -1.12060
C         -3.28980       -1.63570       -1.21360
C         -2.34380       -2.56000       -0.73850
C         -2.47520       -3.76450       -0.01290
C         -1.29000       -4.49120        0.35140
N         -1.56490       -5.61250        0.99790
S         -3.17240       -5.74470        1.13910
N         -3.58210       -4.37170        0.38390
C         -0.02600       -3.91990        0.08040
C          1.25870       -4.24900        0.53690
S          2.02450       -5.43480        1.54040
C          3.50350       -4.50110        1.45710
C          4.75320       -4.65870        2.05810
C          5.10750       -5.80850        2.89440
C          6.20170       -6.60330        2.56090
C          6.51250       -7.70240        3.33660
C          5.74700       -8.00920        4.44830
C          4.65040       -7.22910        4.79090
C          3.86110       -7.52120        6.03320
C          4.53950       -6.86890        7.23970
C          4.33230       -6.13610        3.99950
C          5.62290       -3.61880        1.71810
S          4.90270       -2.50590        0.56410
C          3.40240       -3.35300        0.65940
C          2.11460       -3.21810        0.13000
N          1.41230       -2.28280       -0.58220
C          0.09570       -2.69250       -0.63230
C         -1.07100       -2.08250       -1.15410
N         -1.24700       -0.94350       -1.92340
C         -2.59000       -0.66040       -1.92860
C         -3.43140        0.35810       -2.39110
S         -3.24320        1.83180       -3.26480
C         -0.41440       -0.48030       -3.01420
C         -0.97420       -0.92020       -4.36700
C          1.99890       -0.98770       -0.84590
C          2.99080       -1.03010       -2.00810
C          6.83460       -3.32510        2.38890
S          7.05870       -3.96910        3.98990
C          8.57450       -3.12950        4.18170
C          8.87980       -2.38930        3.03350
C         10.08900       -1.56090        2.88550
O         10.79160       -1.21620        3.82160
C         10.35760       -1.18020        1.50120
C         11.54320       -0.65160        1.05740
C         12.77020       -0.34030        1.83230
C         12.69350        1.07570        2.41170
S         11.46450       -0.31160       -0.63860
C          9.82530       -0.85680       -0.75010
C          9.12500       -0.85770       -2.06100
C          9.24750       -2.22620       -2.73830
C          9.37780       -1.31160        0.46530
C          8.04110       -1.84180        0.72430
O          7.12930       -1.76980       -0.09250
C          7.89940       -2.48610        2.02550
C          9.42330       -3.23240        5.29770
C          9.19170       -3.79600        6.52290
C          7.90580       -4.30470        7.02350
O          6.89150       -4.52430        6.38610
C          8.07640       -4.47330        8.47640
C          7.15280       -4.85550        9.40600
C          7.53340       -4.92590       10.76430
C          6.61910       -5.31100       11.76590
C          6.99520       -5.36620       13.07920
C          8.31280       -5.03280       13.42110
F          8.66400       -5.09150       14.71850
C          9.23940       -4.65490       12.48940
C          8.86980       -4.59360       11.13180
C          9.80750       -4.20980       10.14400
C          9.41810       -4.15410        8.83270
C         10.14740       -3.81110        7.61530
C         11.50040       -3.62290        7.51610
C         12.37520       -3.63830        8.62230
N         13.12930       -3.63250        9.48780
C         12.21420       -3.46270        6.30760
N         12.87980       -3.38670        5.37530
H         -7.02240        8.01600       -3.77300
H         -8.10190        6.41290       -9.76700
H         -8.74570        7.15730      -12.03870
H         -9.40290        8.97580      -13.59590
H         -9.13150       11.83040      -10.43590
H         -8.49830       11.12510       -8.18830
H         -7.55110        4.41330        1.48620
H         -7.24550        2.84500        0.71650
H         -9.55440        2.92530        1.58820
H         -9.57000        2.82380       -0.17360
H         -9.90680        4.36130        0.62540
H         -9.59140        6.71410       -0.40830
H         -8.51960        6.30570        0.93660
H         -8.54790        8.75270        0.52560
H         -6.93970        8.09920        0.20560
H         -8.00810        8.49880       -1.13660
H         -7.52570        2.00480       -4.17030
H         -9.95860        1.79260       -3.91980
H        -10.91480        0.72590       -1.91720
H         -9.01250       -0.04200        1.09560
H        -10.61750       -0.05460        0.34900
H         -8.43360       -2.14810       -0.10500
H         -9.87370       -2.36420        0.89640
H        -10.03100       -2.16540       -0.85200
H         -6.99360        0.17060       -0.34570
H          6.79620       -6.35710        1.69260
H          7.35690       -8.32300        3.07430
H          6.00200       -8.86600        5.05550
H          2.84850       -7.12730        5.92920
H          3.79540       -8.59980        6.19160
H          4.66390       -5.80330        7.06200
H          5.52590       -7.30080        7.39610
H          3.94440       -7.01770        8.13870
H          3.48480       -5.51650        4.25360
H          0.57870       -0.90240       -2.90300
H         -0.35810        0.61250       -2.97560
H         -1.94250       -0.46720       -4.55850
H         -1.08270       -2.00260       -4.39510
H         -0.29230       -0.61630       -5.15640
H          2.54010       -0.68130        0.05630
H          1.20180       -0.26420       -1.01670
H          2.55440       -1.48770       -2.89350
H          3.30820       -0.02110       -2.25490
H          3.86880       -1.60610       -1.72900
H         12.85940       -1.05000        2.65730
H         13.64540       -0.42500        1.18520
H         12.57180        1.80990        1.61770
H         13.60450        1.29820        2.95980
H         11.85180        1.14780        3.09520
H          9.55790       -0.09110       -2.70620
H          8.06900       -0.63720       -1.89630
H         10.29290       -2.48770       -2.88770
H          8.77850       -2.98960       -2.12290
H          8.75050       -2.20670       -3.70430
H         10.37600       -2.73290        5.15950
H          6.14370       -5.09940        9.11000
H          5.60970       -5.56230       11.47680
H          6.30840       -5.65780       13.85790
H         10.24550       -4.40660       12.78930
H         10.81010       -3.96190       10.45350
