190

C          7.36240        8.88370        2.96780
C          8.66940        8.80460        2.61430
C          9.27470        7.62890        1.92720
O          8.73820        6.58600        1.62270
C         10.71440        7.93400        1.82350
C         11.70380        7.18210        1.25700
C         13.03120        7.66370        1.27090
C         14.08720        6.93530        0.68570
C         15.36840        7.41120        0.70960
C         15.62310        8.64330        1.32810
F         16.89000        9.09470        1.34060
C         14.63650        9.38950        1.90980
C         13.31000        8.91520        1.89350
C         12.26770        9.66480        2.48540
C         10.98480        9.18440        2.44710
C          9.73170        9.73690        2.95020
C          9.58290       10.95570        3.55530
C         10.64880       11.83830        3.83180
N         11.47200       12.59680        4.08600
C          8.35400       11.51320        3.96970
N          7.39760       12.04510        4.31630
C          6.33230        8.07180        2.37970
C          5.27260        7.58220        3.12370
F          5.23200        7.81790        4.44380
C          4.26170        6.80210        2.55750
F          3.28640        6.35390        3.36830
C          4.22910        6.50030        1.20530
C          5.29550        7.00890        0.40730
N          5.36510        6.68000       -0.89290
C          6.34320        7.13860       -1.63130
C          6.33490        6.71980       -3.07000
C          5.51390        7.70140       -3.91140
C          7.28790        8.05370       -1.08400
N          7.25210        8.35500        0.18870
C          6.31770        7.80660        0.97920
C          8.37790        8.69700       -1.88590
C          9.61620        7.79690       -1.91170
C          3.20980        5.64280        0.64430
C          2.48150        5.79370       -0.51430
C          2.42570        7.00290       -1.38920
C          1.14320        7.79280       -1.11890
C          1.62990        4.69320       -0.72140
S          0.51480        4.30410       -2.00930
C          0.14660        2.82080       -1.20510
C         -0.62610        1.66890       -1.41570
C         -1.36640        1.28540       -2.55950
N         -1.39290        2.04940       -3.64950
C         -2.06270        1.62200       -4.70900
C         -1.87240        2.42230       -5.89880
S         -1.92380        1.76990       -7.51000
C         -1.45150        3.28140       -8.20740
C         -1.26770        3.45030       -9.67560
C         -0.05220        2.66980      -10.17890
C         -1.26580        4.20350       -7.21780
C         -1.48630        3.73540       -5.91120
F         -0.90010        5.47300       -7.47660
C         -2.83150        0.42290       -4.63580
C         -3.79570        0.00230       -5.62380
C         -4.61330        0.73700       -6.43850
C         -5.47620       -0.08830       -7.17930
F         -6.36840        0.41280       -8.05540
C         -5.34990       -1.42810       -6.94440
C         -6.08770       -2.54770       -7.59370
C         -5.15530       -3.40850       -8.44720
S         -4.12870       -1.69710       -5.75150
N         -2.71950       -0.38360       -3.59230
C         -1.96990        0.00320       -2.56290
C         -1.83890       -0.79870       -1.40400
C         -2.42210       -2.04320       -1.11700
S         -3.40850       -3.22560       -1.89820
C         -3.42550       -4.14570       -0.41040
C         -4.03940       -5.36220       -0.07050
C         -4.94760       -6.07030       -1.02680
C         -6.37880       -6.16650       -0.49660
C         -3.78450       -5.68630        1.24980
S         -2.82560       -4.47090        2.07550
C         -2.69920       -3.54780        0.62470
C         -2.11790       -2.34190        0.21210
N         -1.33320       -1.35180        0.75120
C         -1.30320       -1.21280        2.19040
C         -2.45770       -0.33950        2.67780
C         -1.14690       -0.38900       -0.22950
C         -0.42520        0.82820       -0.28380
N          0.48950        1.43790        0.55390
C          0.83090        2.64360       -0.00090
C          1.69570        3.71240        0.27070
S          2.82390        4.15390        1.49740
C          1.27820        0.89960        1.63760
C          0.86950        1.47890        2.99090
C         -4.21560       -6.82250        2.01830
C         -4.23840       -8.11640        1.51510
F         -3.70460       -8.37960        0.31020
C         -4.75420       -9.19520        2.23430
F         -4.66330      -10.41060        1.68020
C         -5.25050       -9.04970        3.52110
C         -5.11170       -7.76580        4.11920
N         -5.48210       -7.60460        5.40100
C         -5.37140       -6.42490        5.95740
C         -5.72120       -6.34730        7.41110
C         -4.47810       -6.61410        8.26480
C         -4.90810       -5.30580        5.20370
N         -4.54710       -5.45270        3.95380
C         -4.61550       -6.66560        3.38060
C         -4.85070       -3.93110        5.79940
C         -4.26910       -2.89330        4.85050
C         -5.82130      -10.12490        4.28360
C         -6.65040      -11.07340        3.78030
C         -7.34980      -10.96320        2.46690
O         -7.28700      -10.05260        1.67140
C         -8.23990      -12.13490        2.39690
C         -9.08040      -12.50080        1.38530
C         -9.85200      -13.67540        1.52160
C        -10.72720      -14.10610        0.50330
C        -11.47160      -15.24330        0.64920
C        -11.35370      -15.98380        1.83360
F        -12.09510      -17.09940        1.95880
C        -10.52010      -15.61190        2.85120
C         -9.74440      -14.44340        2.71770
C         -8.87040      -14.03540        3.75150
C         -8.12300      -12.89780        3.59310
C         -7.14870      -12.25300        4.46680
C         -6.73850      -12.71590        5.68840
C         -7.23790      -13.88590        6.29900
N         -7.61020      -14.82130        6.85040
C         -5.76490      -12.10450        6.50700
N         -4.98060      -11.67910        7.22990
H          7.03720        9.59770        3.71360
H         11.47610        6.23010        0.80020
H         13.86620        5.98860        0.21590
H         16.18770        6.86680        0.26770
H         14.86900       10.33390        2.37660
H         12.51350       10.60210        2.95790
H          7.35100        6.65990       -3.45810
H          5.87240        5.73400       -3.12940
H          5.50980        7.38500       -4.95130
H          5.92590        8.70680       -3.85720
H          4.48860        7.73180       -3.55340
H          8.63700        9.64230       -1.40650
H          8.04330        8.89590       -2.90370
H          9.39830        6.84540       -2.39120
H          9.95020        7.59810       -0.89730
H         10.42120        8.28500       -2.45570
H          2.43260        6.67430       -2.43070
H          3.29120        7.63800       -1.21520
H          0.26770        7.17970       -1.31710
H          1.10340        8.66940       -1.76050
H          1.11070        8.12040       -0.08200
H         -2.16130        3.10030      -10.19830
H         -1.13840        4.51420       -9.88570
H         -0.17610        1.60850       -9.97540
H          0.85180        3.01520       -9.68260
H          0.06440        2.80910      -11.25040
H         -1.37050        4.32790       -5.02370
H         -4.62600        1.80940       -6.49690
H         -6.55020       -3.17290       -6.82580
H         -6.87860       -2.12520       -8.21700
H         -4.69810       -2.80920       -9.23090
H         -5.71240       -4.21910       -8.90960
H         -4.36690       -3.83230       -7.82970
H         -4.57340       -7.06900       -1.24980
H         -4.94680       -5.50090       -1.95910
H         -6.75950       -5.17700       -0.25200
H         -7.02160       -6.60730       -1.25390
H         -6.43000       -6.78670        0.39500
H         -0.35480       -0.80430        2.52620
H         -1.40360       -2.21970        2.60360
H         -2.42030       -0.24280        3.75920
H         -3.40910       -0.78800        2.40300
H         -2.40200        0.65080        2.23010
H          2.32350        1.16790        1.44690
H          1.21220       -0.18910        1.61560
H          1.43890        1.00100        3.78330
H         -0.19060        1.33670        3.18100
H          1.08020        2.54480        3.01520
H         -6.14100       -5.37150        7.65600
H         -6.46290       -7.11830        7.62240
H         -3.69600       -5.88680        8.05720
H         -4.09070       -7.60740        8.05350
H         -4.73260       -6.55770        9.31980
H         -4.25890       -3.96700        6.71730
H         -5.86820       -3.64240        6.08190
H         -4.29630       -1.90970        5.31300
H         -4.83970       -2.86770        3.92710
H         -3.24110       -3.14280        4.60560
H         -5.59090      -10.10060        5.34010
H         -9.14930      -11.90300        0.48870
H        -10.80050      -13.51890       -0.39970
H        -12.14570      -15.58670       -0.11940
H        -10.45380      -16.20730        3.74840
H         -8.81600      -14.63560        4.64540
