
  xtb     02112210253D
 energy: -271.830500543685 gnorm: 0.000601742921 xtb: 6.4.1 (unknown)
147163  0     0  0            999 V2000
    9.9343   -2.3153   -3.6203 C   0  0  0  0  0  0  0  0  0  0  0  0
   10.4973   -1.5917   -4.6188 C   0  0  0  0  0  0  0  0  0  0  0  0
   10.0278   -0.2570   -5.0921 C   0  0  0  0  0  0  0  0  0  0  0  0
    9.2802    0.5148   -4.5360 O   0  0  0  0  0  0  0  0  0  0  0  0
   10.6071   -0.1010   -6.4394 C   0  0  0  0  0  0  0  0  0  0  0  0
   10.4068    0.9118   -7.3331 C   0  0  0  0  0  0  0  0  0  0  0  0
   11.0561    0.8630   -8.5861 C   0  0  0  0  0  0  0  0  0  0  0  0
   10.8827    1.8816   -9.5457 C   0  0  0  0  0  0  0  0  0  0  0  0
   11.5118    1.8216  -10.7578 C   0  0  0  0  0  0  0  0  0  0  0  0
   12.3407    0.7263  -11.0381 C   0  0  0  0  0  0  0  0  0  0  0  0
   12.9514    0.6852  -12.2354 F   0  0  0  0  0  0  0  0  0  0  0  0
   12.5438   -0.2878  -10.1439 C   0  0  0  0  0  0  0  0  0  0  0  0
   11.9030   -0.2432   -8.8902 C   0  0  0  0  0  0  0  0  0  0  0  0
   12.0921   -1.2775   -7.9447 C   0  0  0  0  0  0  0  0  0  0  0  0
   11.4543   -1.2065   -6.7342 C   0  0  0  0  0  0  0  0  0  0  0  0
   11.4582   -2.1022   -5.5859 C   0  0  0  0  0  0  0  0  0  0  0  0
   12.2881   -3.1728   -5.3962 C   0  0  0  0  0  0  0  0  0  0  0  0
   12.3498   -3.9278   -4.2044 C   0  0  0  0  0  0  0  0  0  0  0  0
   12.4736   -4.5553   -3.2514 N   0  0  0  0  0  0  0  0  0  0  0  0
   13.2286   -3.6182   -6.3489 C   0  0  0  0  0  0  0  0  0  0  0  0
   14.0035   -4.0237   -7.0919 N   0  0  0  0  0  0  0  0  0  0  0  0
    9.0237   -1.8382   -2.6113 C   0  0  0  0  0  0  0  0  0  0  0  0
    7.9818   -2.6666   -2.1689 C   0  0  0  0  0  0  0  0  0  0  0  0
    7.8255   -3.8733   -2.7456 F   0  0  0  0  0  0  0  0  0  0  0  0
    7.0891   -2.2851   -1.1961 C   0  0  0  0  0  0  0  0  0  0  0  0
    7.2279   -1.0498   -0.5564 C   0  0  0  0  0  0  0  0  0  0  0  0
    8.2696   -0.2193   -0.9970 C   0  0  0  0  0  0  0  0  0  0  0  0
    8.4119    1.0045   -0.4596 F   0  0  0  0  0  0  0  0  0  0  0  0
    9.1430   -0.5898   -1.9925 C   0  0  0  0  0  0  0  0  0  0  0  0
    6.3084   -0.6509    0.4841 C   0  0  0  0  0  0  0  0  0  0  0  0
    6.5722    0.0149    1.6649 C   0  0  0  0  0  0  0  0  0  0  0  0
    7.9181    0.2889    2.1656 C   0  0  0  0  0  0  0  0  0  0  0  0
    8.2117    1.4950    2.7945 C   0  0  0  0  0  0  0  0  0  0  0  0
    9.4973    1.7431    3.2353 C   0  0  0  0  0  0  0  0  0  0  0  0
   10.4952    0.8009    3.0546 C   0  0  0  0  0  0  0  0  0  0  0  0
   10.2150   -0.4168    2.4478 C   0  0  0  0  0  0  0  0  0  0  0  0
   11.2908   -1.4367    2.2059 C   0  0  0  0  0  0  0  0  0  0  0  0
   11.7620   -1.3812    0.7510 C   0  0  0  0  0  0  0  0  0  0  0  0
    8.9213   -0.6642    2.0167 C   0  0  0  0  0  0  0  0  0  0  0  0
    5.3789    0.3059    2.3603 C   0  0  0  0  0  0  0  0  0  0  0  0
    5.0451    1.1198    3.8696 S   0  0  0  0  0  0  0  0  0  0  0  0
    3.3529    0.8533    3.6194 C   0  0  0  0  0  0  0  0  0  0  0  0
    2.1225    1.1251    4.2490 C   0  0  0  0  0  0  0  0  0  0  0  0
    1.7719    1.6606    5.5094 C   0  0  0  0  0  0  0  0  0  0  0  0
    0.3862    1.6793    5.9070 C   0  0  0  0  0  0  0  0  0  0  0  0
    0.2235    2.1388    7.1374 N   0  0  0  0  0  0  0  0  0  0  0  0
    1.6744    2.5231    7.7425 S   0  0  0  0  0  0  0  0  0  0  0  0
    2.5726    2.1163    6.4596 N   0  0  0  0  0  0  0  0  0  0  0  0
   -0.6061    1.3022    4.9733 C   0  0  0  0  0  0  0  0  0  0  0  0
   -2.0136    1.3582    4.9819 C   0  0  0  0  0  0  0  0  0  0  0  0
   -3.3095    1.7468    6.0630 S   0  0  0  0  0  0  0  0  0  0  0  0
   -4.4502    1.4643    4.7703 C   0  0  0  0  0  0  0  0  0  0  0  0
   -5.8600    1.5160    4.6988 C   0  0  0  0  0  0  0  0  0  0  0  0
   -6.7397    1.7831    5.8363 C   0  0  0  0  0  0  0  0  0  0  0  0
   -6.4381    2.7950    6.7425 C   0  0  0  0  0  0  0  0  0  0  0  0
   -7.2954    3.0512    7.7952 C   0  0  0  0  0  0  0  0  0  0  0  0
   -8.4538    2.3101    7.9523 C   0  0  0  0  0  0  0  0  0  0  0  0
   -8.7604    1.2832    7.0686 C   0  0  0  0  0  0  0  0  0  0  0  0
  -10.0344    0.4977    7.1966 C   0  0  0  0  0  0  0  0  0  0  0  0
  -11.0758    1.0054    6.1968 C   0  0  0  0  0  0  0  0  0  0  0  0
   -7.8903    1.0226    6.0217 C   0  0  0  0  0  0  0  0  0  0  0  0
   -6.3031    1.1946    3.4322 C   0  0  0  0  0  0  0  0  0  0  0  0
   -4.9999    0.7794    2.3347 S   0  0  0  0  0  0  0  0  0  0  0  0
   -3.8391    1.0832    3.5752 C   0  0  0  0  0  0  0  0  0  0  0  0
   -2.4459    1.0205    3.6958 C   0  0  0  0  0  0  0  0  0  0  0  0
   -1.3710    0.7286    2.8926 N   0  0  0  0  0  0  0  0  0  0  0  0
   -0.2384    0.8714    3.6736 C   0  0  0  0  0  0  0  0  0  0  0  0
    1.1194    0.6275    3.3796 C   0  0  0  0  0  0  0  0  0  0  0  0
    1.7098    0.0080    2.2929 N   0  0  0  0  0  0  0  0  0  0  0  0
    3.0672    0.1615    2.4378 C   0  0  0  0  0  0  0  0  0  0  0  0
    4.2265   -0.1580    1.7228 C   0  0  0  0  0  0  0  0  0  0  0  0
    4.5994   -0.9726    0.2475 S   0  0  0  0  0  0  0  0  0  0  0  0
    1.1739   -1.1203    1.5578 C   0  0  0  0  0  0  0  0  0  0  0  0
    1.7040   -2.4433    2.1104 C   0  0  0  0  0  0  0  0  0  0  0  0
   -1.4577    0.9318    1.4602 C   0  0  0  0  0  0  0  0  0  0  0  0
   -1.8343    2.3754    1.1272 C   0  0  0  0  0  0  0  0  0  0  0  0
   -7.6554    1.1791    2.9187 C   0  0  0  0  0  0  0  0  0  0  0  0
   -8.5926    2.1722    3.2346 C   0  0  0  0  0  0  0  0  0  0  0  0
   -8.2234    3.2241    3.9885 F   0  0  0  0  0  0  0  0  0  0  0  0
   -9.8867    2.1356    2.7693 C   0  0  0  0  0  0  0  0  0  0  0  0
  -10.3037    1.1209    1.9049 C   0  0  0  0  0  0  0  0  0  0  0  0
   -9.3641    0.1372    1.5758 C   0  0  0  0  0  0  0  0  0  0  0  0
   -9.7423   -0.9179    0.8358 F   0  0  0  0  0  0  0  0  0  0  0  0
   -8.0778    0.1583    2.0644 C   0  0  0  0  0  0  0  0  0  0  0  0
  -11.6653    1.0815    1.4131 C   0  0  0  0  0  0  0  0  0  0  0  0
  -12.0053    0.8269    0.1307 C   0  0  0  0  0  0  0  0  0  0  0  0
  -11.0438    0.8766   -1.0177 C   0  0  0  0  0  0  0  0  0  0  0  0
   -9.8532    1.0879   -0.9679 O   0  0  0  0  0  0  0  0  0  0  0  0
  -11.8733    0.7355   -2.2192 C   0  0  0  0  0  0  0  0  0  0  0  0
  -11.4848    0.7365   -3.5452 C   0  0  0  0  0  0  0  0  0  0  0  0
  -12.4479    0.6033   -4.5309 C   0  0  0  0  0  0  0  0  0  0  0  0
  -13.7980    0.4804   -4.1893 C   0  0  0  0  0  0  0  0  0  0  0  0
  -14.8042    0.3546   -5.0768 O   0  0  0  0  0  0  0  0  0  0  0  0
  -14.5152    0.3390   -6.4563 C   0  0  0  0  0  0  0  0  0  0  0  0
  -14.1935    0.4848   -2.8428 C   0  0  0  0  0  0  0  0  0  0  0  0
  -13.2313    0.6087   -1.8630 C   0  0  0  0  0  0  0  0  0  0  0  0
  -13.3441    0.6367   -0.4084 C   0  0  0  0  0  0  0  0  0  0  0  0
  -14.4868    0.4368    0.3143 C   0  0  0  0  0  0  0  0  0  0  0  0
  -15.7600    0.2135   -0.2546 C   0  0  0  0  0  0  0  0  0  0  0  0
  -16.8230    0.0316   -0.6462 N   0  0  0  0  0  0  0  0  0  0  0  0
  -14.5550    0.4064    1.7245 C   0  0  0  0  0  0  0  0  0  0  0  0
  -14.6837    0.3610    2.8644 N   0  0  0  0  0  0  0  0  0  0  0  0
   10.1266   -3.3821   -3.5866 H   0  0  0  0  0  0  0  0  0  0  0  0
    9.7596    1.7398   -7.0853 H   0  0  0  0  0  0  0  0  0  0  0  0
   10.2392    2.7148   -9.3062 H   0  0  0  0  0  0  0  0  0  0  0  0
   11.3888    2.5910  -11.5033 H   0  0  0  0  0  0  0  0  0  0  0  0
   13.1902   -1.1146  -10.3938 H   0  0  0  0  0  0  0  0  0  0  0  0
   12.7308   -2.1063   -8.2054 H   0  0  0  0  0  0  0  0  0  0  0  0
    6.2933   -2.9560   -0.9110 H   0  0  0  0  0  0  0  0  0  0  0  0
    9.9263    0.0919   -2.2769 H   0  0  0  0  0  0  0  0  0  0  0  0
    7.4410    2.2408    2.9135 H   0  0  0  0  0  0  0  0  0  0  0  0
    9.7254    2.6828    3.7161 H   0  0  0  0  0  0  0  0  0  0  0  0
   11.5003    1.0098    3.3917 H   0  0  0  0  0  0  0  0  0  0  0  0
   12.1377   -1.2482    2.8678 H   0  0  0  0  0  0  0  0  0  0  0  0
   10.9064   -2.4367    2.4189 H   0  0  0  0  0  0  0  0  0  0  0  0
   10.9355   -1.5907    0.0743 H   0  0  0  0  0  0  0  0  0  0  0  0
   12.1512   -0.3924    0.5184 H   0  0  0  0  0  0  0  0  0  0  0  0
   12.5455   -2.1145    0.5757 H   0  0  0  0  0  0  0  0  0  0  0  0
    8.6874   -1.6188    1.5654 H   0  0  0  0  0  0  0  0  0  0  0  0
   -5.5485    3.3906    6.6064 H   0  0  0  0  0  0  0  0  0  0  0  0
   -7.0634    3.8416    8.4935 H   0  0  0  0  0  0  0  0  0  0  0  0
   -9.1249    2.5271    8.7709 H   0  0  0  0  0  0  0  0  0  0  0  0
  -10.4291    0.5926    8.2095 H   0  0  0  0  0  0  0  0  0  0  0  0
   -9.8385   -0.5595    7.0036 H   0  0  0  0  0  0  0  0  0  0  0  0
  -11.2774    2.0607    6.3670 H   0  0  0  0  0  0  0  0  0  0  0  0
  -10.7132    0.8863    5.1774 H   0  0  0  0  0  0  0  0  0  0  0  0
  -12.0062    0.4524    6.2995 H   0  0  0  0  0  0  0  0  0  0  0  0
   -8.1071    0.2094    5.3423 H   0  0  0  0  0  0  0  0  0  0  0  0
    1.4556   -1.0184    0.5046 H   0  0  0  0  0  0  0  0  0  0  0  0
    0.0891   -1.1220    1.6484 H   0  0  0  0  0  0  0  0  0  0  0  0
    2.7828   -2.5084    2.0008 H   0  0  0  0  0  0  0  0  0  0  0  0
    1.2517   -3.2700    1.5698 H   0  0  0  0  0  0  0  0  0  0  0  0
    1.4540   -2.5358    3.1652 H   0  0  0  0  0  0  0  0  0  0  0  0
   -0.4918    0.7173    1.0076 H   0  0  0  0  0  0  0  0  0  0  0  0
   -2.2121    0.2482    1.0575 H   0  0  0  0  0  0  0  0  0  0  0  0
   -1.8496    2.5071    0.0490 H   0  0  0  0  0  0  0  0  0  0  0  0
   -1.1048    3.0607    1.5539 H   0  0  0  0  0  0  0  0  0  0  0  0
   -2.8167    2.6239    1.5185 H   0  0  0  0  0  0  0  0  0  0  0  0
  -10.5665    2.9271    3.0437 H   0  0  0  0  0  0  0  0  0  0  0  0
   -7.3976   -0.6336    1.7916 H   0  0  0  0  0  0  0  0  0  0  0  0
  -12.4321    1.2910    2.1479 H   0  0  0  0  0  0  0  0  0  0  0  0
  -10.4408    0.8351   -3.7999 H   0  0  0  0  0  0  0  0  0  0  0  0
  -12.1426    0.5966   -5.5650 H   0  0  0  0  0  0  0  0  0  0  0  0
  -14.0466    1.2738   -6.7783 H   0  0  0  0  0  0  0  0  0  0  0  0
  -13.8716   -0.5050   -6.7217 H   0  0  0  0  0  0  0  0  0  0  0  0
  -15.4769    0.2283   -6.9539 H   0  0  0  0  0  0  0  0  0  0  0  0
  -15.2445    0.3949   -2.6247 H   0  0  0  0  0  0  0  0  0  0  0  0
  1  2  2  0  0  0  0
  2  3  1  0  0  0  0
  3  4  2  0  0  0  0
  3  5  1  0  0  0  0
  5  6  2  0  0  0  0
  6  7  1  0  0  0  0
  7  8  2  0  0  0  0
  8  9  1  0  0  0  0
  9 10  2  0  0  0  0
 10 11  1  0  0  0  0
 10 12  1  0  0  0  0
 12 13  2  0  0  0  0
 13 14  1  0  0  0  0
 14 15  2  0  0  0  0
 15 16  1  0  0  0  0
 16 17  2  0  0  0  0
 17 18  1  0  0  0  0
 18 19  3  0  0  0  0
 17 20  1  0  0  0  0
 20 21  3  0  0  0  0
  1 22  1  0  0  0  0
 22 23  2  0  0  0  0
 23 24  1  0  0  0  0
 23 25  1  0  0  0  0
 25 26  2  0  0  0  0
 26 27  1  0  0  0  0
 27 28  1  0  0  0  0
 27 29  2  0  0  0  0
 26 30  1  0  0  0  0
 30 31  2  0  0  0  0
 31 32  1  0  0  0  0
 32 33  2  0  0  0  0
 33 34  1  0  0  0  0
 34 35  2  0  0  0  0
 35 36  1  0  0  0  0
 36 37  1  0  0  0  0
 37 38  1  0  0  0  0
 36 39  2  0  0  0  0
 31 40  1  0  0  0  0
 40 41  1  0  0  0  0
 41 42  1  0  0  0  0
 42 43  1  0  0  0  0
 43 44  1  0  0  0  0
 44 45  1  0  0  0  0
 45 46  2  0  0  0  0
 46 47  1  0  0  0  0
 47 48  1  0  0  0  0
 45 49  1  0  0  0  0
 49 50  1  0  0  0  0
 50 51  1  0  0  0  0
 51 52  1  0  0  0  0
 52 53  1  0  0  0  0
 53 54  1  0  0  0  0
 54 55  2  0  0  0  0
 55 56  1  0  0  0  0
 56 57  2  0  0  0  0
 57 58  1  0  0  0  0
 58 59  1  0  0  0  0
 59 60  1  0  0  0  0
 58 61  2  0  0  0  0
 53 62  2  0  0  0  0
 62 63  1  0  0  0  0
 63 64  1  0  0  0  0
 64 65  1  0  0  0  0
 65 66  1  0  0  0  0
 66 67  1  0  0  0  0
 67 68  1  0  0  0  0
 68 69  1  0  0  0  0
 69 70  1  0  0  0  0
 70 71  1  0  0  0  0
 71 72  1  0  0  0  0
 69 73  1  0  0  0  0
 73 74  1  0  0  0  0
 66 75  1  0  0  0  0
 75 76  1  0  0  0  0
 62 77  1  0  0  0  0
 77 78  2  0  0  0  0
 78 79  1  0  0  0  0
 78 80  1  0  0  0  0
 80 81  2  0  0  0  0
 81 82  1  0  0  0  0
 82 83  1  0  0  0  0
 82 84  2  0  0  0  0
 81 85  1  0  0  0  0
 85 86  2  0  0  0  0
 86 87  1  0  0  0  0
 87 88  2  0  0  0  0
 87 89  1  0  0  0  0
 89 90  2  0  0  0  0
 90 91  1  0  0  0  0
 91 92  2  0  0  0  0
 92 93  1  0  0  0  0
 93 94  1  0  0  0  0
 92 95  1  0  0  0  0
 95 96  2  0  0  0  0
 96 97  1  0  0  0  0
 97 98  2  0  0  0  0
 98 99  1  0  0  0  0
 99100  3  0  0  0  0
 98101  1  0  0  0  0
101102  3  0  0  0  0
 16  2  1  0  0  0  0
 29 22  1  0  0  0  0
 72 30  1  0  0  0  0
 84 77  1  0  0  0  0
 97 86  1  0  0  0  0
 15  5  1  0  0  0  0
 39 32  1  0  0  0  0
 71 40  2  0  0  0  0
 96 89  1  0  0  0  0
 13  7  1  0  0  0  0
 70 42  2  0  0  0  0
 68 43  2  0  0  0  0
 48 44  2  0  0  0  0
 67 49  2  0  0  0  0
 65 50  2  0  0  0  0
 64 52  2  0  0  0  0
 61 54  1  0  0  0  0
  1103  1  0  0  0  0
  6104  1  0  0  0  0
  8105  1  0  0  0  0
  9106  1  0  0  0  0
 12107  1  0  0  0  0
 14108  1  0  0  0  0
 25109  1  0  0  0  0
 29110  1  0  0  0  0
 33111  1  0  0  0  0
 34112  1  0  0  0  0
 35113  1  0  0  0  0
 37114  1  0  0  0  0
 37115  1  0  0  0  0
 38116  1  0  0  0  0
 38117  1  0  0  0  0
 38118  1  0  0  0  0
 39119  1  0  0  0  0
 55120  1  0  0  0  0
 56121  1  0  0  0  0
 57122  1  0  0  0  0
 59123  1  0  0  0  0
 59124  1  0  0  0  0
 60125  1  0  0  0  0
 60126  1  0  0  0  0
 60127  1  0  0  0  0
 61128  1  0  0  0  0
 73129  1  0  0  0  0
 73130  1  0  0  0  0
 74131  1  0  0  0  0
 74132  1  0  0  0  0
 74133  1  0  0  0  0
 75134  1  0  0  0  0
 75135  1  0  0  0  0
 76136  1  0  0  0  0
 76137  1  0  0  0  0
 76138  1  0  0  0  0
 80139  1  0  0  0  0
 84140  1  0  0  0  0
 85141  1  0  0  0  0
 90142  1  0  0  0  0
 91143  1  0  0  0  0
 94144  1  0  0  0  0
 94145  1  0  0  0  0
 94146  1  0  0  0  0
 95147  1  0  0  0  0
M  END
