
  xtb     02052216183D
 energy: -317.834526632105 gnorm: 0.000462322010 xtb: 6.4.1 (unknown)
175193  0     0  0            999 V2000
    1.4994    9.1761   -6.6509 C   0  0  0  0  0  0  0  0  0  0  0  0
    2.3128   10.2344   -6.8954 C   0  0  0  0  0  0  0  0  0  0  0  0
    3.6862   10.3904   -6.3367 C   0  0  0  0  0  0  0  0  0  0  0  0
    4.2600    9.6412   -5.5793 O   0  0  0  0  0  0  0  0  0  0  0  0
    4.1421   11.7199   -6.7822 C   0  0  0  0  0  0  0  0  0  0  0  0
    5.3468   12.3225   -6.5619 C   0  0  0  0  0  0  0  0  0  0  0  0
    5.5762   13.6156   -7.0819 C   0  0  0  0  0  0  0  0  0  0  0  0
    6.8055   14.2799   -6.8941 C   0  0  0  0  0  0  0  0  0  0  0  0
    7.0132   15.5331   -7.3993 C   0  0  0  0  0  0  0  0  0  0  0  0
    5.9807   16.1562   -8.1138 C   0  0  0  0  0  0  0  0  0  0  0  0
    6.2039   17.3901   -8.6025 F   0  0  0  0  0  0  0  0  0  0  0  0
    4.7705   15.5572   -8.3258 C   0  0  0  0  0  0  0  0  0  0  0  0
    4.5393   14.2655   -7.8130 C   0  0  0  0  0  0  0  0  0  0  0  0
    3.2990   13.6192   -8.0188 C   0  0  0  0  0  0  0  0  0  0  0  0
    3.1025   12.3605   -7.5138 C   0  0  0  0  0  0  0  0  0  0  0  0
    1.9532   11.4644   -7.5791 C   0  0  0  0  0  0  0  0  0  0  0  0
    0.7697   11.7287   -8.2163 C   0  0  0  0  0  0  0  0  0  0  0  0
   -0.3279   10.8463   -8.3067 C   0  0  0  0  0  0  0  0  0  0  0  0
   -1.2637   10.1934   -8.4369 N   0  0  0  0  0  0  0  0  0  0  0  0
    0.4801   12.9410   -8.8778 C   0  0  0  0  0  0  0  0  0  0  0  0
    0.1782   13.9026   -9.4275 N   0  0  0  0  0  0  0  0  0  0  0  0
    1.8948    7.9061   -6.1135 C   0  0  0  0  0  0  0  0  0  0  0  0
    3.0638    7.2312   -6.4409 C   0  0  0  0  0  0  0  0  0  0  0  0
    3.9068    7.7476   -7.3426 F   0  0  0  0  0  0  0  0  0  0  0  0
    3.3694    5.9597   -5.9455 C   0  0  0  0  0  0  0  0  0  0  0  0
    4.5593    5.4480   -6.2966 F   0  0  0  0  0  0  0  0  0  0  0  0
    2.5080    5.2561   -5.1084 C   0  0  0  0  0  0  0  0  0  0  0  0
    1.3425    5.9726   -4.6881 C   0  0  0  0  0  0  0  0  0  0  0  0
    0.5541    5.4235   -3.7612 N   0  0  0  0  0  0  0  0  0  0  0  0
   -0.5453    6.0242   -3.3744 C   0  0  0  0  0  0  0  0  0  0  0  0
   -1.3437    5.3102   -2.3270 C   0  0  0  0  0  0  0  0  0  0  0  0
   -2.1634    4.1892   -2.9707 C   0  0  0  0  0  0  0  0  0  0  0  0
   -0.9259    7.2499   -3.9843 C   0  0  0  0  0  0  0  0  0  0  0  0
   -0.1395    7.8310   -4.8589 N   0  0  0  0  0  0  0  0  0  0  0  0
    1.0094    7.2392   -5.2193 C   0  0  0  0  0  0  0  0  0  0  0  0
   -2.1915    7.9776   -3.6501 C   0  0  0  0  0  0  0  0  0  0  0  0
   -1.9670    8.9161   -2.4615 C   0  0  0  0  0  0  0  0  0  0  0  0
    2.6936    3.9185   -4.6414 C   0  0  0  0  0  0  0  0  0  0  0  0
    3.4492    2.8785   -5.1756 C   0  0  0  0  0  0  0  0  0  0  0  0
    4.0783    2.8317   -6.4946 C   0  0  0  0  0  0  0  0  0  0  0  0
    3.3862    3.2588   -7.6258 C   0  0  0  0  0  0  0  0  0  0  0  0
    3.9662    3.1343   -8.8725 C   0  0  0  0  0  0  0  0  0  0  0  0
    5.2279    2.5795   -9.0044 C   0  0  0  0  0  0  0  0  0  0  0  0
    5.9280    2.1419   -7.8879 C   0  0  0  0  0  0  0  0  0  0  0  0
    7.2707    1.4843   -8.0208 C   0  0  0  0  0  0  0  0  0  0  0  0
    7.1153   -0.0380   -8.0182 C   0  0  0  0  0  0  0  0  0  0  0  0
    5.3411    2.2694   -6.6385 C   0  0  0  0  0  0  0  0  0  0  0  0
    3.4020    1.7396   -4.3539 C   0  0  0  0  0  0  0  0  0  0  0  0
    4.0525    0.1234   -4.5440 S   0  0  0  0  0  0  0  0  0  0  0  0
    3.2090   -0.3545   -3.1094 C   0  0  0  0  0  0  0  0  0  0  0  0
    2.9311   -1.5143   -2.3714 C   0  0  0  0  0  0  0  0  0  0  0  0
    3.2533   -2.8669   -2.6197 C   0  0  0  0  0  0  0  0  0  0  0  0
    2.6347   -3.8842   -1.8198 C   0  0  0  0  0  0  0  0  0  0  0  0
    2.9647   -5.1053   -2.2100 N   0  0  0  0  0  0  0  0  0  0  0  0
    3.9753   -4.9855   -3.4694 S   0  0  0  0  0  0  0  0  0  0  0  0
    4.0248   -3.3703   -3.5701 N   0  0  0  0  0  0  0  0  0  0  0  0
    1.8152   -3.4977   -0.7367 C   0  0  0  0  0  0  0  0  0  0  0  0
    1.1287   -4.2594    0.2216 C   0  0  0  0  0  0  0  0  0  0  0  0
    0.7624   -5.9131    0.5733 S   0  0  0  0  0  0  0  0  0  0  0  0
   -0.1833   -5.3952    1.9519 C   0  0  0  0  0  0  0  0  0  0  0  0
   -0.9467   -6.0887    2.9166 C   0  0  0  0  0  0  0  0  0  0  0  0
   -1.0458   -7.5436    2.9927 C   0  0  0  0  0  0  0  0  0  0  0  0
   -1.0155   -8.3043    1.8253 C   0  0  0  0  0  0  0  0  0  0  0  0
   -1.0735   -9.6829    1.8932 C   0  0  0  0  0  0  0  0  0  0  0  0
   -1.1909  -10.3183    3.1177 C   0  0  0  0  0  0  0  0  0  0  0  0
   -1.2342   -9.5772    4.2927 C   0  0  0  0  0  0  0  0  0  0  0  0
   -1.4509  -10.2488    5.6166 C   0  0  0  0  0  0  0  0  0  0  0  0
   -2.9501  -10.3380    5.9110 C   0  0  0  0  0  0  0  0  0  0  0  0
   -1.1374   -8.1966    4.2200 C   0  0  0  0  0  0  0  0  0  0  0  0
   -1.5075   -5.2062    3.8245 C   0  0  0  0  0  0  0  0  0  0  0  0
   -1.0733   -3.5365    3.5154 S   0  0  0  0  0  0  0  0  0  0  0  0
   -0.1700   -4.0088    2.1263 C   0  0  0  0  0  0  0  0  0  0  0  0
    0.5650   -3.3590    1.1283 C   0  0  0  0  0  0  0  0  0  0  0  0
    0.8533   -2.0724    0.7594 N   0  0  0  0  0  0  0  0  0  0  0  0
    1.6009   -2.1285   -0.4076 C   0  0  0  0  0  0  0  0  0  0  0  0
    2.0697   -1.1309   -1.3015 C   0  0  0  0  0  0  0  0  0  0  0  0
    1.8281    0.2278   -1.4070 N   0  0  0  0  0  0  0  0  0  0  0  0
    2.4949    0.6875   -2.5092 C   0  0  0  0  0  0  0  0  0  0  0  0
    2.6009    1.8878   -3.2197 C   0  0  0  0  0  0  0  0  0  0  0  0
    1.8495    3.4471   -3.1741 S   0  0  0  0  0  0  0  0  0  0  0  0
    0.8066    1.0524   -0.8043 C   0  0  0  0  0  0  0  0  0  0  0  0
   -0.5951    0.5616   -1.1576 C   0  0  0  0  0  0  0  0  0  0  0  0
    0.7378   -1.0101    1.7353 C   0  0  0  0  0  0  0  0  0  0  0  0
    2.1065   -0.4751    2.1472 C   0  0  0  0  0  0  0  0  0  0  0  0
   -2.4183   -5.4805    4.9053 C   0  0  0  0  0  0  0  0  0  0  0  0
   -2.2899   -4.8720    6.1443 C   0  0  0  0  0  0  0  0  0  0  0  0
   -1.2886   -4.0011    6.3660 F   0  0  0  0  0  0  0  0  0  0  0  0
   -3.1332   -5.1684    7.2148 C   0  0  0  0  0  0  0  0  0  0  0  0
   -2.9059   -4.5320    8.3773 F   0  0  0  0  0  0  0  0  0  0  0  0
   -4.1984   -6.0500    7.0993 C   0  0  0  0  0  0  0  0  0  0  0  0
   -4.4338   -6.5895    5.7974 C   0  0  0  0  0  0  0  0  0  0  0  0
   -5.5321   -7.3348    5.5976 N   0  0  0  0  0  0  0  0  0  0  0  0
   -5.7728   -7.8234    4.4057 C   0  0  0  0  0  0  0  0  0  0  0  0
   -7.0846   -8.5285    4.2478 C   0  0  0  0  0  0  0  0  0  0  0  0
   -8.1739   -7.5129    3.8890 C   0  0  0  0  0  0  0  0  0  0  0  0
   -4.8629   -7.5944    3.3338 C   0  0  0  0  0  0  0  0  0  0  0  0
   -3.7915   -6.8624    3.5141 N   0  0  0  0  0  0  0  0  0  0  0  0
   -3.5446   -6.3398    4.7263 C   0  0  0  0  0  0  0  0  0  0  0  0
   -5.0577   -8.1620    1.9622 C   0  0  0  0  0  0  0  0  0  0  0  0
   -4.6431   -9.6344    1.9156 C   0  0  0  0  0  0  0  0  0  0  0  0
   -5.1172   -6.3698    8.1475 C   0  0  0  0  0  0  0  0  0  0  0  0
   -4.9615   -6.3838    9.4951 C   0  0  0  0  0  0  0  0  0  0  0  0
   -6.1870   -6.3772   10.3477 C   0  0  0  0  0  0  0  0  0  0  0  0
   -7.3185   -6.5798    9.9819 O   0  0  0  0  0  0  0  0  0  0  0  0
   -5.7094   -6.0230   11.7025 C   0  0  0  0  0  0  0  0  0  0  0  0
   -4.3021   -5.9683   11.7036 C   0  0  0  0  0  0  0  0  0  0  0  0
   -3.6188   -5.6113   12.8544 C   0  0  0  0  0  0  0  0  0  0  0  0
   -4.3513   -5.3224   13.9960 C   0  0  0  0  0  0  0  0  0  0  0  0
   -5.7365   -5.3927   13.9977 C   0  0  0  0  0  0  0  0  0  0  0  0
   -6.6746   -4.9977   15.5888 Br  0  0  0  0  0  0  0  0  0  0  0  0
   -6.4460   -5.7443   12.8434 C   0  0  0  0  0  0  0  0  0  0  0  0
   -8.1549   -5.8235   12.8391 Cl  0  0  0  0  0  0  0  0  0  0  0  0
   -3.8137   -6.3332   10.3756 C   0  0  0  0  0  0  0  0  0  0  0  0
   -2.5442   -6.7647   10.0987 C   0  0  0  0  0  0  0  0  0  0  0  0
   -2.1455   -7.2942    8.8565 C   0  0  0  0  0  0  0  0  0  0  0  0
   -1.7774   -7.7399    7.8647 N   0  0  0  0  0  0  0  0  0  0  0  0
   -1.4992   -6.8029   11.0463 C   0  0  0  0  0  0  0  0  0  0  0  0
   -0.6146   -6.8575   11.7747 N   0  0  0  0  0  0  0  0  0  0  0  0
    0.4338    9.2672   -6.8159 H   0  0  0  0  0  0  0  0  0  0  0  0
    6.1181   11.8143   -6.0028 H   0  0  0  0  0  0  0  0  0  0  0  0
    7.5856   13.7794   -6.3405 H   0  0  0  0  0  0  0  0  0  0  0  0
    7.9471   16.0553   -7.2643 H   0  0  0  0  0  0  0  0  0  0  0  0
    3.9984   16.0661   -8.8815 H   0  0  0  0  0  0  0  0  0  0  0  0
    2.5340   14.1395   -8.5722 H   0  0  0  0  0  0  0  0  0  0  0  0
   -2.0009    5.9996   -1.7999 H   0  0  0  0  0  0  0  0  0  0  0  0
   -0.6444    4.8695   -1.6147 H   0  0  0  0  0  0  0  0  0  0  0  0
   -1.4989    3.4889   -3.4700 H   0  0  0  0  0  0  0  0  0  0  0  0
   -2.7310    3.6560   -2.2123 H   0  0  0  0  0  0  0  0  0  0  0  0
   -2.8581    4.5914   -3.7049 H   0  0  0  0  0  0  0  0  0  0  0  0
   -2.9911    7.2715   -3.4252 H   0  0  0  0  0  0  0  0  0  0  0  0
   -2.4770    8.5707   -4.5195 H   0  0  0  0  0  0  0  0  0  0  0  0
   -1.1898    9.6372   -2.7015 H   0  0  0  0  0  0  0  0  0  0  0  0
   -1.6597    8.3627   -1.5764 H   0  0  0  0  0  0  0  0  0  0  0  0
   -2.8833    9.4546   -2.2339 H   0  0  0  0  0  0  0  0  0  0  0  0
    2.3935    3.6750   -7.5234 H   0  0  0  0  0  0  0  0  0  0  0  0
    3.4296    3.4683   -9.7485 H   0  0  0  0  0  0  0  0  0  0  0  0
    5.6729    2.4862   -9.9845 H   0  0  0  0  0  0  0  0  0  0  0  0
    7.9107    1.7816   -7.1876 H   0  0  0  0  0  0  0  0  0  0  0  0
    7.7497    1.7991   -8.9497 H   0  0  0  0  0  0  0  0  0  0  0  0
    6.6414   -0.3692   -7.0969 H   0  0  0  0  0  0  0  0  0  0  0  0
    8.0865   -0.5197   -8.1036 H   0  0  0  0  0  0  0  0  0  0  0  0
    6.4953   -0.3557   -8.8536 H   0  0  0  0  0  0  0  0  0  0  0  0
    5.8812    1.9472   -5.7602 H   0  0  0  0  0  0  0  0  0  0  0  0
   -0.9641   -7.8176    0.8642 H   0  0  0  0  0  0  0  0  0  0  0  0
   -1.0391  -10.2653    0.9840 H   0  0  0  0  0  0  0  0  0  0  0  0
   -1.2505  -11.3965    3.1633 H   0  0  0  0  0  0  0  0  0  0  0  0
   -1.0245  -11.2537    5.6021 H   0  0  0  0  0  0  0  0  0  0  0  0
   -0.9722   -9.6748    6.4098 H   0  0  0  0  0  0  0  0  0  0  0  0
   -3.3788   -9.3405    5.9785 H   0  0  0  0  0  0  0  0  0  0  0  0
   -3.1215  -10.8476    6.8559 H   0  0  0  0  0  0  0  0  0  0  0  0
   -3.4646  -10.8831    5.1216 H   0  0  0  0  0  0  0  0  0  0  0  0
   -1.1220   -7.6288    5.1384 H   0  0  0  0  0  0  0  0  0  0  0  0
    0.9513    1.1145    0.2743 H   0  0  0  0  0  0  0  0  0  0  0  0
    0.9463    2.0580   -1.2085 H   0  0  0  0  0  0  0  0  0  0  0  0
   -0.7464   -0.4657   -0.8346 H   0  0  0  0  0  0  0  0  0  0  0  0
   -1.3401    1.1940   -0.6824 H   0  0  0  0  0  0  0  0  0  0  0  0
   -0.7404    0.6044   -2.2343 H   0  0  0  0  0  0  0  0  0  0  0  0
    0.2456   -1.4448    2.6088 H   0  0  0  0  0  0  0  0  0  0  0  0
    0.0886   -0.2142    1.3674 H   0  0  0  0  0  0  0  0  0  0  0  0
    2.6960   -1.2713    2.5960 H   0  0  0  0  0  0  0  0  0  0  0  0
    1.9879    0.3204    2.8779 H   0  0  0  0  0  0  0  0  0  0  0  0
    2.6552   -0.0890    1.2914 H   0  0  0  0  0  0  0  0  0  0  0  0
   -7.3363   -8.9943    5.2011 H   0  0  0  0  0  0  0  0  0  0  0  0
   -7.0296   -9.2966    3.4787 H   0  0  0  0  0  0  0  0  0  0  0  0
   -9.1316   -8.0159    3.7836 H   0  0  0  0  0  0  0  0  0  0  0  0
   -8.2580   -6.7648    4.6731 H   0  0  0  0  0  0  0  0  0  0  0  0
   -7.9421   -7.0072    2.9538 H   0  0  0  0  0  0  0  0  0  0  0  0
   -6.0995   -8.0593    1.6548 H   0  0  0  0  0  0  0  0  0  0  0  0
   -4.4272   -7.5950    1.2766 H   0  0  0  0  0  0  0  0  0  0  0  0
   -4.7635  -10.0195    0.9062 H   0  0  0  0  0  0  0  0  0  0  0  0
   -5.2453  -10.2386    2.5901 H   0  0  0  0  0  0  0  0  0  0  0  0
   -3.6006   -9.7336    2.2045 H   0  0  0  0  0  0  0  0  0  0  0  0
   -6.1169   -6.6069    7.7954 H   0  0  0  0  0  0  0  0  0  0  0  0
   -2.5440   -5.5404   12.8762 H   0  0  0  0  0  0  0  0  0  0  0  0
   -3.8413   -5.0366   14.9031 H   0  0  0  0  0  0  0  0  0  0  0  0
  1  2  2  0  0  0  0
  2  3  1  0  0  0  0
  3  4  2  0  0  0  0
  3  5  1  0  0  0  0
  5  6  2  0  0  0  0
  6  7  1  0  0  0  0
  7  8  2  0  0  0  0
  8  9  1  0  0  0  0
  9 10  2  0  0  0  0
 10 11  1  0  0  0  0
 10 12  1  0  0  0  0
 12 13  2  0  0  0  0
 13 14  1  0  0  0  0
 14 15  2  0  0  0  0
 15 16  1  0  0  0  0
 16 17  2  0  0  0  0
 17 18  1  0  0  0  0
 18 19  3  0  0  0  0
 17 20  1  0  0  0  0
 20 21  3  0  0  0  0
  1 22  1  0  0  0  0
 22 23  2  0  0  0  0
 23 24  1  0  0  0  0
 23 25  1  0  0  0  0
 25 26  1  0  0  0  0
 25 27  2  0  0  0  0
 27 28  1  0  0  0  0
 28 29  2  0  0  0  0
 29 30  1  0  0  0  0
 30 31  1  0  0  0  0
 31 32  1  0  0  0  0
 30 33  2  0  0  0  0
 33 34  1  0  0  0  0
 34 35  2  0  0  0  0
 33 36  1  0  0  0  0
 36 37  1  0  0  0  0
 27 38  1  0  0  0  0
 38 39  2  0  0  0  0
 39 40  1  0  0  0  0
 40 41  2  0  0  0  0
 41 42  1  0  0  0  0
 42 43  2  0  0  0  0
 43 44  1  0  0  0  0
 44 45  1  0  0  0  0
 45 46  1  0  0  0  0
 44 47  2  0  0  0  0
 39 48  1  0  0  0  0
 48 49  1  0  0  0  0
 49 50  1  0  0  0  0
 50 51  1  0  0  0  0
 51 52  1  0  0  0  0
 52 53  1  0  0  0  0
 53 54  2  0  0  0  0
 54 55  1  0  0  0  0
 55 56  1  0  0  0  0
 53 57  1  0  0  0  0
 57 58  1  0  0  0  0
 58 59  1  0  0  0  0
 59 60  1  0  0  0  0
 60 61  1  0  0  0  0
 61 62  1  0  0  0  0
 62 63  2  0  0  0  0
 63 64  1  0  0  0  0
 64 65  2  0  0  0  0
 65 66  1  0  0  0  0
 66 67  1  0  0  0  0
 67 68  1  0  0  0  0
 66 69  2  0  0  0  0
 61 70  2  0  0  0  0
 70 71  1  0  0  0  0
 71 72  1  0  0  0  0
 72 73  1  0  0  0  0
 73 74  1  0  0  0  0
 74 75  1  0  0  0  0
 75 76  1  0  0  0  0
 76 77  1  0  0  0  0
 77 78  1  0  0  0  0
 78 79  1  0  0  0  0
 79 80  1  0  0  0  0
 77 81  1  0  0  0  0
 81 82  1  0  0  0  0
 74 83  1  0  0  0  0
 83 84  1  0  0  0  0
 70 85  1  0  0  0  0
 85 86  2  0  0  0  0
 86 87  1  0  0  0  0
 86 88  1  0  0  0  0
 88 89  1  0  0  0  0
 88 90  2  0  0  0  0
 90 91  1  0  0  0  0
 91 92  2  0  0  0  0
 92 93  1  0  0  0  0
 93 94  1  0  0  0  0
 94 95  1  0  0  0  0
 93 96  2  0  0  0  0
 96 97  1  0  0  0  0
 97 98  2  0  0  0  0
 96 99  1  0  0  0  0
 99100  1  0  0  0  0
 90101  1  0  0  0  0
101102  2  0  0  0  0
102103  1  0  0  0  0
103104  2  0  0  0  0
103105  1  0  0  0  0
105106  2  0  0  0  0
106107  1  0  0  0  0
107108  2  0  0  0  0
108109  1  0  0  0  0
109110  1  0  0  0  0
109111  2  0  0  0  0
111112  1  0  0  0  0
106113  1  0  0  0  0
113114  2  0  0  0  0
114115  1  0  0  0  0
115116  3  0  0  0  0
114117  1  0  0  0  0
117118  3  0  0  0  0
 16  2  1  0  0  0  0
 35 22  1  0  0  0  0
 80 38  1  0  0  0  0
 98 85  1  0  0  0  0
113102  1  0  0  0  0
 15  5  1  0  0  0  0
 35 28  1  0  0  0  0
 47 40  1  0  0  0  0
 79 48  2  0  0  0  0
 98 91  1  0  0  0  0
111105  1  0  0  0  0
 13  7  1  0  0  0  0
 78 50  2  0  0  0  0
 76 51  2  0  0  0  0
 56 52  2  0  0  0  0
 75 57  2  0  0  0  0
 73 58  2  0  0  0  0
 72 60  2  0  0  0  0
 69 62  1  0  0  0  0
  1119  1  0  0  0  0
  6120  1  0  0  0  0
  8121  1  0  0  0  0
  9122  1  0  0  0  0
 12123  1  0  0  0  0
 14124  1  0  0  0  0
 31125  1  0  0  0  0
 31126  1  0  0  0  0
 32127  1  0  0  0  0
 32128  1  0  0  0  0
 32129  1  0  0  0  0
 36130  1  0  0  0  0
 36131  1  0  0  0  0
 37132  1  0  0  0  0
 37133  1  0  0  0  0
 37134  1  0  0  0  0
 41135  1  0  0  0  0
 42136  1  0  0  0  0
 43137  1  0  0  0  0
 45138  1  0  0  0  0
 45139  1  0  0  0  0
 46140  1  0  0  0  0
 46141  1  0  0  0  0
 46142  1  0  0  0  0
 47143  1  0  0  0  0
 63144  1  0  0  0  0
 64145  1  0  0  0  0
 65146  1  0  0  0  0
 67147  1  0  0  0  0
 67148  1  0  0  0  0
 68149  1  0  0  0  0
 68150  1  0  0  0  0
 68151  1  0  0  0  0
 69152  1  0  0  0  0
 81153  1  0  0  0  0
 81154  1  0  0  0  0
 82155  1  0  0  0  0
 82156  1  0  0  0  0
 82157  1  0  0  0  0
 83158  1  0  0  0  0
 83159  1  0  0  0  0
 84160  1  0  0  0  0
 84161  1  0  0  0  0
 84162  1  0  0  0  0
 94163  1  0  0  0  0
 94164  1  0  0  0  0
 95165  1  0  0  0  0
 95166  1  0  0  0  0
 95167  1  0  0  0  0
 99168  1  0  0  0  0
 99169  1  0  0  0  0
100170  1  0  0  0  0
100171  1  0  0  0  0
100172  1  0  0  0  0
101173  1  0  0  0  0
107174  1  0  0  0  0
108175  1  0  0  0  0
M  END
