198

C         -5.89000      -11.72840       -1.35280
C         -4.97830      -12.53550       -0.74920
C         -3.67010      -12.05810       -0.23110
O         -3.27370      -10.91640       -0.13180
C         -2.88510      -13.27990        0.03520
C         -1.60110      -13.38170        0.48710
C         -1.02880      -14.66210        0.65510
C          0.29300      -14.82450        1.11790
C          0.84040      -16.06870        1.26320
C          0.06410      -17.19170        0.94660
F          0.62080      -18.40810        1.09530
C         -1.22300      -17.09070        0.49740
C         -1.80310      -15.81660        0.34070
C         -3.13190      -15.67970       -0.12410
C         -3.66840      -14.42810       -0.27130
C         -4.98380      -13.98420       -0.72020
C         -6.05920      -14.79110       -0.98200
C         -7.34800      -14.32350       -1.31610
N         -8.42800      -14.02450       -1.56620
C         -6.02390      -16.19870       -0.91190
N         -6.04880      -17.34610       -0.87450
C         -5.87630      -10.29410       -1.28470
C         -5.68610       -9.59900       -0.08270
O         -5.70030      -10.34710        1.03400
C         -4.99860       -9.95080        2.20930
C         -4.69240      -11.21400        3.00000
C         -5.60410       -8.19050       -0.10070
O         -5.53600       -7.49710        1.09380
C         -6.82350       -7.16970        1.61790
C         -6.63590       -6.44190        2.93730
C         -5.57700       -7.45710       -1.29270
C         -5.88130       -8.15190       -2.50880
C         -6.07790       -9.56030       -2.48050
N         -6.38250      -10.23560       -3.60540
C         -6.51020       -9.55510       -4.71410
C         -6.31460       -8.16650       -4.74690
N         -6.00530       -7.49000       -3.66920
C         -5.22700       -6.06950       -1.27690
C         -5.09330       -5.21250       -2.35250
C         -4.58810       -3.97140       -1.98130
S         -4.14570       -2.54480       -2.88200
C         -3.59830       -1.79360       -1.41200
C         -2.95960       -0.59540       -1.09640
C         -2.46670        0.62740       -1.82320
C         -3.69370        1.35890       -2.34390
C         -4.32640        0.87990       -3.48500
C         -5.46920        1.49080       -3.96200
C         -6.01140        2.59390       -3.31410
C         -7.27730        3.23090       -3.81050
C         -8.49690        2.55980       -3.17530
C         -5.38150        3.06070       -2.16910
C         -4.23800        2.45070       -1.68450
C         -1.48120        0.33580       -2.93540
C         -1.25990        1.28170       -3.92900
C         -0.33820        1.04450       -4.93000
C          0.38770       -0.13930       -4.96590
C          1.34500       -0.41510       -6.08920
C          0.60780       -1.03920       -7.27580
C          0.16980       -1.07640       -3.96580
C         -0.74670       -0.84080       -2.95730
C         -1.76550        1.36360       -0.69410
C         -1.96350        0.70200        0.54060
C         -2.69290       -0.49520        0.25730
S         -3.20870       -1.86830        1.17850
C         -3.78290       -2.60900       -0.28350
C         -4.33680       -3.85010       -0.60880
S         -4.73690       -5.29920        0.23030
C         -1.44900        1.20390        1.73320
C         -0.69110        2.34910        1.65740
C          0.00980        3.09010        2.78610
C          0.84730        2.11240        3.58410
C          2.16690        1.85150        3.24320
C          2.90830        0.93130        3.96140
C          2.35150        0.24330        5.03070
C          3.14590       -0.78430        5.78410
C          2.96630       -2.16600        5.15210
C          1.02470        0.49370        5.35620
C          0.28050        1.41430        4.64360
C         -0.94830        3.86350        3.67620
C         -0.46890        4.43200        4.85070
C         -1.30180        5.17580        5.66310
C         -2.63310        5.38070        5.32220
C         -3.55050        6.14490        6.23270
C         -4.20800        5.20090        7.24150
C         -3.10410        4.82000        4.14360
C         -2.27350        4.07460        3.32580
C          0.81300        4.10230        2.00680
C          0.50650        4.01720        0.65890
C         -0.41960        2.95810        0.41000
C         -0.97620        2.48650       -0.77530
S          1.41010        5.12360       -0.29070
C          2.22440        5.70480        1.14740
C          1.77270        5.06920        2.29190
C          3.27360        6.65650        1.03880
S          3.90580        7.07620       -0.54510
C          5.10220        8.08060        0.18620
C          6.19010        8.88470       -0.13980
C          6.70270        9.37140        1.09660
N          5.96410        8.86930        2.14030
C          6.11930        9.20770        3.53110
C          5.32100       10.45720        3.89790
C          4.98030        8.08890        1.59530
C          3.94620        7.28210        2.07220
C          7.81260       10.17390        0.93980
C          8.18380       10.30660       -0.40610
S          7.10630        9.42250       -1.49200
C          9.30940       11.04820       -0.77440
C          9.88710       11.25610       -2.00600
C          9.40450       10.71240       -3.27800
O          8.40230       10.04580       -3.47150
C         10.38010       11.13130       -4.29990
C         10.39180       10.85430       -5.63540
C         11.44800       11.35200       -6.43150
C         11.51490       11.09300       -7.81530
C         12.54540       11.57590       -8.57350
C         13.54300       12.33880       -7.95280
F         14.55060       12.80500       -8.71520
C         13.52550       12.62030       -6.61500
C         12.47180       12.13080       -5.81910
C         12.42860       12.40410       -4.43110
C         11.39610       11.91120       -3.67960
C         11.09300       12.01540       -2.25250
C         11.83940       12.72280       -1.34120
C         11.56380       12.84810        0.03480
N         11.41520       13.00200        1.16450
C         13.00550       13.44510       -1.66570
N         13.96230       14.05130       -1.85660
H         -6.62710      -12.15300       -2.02250
H         -1.02750      -12.49480        0.71270
H          0.87140      -13.94390        1.35430
H          1.85080      -16.21040        1.61270
H         -1.79170      -17.97740        0.26450
H         -3.68990      -16.57150       -0.36050
H         -4.07670       -9.43230        1.93240
H         -5.62000       -9.28350        2.81530
H         -4.02350      -11.86120        2.43920
H         -5.61210      -11.75700        3.20250
H         -4.21950      -10.94830        3.94110
H         -7.36020       -6.53200        0.90180
H         -7.40880       -8.08910        1.75850
H         -6.09520       -7.06790        3.64200
H         -6.06540       -5.53180        2.77890
H         -7.60670       -6.19100        3.35490
H         -6.77130      -10.11640       -5.60070
H         -6.41200       -7.59670       -5.66090
H         -5.34030       -5.50300       -3.35500
H         -3.91470        0.02720       -4.00530
H         -5.94590        1.10670       -4.85240
H         -7.28040        4.29380       -3.56050
H         -7.33900        3.13460       -4.89630
H         -9.41500        3.01890       -3.53450
H         -8.51710        1.50090       -3.42310
H         -8.46010        2.65630       -2.09240
H         -5.78810        3.91580       -1.64770
H         -3.76740        2.83320       -0.79070
H         -1.82220        2.20450       -3.92520
H         -0.17930        1.79070       -5.69550
H          2.12740       -1.09750       -5.75150
H          1.81760        0.51590       -6.40910
H         -0.17200       -0.36920       -7.63120
H          0.14310       -1.97740       -6.98090
H          1.29770       -1.23440       -8.09350
H          0.72630       -2.00290       -3.97200
H         -0.88950       -1.58160       -2.18410
H         -1.62780        0.69790        2.66950
H          2.62170        2.37240        2.41320
H          3.93750        0.74740        3.68680
H          4.20460       -0.51730        5.77080
H          2.81500       -0.81880        6.82420
H          3.30170       -2.15450        4.11750
H          1.91800       -2.45560        5.16760
H          3.54150       -2.91150        5.69640
H          0.56920       -0.03550        6.18130
H         -0.74670        1.60280        4.92140
H          0.56230        4.27800        5.13440
H         -0.91290        5.60650        6.57510
H         -2.98650        6.90970        6.77050
H         -4.32620        6.64120        5.64600
H         -4.87000        5.75270        7.90470
H         -4.78870        4.44020        6.72450
H         -3.45040        4.70250        7.84240
H         -4.13560        4.96960        3.85740
H         -2.66440        3.65290        2.41160
H         -0.77550        2.97690       -1.71530
H          2.15790        5.28210        3.27170
H          7.18250        9.37090        3.72560
H          5.78320        8.35640        4.12900
H          5.65690       11.30540        3.30640
H          4.26230       10.29850        3.70570
H          5.45530       10.69000        4.95040
H          3.68770        7.14950        3.10610
H          8.36270       10.65180        1.73070
H          9.80600       11.50720        0.07190
H          9.60690       10.26020       -6.07890
H         10.73410       10.50210       -8.27030
H         12.61190       11.38610       -9.63310
H         14.31100       13.21160       -6.17080
H         13.22030       12.99550       -4.00060
