
  xtb     02052213383D
 energy: -385.399949553251 gnorm: 0.000512008992 xtb: 6.4.1 (unknown)
231254  0     0  0            999 V2000
   -8.3632   -2.2801   -0.3183 C   0  0  0  0  0  0  0  0  0  0  0  0
   -7.1079   -2.7529   -0.5651 C   0  0  0  0  0  0  0  0  0  0  0  0
   -6.9147   -3.8643   -1.5322 C   0  0  0  0  0  0  0  0  0  0  0  0
   -7.7495   -4.3460   -2.2641 O   0  0  0  0  0  0  0  0  0  0  0  0
   -5.5026   -4.2744   -1.3853 C   0  0  0  0  0  0  0  0  0  0  0  0
   -4.8273   -5.2738   -2.0238 C   0  0  0  0  0  0  0  0  0  0  0  0
   -3.4387   -5.4203   -1.8037 C   0  0  0  0  0  0  0  0  0  0  0  0
   -2.6892   -6.4213   -2.4546 C   0  0  0  0  0  0  0  0  0  0  0  0
   -1.3349   -6.5095   -2.2868 C   0  0  0  0  0  0  0  0  0  0  0  0
   -0.6907   -5.5760   -1.4638 C   0  0  0  0  0  0  0  0  0  0  0  0
    0.6472   -5.6554   -1.3448 F   0  0  0  0  0  0  0  0  0  0  0  0
   -1.3722   -4.5985   -0.7941 C   0  0  0  0  0  0  0  0  0  0  0  0
   -2.7717   -4.5086   -0.9352 C   0  0  0  0  0  0  0  0  0  0  0  0
   -3.5074   -3.5158   -0.2479 C   0  0  0  0  0  0  0  0  0  0  0  0
   -4.8558   -3.4028   -0.4638 C   0  0  0  0  0  0  0  0  0  0  0  0
   -5.8247   -2.4204    0.0149 C   0  0  0  0  0  0  0  0  0  0  0  0
   -5.4816   -1.2923    0.7214 C   0  0  0  0  0  0  0  0  0  0  0  0
   -6.2765   -0.1425    0.8945 C   0  0  0  0  0  0  0  0  0  0  0  0
   -6.7833    0.8794    1.0367 N   0  0  0  0  0  0  0  0  0  0  0  0
   -4.2559   -1.0919    1.3830 C   0  0  0  0  0  0  0  0  0  0  0  0
   -3.3286   -0.8612    2.0237 N   0  0  0  0  0  0  0  0  0  0  0  0
   -8.7548   -1.5016    0.8104 C   0  0  0  0  0  0  0  0  0  0  0  0
   -9.6930   -0.4754    0.7398 C   0  0  0  0  0  0  0  0  0  0  0  0
  -10.3655   -0.2899   -0.4065 F   0  0  0  0  0  0  0  0  0  0  0  0
   -9.8239    0.4999    1.7267 C   0  0  0  0  0  0  0  0  0  0  0  0
  -10.5964    1.5506    1.4113 F   0  0  0  0  0  0  0  0  0  0  0  0
   -9.0727    0.4637    2.9076 C   0  0  0  0  0  0  0  0  0  0  0  0
   -8.3945   -0.7872    3.1374 C   0  0  0  0  0  0  0  0  0  0  0  0
   -7.8434   -1.0055    4.3338 N   0  0  0  0  0  0  0  0  0  0  0  0
   -7.0902   -2.0646    4.5411 C   0  0  0  0  0  0  0  0  0  0  0  0
   -6.4972   -2.2048    5.9091 C   0  0  0  0  0  0  0  0  0  0  0  0
   -5.1370   -1.5049    5.9655 C   0  0  0  0  0  0  0  0  0  0  0  0
   -6.8381   -2.9682    3.4807 C   0  0  0  0  0  0  0  0  0  0  0  0
   -7.3823   -2.7735    2.3019 N   0  0  0  0  0  0  0  0  0  0  0  0
   -8.1699   -1.7109    2.0941 C   0  0  0  0  0  0  0  0  0  0  0  0
   -5.9861   -4.1944    3.6125 C   0  0  0  0  0  0  0  0  0  0  0  0
   -6.8392   -5.3921    4.0367 C   0  0  0  0  0  0  0  0  0  0  0  0
   -8.6413    1.5811    3.6749 C   0  0  0  0  0  0  0  0  0  0  0  0
   -8.9493    2.9495    3.5767 C   0  0  0  0  0  0  0  0  0  0  0  0
  -10.2610    3.4850    3.2438 C   0  0  0  0  0  0  0  0  0  0  0  0
  -10.4023    4.6760    2.5352 C   0  0  0  0  0  0  0  0  0  0  0  0
  -11.6628    5.1822    2.2869 C   0  0  0  0  0  0  0  0  0  0  0  0
  -12.7876    4.5166    2.7423 C   0  0  0  0  0  0  0  0  0  0  0  0
  -12.6669    3.3310    3.4574 C   0  0  0  0  0  0  0  0  0  0  0  0
  -13.8850    2.5739    3.9025 C   0  0  0  0  0  0  0  0  0  0  0  0
  -14.2939    1.5643    2.8281 C   0  0  0  0  0  0  0  0  0  0  0  0
  -11.4015    2.8268    3.7045 C   0  0  0  0  0  0  0  0  0  0  0  0
   -7.8425    3.7417    3.9368 C   0  0  0  0  0  0  0  0  0  0  0  0
   -7.4126    5.4363    3.7174 S   0  0  0  0  0  0  0  0  0  0  0  0
   -5.7570    5.0769    4.1173 C   0  0  0  0  0  0  0  0  0  0  0  0
   -4.4600    5.6198    3.9928 C   0  0  0  0  0  0  0  0  0  0  0  0
   -3.9182    6.8918    3.6821 C   0  0  0  0  0  0  0  0  0  0  0  0
   -2.4858    7.0477    3.5375 C   0  0  0  0  0  0  0  0  0  0  0  0
   -2.1441    8.2995    3.2869 N   0  0  0  0  0  0  0  0  0  0  0  0
   -3.4838    9.2067    3.2298 S   0  0  0  0  0  0  0  0  0  0  0  0
   -4.5623    8.0347    3.5214 N   0  0  0  0  0  0  0  0  0  0  0  0
   -1.6485    5.9030    3.5509 C   0  0  0  0  0  0  0  0  0  0  0  0
   -0.3404    5.6409    3.0914 C   0  0  0  0  0  0  0  0  0  0  0  0
    1.0360    6.4556    2.4033 S   0  0  0  0  0  0  0  0  0  0  0  0
    1.7581    4.9028    2.0122 C   0  0  0  0  0  0  0  0  0  0  0  0
    2.8947    4.5184    1.2613 C   0  0  0  0  0  0  0  0  0  0  0  0
    3.8870    5.5131    0.8362 C   0  0  0  0  0  0  0  0  0  0  0  0
    4.4067    6.3566    1.8152 C   0  0  0  0  0  0  0  0  0  0  0  0
    5.3331    7.3239    1.4773 C   0  0  0  0  0  0  0  0  0  0  0  0
    5.7543    7.4514    0.1672 C   0  0  0  0  0  0  0  0  0  0  0  0
    5.2415    6.6242   -0.8253 C   0  0  0  0  0  0  0  0  0  0  0  0
    5.7564    6.7451   -2.2312 C   0  0  0  0  0  0  0  0  0  0  0  0
    7.1895    6.2157   -2.3167 C   0  0  0  0  0  0  0  0  0  0  0  0
    4.2943    5.6696   -0.4840 C   0  0  0  0  0  0  0  0  0  0  0  0
    2.9453    3.1420    1.1066 C   0  0  0  0  0  0  0  0  0  0  0  0
    1.6194    2.3300    1.9309 S   0  0  0  0  0  0  0  0  0  0  0  0
    0.9730    3.8347    2.4397 C   0  0  0  0  0  0  0  0  0  0  0  0
   -0.1982    4.2479    3.0742 C   0  0  0  0  0  0  0  0  0  0  0  0
   -1.3202    3.6353    3.5527 N   0  0  0  0  0  0  0  0  0  0  0  0
   -2.2170    4.6381    3.8548 C   0  0  0  0  0  0  0  0  0  0  0  0
   -3.5659    4.5432    4.2450 C   0  0  0  0  0  0  0  0  0  0  0  0
   -4.2707    3.4312    4.6375 N   0  0  0  0  0  0  0  0  0  0  0  0
   -5.5957    3.7390    4.5085 C   0  0  0  0  0  0  0  0  0  0  0  0
   -6.7607    2.9927    4.4082 C   0  0  0  0  0  0  0  0  0  0  0  0
   -7.1076    1.3135    4.5096 S   0  0  0  0  0  0  0  0  0  0  0  0
   -3.8021    2.3546    5.4794 C   0  0  0  0  0  0  0  0  0  0  0  0
   -4.4608    2.4048    6.8563 C   0  0  0  0  0  0  0  0  0  0  0  0
   -1.5950    2.2512    3.2155 C   0  0  0  0  0  0  0  0  0  0  0  0
   -0.8374    1.2518    4.0836 C   0  0  0  0  0  0  0  0  0  0  0  0
    3.7785    2.2297    0.3874 C   0  0  0  0  0  0  0  0  0  0  0  0
    4.6724    2.3755   -0.6347 C   0  0  0  0  0  0  0  0  0  0  0  0
    5.0704    1.1471   -1.2204 C   0  0  0  0  0  0  0  0  0  0  0  0
    5.9045    0.9574   -2.3397 C   0  0  0  0  0  0  0  0  0  0  0  0
    6.3552    2.0558   -3.1692 C   0  0  0  0  0  0  0  0  0  0  0  0
    7.5624    2.2162   -3.7903 C   0  0  0  0  0  0  0  0  0  0  0  0
    7.5662    3.3302   -4.6466 C   0  0  0  0  0  0  0  0  0  0  0  0
    8.7283    4.0804   -5.6763 S   0  0  0  0  0  0  0  0  0  0  0  0
    7.5681    5.2886   -6.1814 C   0  0  0  0  0  0  0  0  0  0  0  0
    8.0527    6.6608   -7.3874 Si  0  0  0  0  0  4  0  0  0  0  0  0
    9.6103    6.1362   -8.3619 C   0  0  0  0  0  0  0  0  0  0  0  0
   10.9057    6.2289   -7.5617 C   0  0  0  0  0  0  0  0  0  0  0  0
    6.5746    6.9139   -8.5737 C   0  0  0  0  0  0  0  0  0  0  0  0
    6.7691    8.0810   -9.5351 C   0  0  0  0  0  0  0  0  0  0  0  0
    8.3907    8.2409   -6.3547 C   0  0  0  0  0  0  0  0  0  0  0  0
    7.1489    8.7826   -5.6522 C   0  0  0  0  0  0  0  0  0  0  0  0
    6.3588    5.1096   -5.5726 C   0  0  0  0  0  0  0  0  0  0  0  0
    6.3527    4.0075   -4.7030 C   0  0  0  0  0  0  0  0  0  0  0  0
    5.1913    3.2840   -3.6498 S   0  0  0  0  0  0  0  0  0  0  0  0
    6.1613   -0.3600   -2.7056 C   0  0  0  0  0  0  0  0  0  0  0  0
    5.5583   -1.4825   -2.0767 C   0  0  0  0  0  0  0  0  0  0  0  0
    4.6859   -1.2954   -0.9756 C   0  0  0  0  0  0  0  0  0  0  0  0
    4.0087   -2.3984   -0.3317 C   0  0  0  0  0  0  0  0  0  0  0  0
    2.3978   -2.1454    0.3394 S   0  0  0  0  0  0  0  0  0  0  0  0
    2.3147   -3.7918    0.8457 C   0  0  0  0  0  0  0  0  0  0  0  0
    1.3684   -4.5794    1.5174 C   0  0  0  0  0  0  0  0  0  0  0  0
    1.7737   -5.8762    1.6607 C   0  0  0  0  0  0  0  0  0  0  0  0
    0.8074   -7.3171    2.4040 Si  0  0  0  0  0  4  0  0  0  0  0  0
    1.8836   -8.2217    3.7037 C   0  0  0  0  0  0  0  0  0  0  0  0
    3.0726   -8.9715    3.1128 C   0  0  0  0  0  0  0  0  0  0  0  0
   -0.7464   -6.6418    3.2991 C   0  0  0  0  0  0  0  0  0  0  0  0
   -1.8993   -6.2727    2.3724 C   0  0  0  0  0  0  0  0  0  0  0  0
    0.3259   -8.4870    0.9662 C   0  0  0  0  0  0  0  0  0  0  0  0
   -0.3932   -9.7519    1.4254 C   0  0  0  0  0  0  0  0  0  0  0  0
    3.3607   -6.1325    0.9723 S   0  0  0  0  0  0  0  0  0  0  0  0
    3.4711   -4.4803    0.4907 C   0  0  0  0  0  0  0  0  0  0  0  0
    4.4320   -3.6934   -0.1615 C   0  0  0  0  0  0  0  0  0  0  0  0
    4.4894    0.0241   -0.5803 C   0  0  0  0  0  0  0  0  0  0  0  0
    3.4791    0.5333    0.7347 S   0  0  0  0  0  0  0  0  0  0  0  0
    5.8737   -2.6852   -2.7371 C   0  0  0  0  0  0  0  0  0  0  0  0
    6.7389   -2.5364   -3.7920 C   0  0  0  0  0  0  0  0  0  0  0  0
    7.1453   -0.8437   -4.0540 S   0  0  0  0  0  0  0  0  0  0  0  0
    7.2876   -3.4866   -4.6836 C   0  0  0  0  0  0  0  0  0  0  0  0
    7.4035   -4.8393   -4.5430 C   0  0  0  0  0  0  0  0  0  0  0  0
    7.2261   -5.6437   -3.3119 C   0  0  0  0  0  0  0  0  0  0  0  0
    6.7046   -5.3309   -2.2617 O   0  0  0  0  0  0  0  0  0  0  0  0
    7.8876   -6.9350   -3.5894 C   0  0  0  0  0  0  0  0  0  0  0  0
    8.0762   -7.9941   -2.7246 C   0  0  0  0  0  0  0  0  0  0  0  0
    8.7784   -9.0934   -3.1965 C   0  0  0  0  0  0  0  0  0  0  0  0
    9.3066   -9.1081   -4.4761 C   0  0  0  0  0  0  0  0  0  0  0  0
    9.1290   -8.0345   -5.3553 C   0  0  0  0  0  0  0  0  0  0  0  0
    9.6811   -7.9463   -6.5779 O   0  0  0  0  0  0  0  0  0  0  0  0
   10.3798   -9.0438   -7.1193 C   0  0  0  0  0  0  0  0  0  0  0  0
    8.3622   -6.9494   -4.9102 C   0  0  0  0  0  0  0  0  0  0  0  0
    7.9457   -5.7222   -5.5714 C   0  0  0  0  0  0  0  0  0  0  0  0
    7.8861   -5.4806   -6.9175 C   0  0  0  0  0  0  0  0  0  0  0  0
    7.3518   -4.3008   -7.4846 C   0  0  0  0  0  0  0  0  0  0  0  0
    6.9220   -3.3854   -8.0287 N   0  0  0  0  0  0  0  0  0  0  0  0
    8.2072   -6.3798   -7.9584 C   0  0  0  0  0  0  0  0  0  0  0  0
    8.3713   -7.0214   -8.8963 N   0  0  0  0  0  0  0  0  0  0  0  0
   -9.1290   -2.5507   -1.0374 H   0  0  0  0  0  0  0  0  0  0  0  0
   -5.3405   -5.9292   -2.7113 H   0  0  0  0  0  0  0  0  0  0  0  0
   -3.2038   -7.1168   -3.1002 H   0  0  0  0  0  0  0  0  0  0  0  0
   -0.7470   -7.2660   -2.7820 H   0  0  0  0  0  0  0  0  0  0  0  0
   -0.8401   -3.8863   -0.1832 H   0  0  0  0  0  0  0  0  0  0  0  0
   -2.9802   -2.8575    0.4249 H   0  0  0  0  0  0  0  0  0  0  0  0
   -6.3903   -3.2563    6.1744 H   0  0  0  0  0  0  0  0  0  0  0  0
   -7.1698   -1.7255    6.6210 H   0  0  0  0  0  0  0  0  0  0  0  0
   -4.4528   -1.9146    5.2255 H   0  0  0  0  0  0  0  0  0  0  0  0
   -5.2677   -0.4459    5.7634 H   0  0  0  0  0  0  0  0  0  0  0  0
   -4.6971   -1.6232    6.9525 H   0  0  0  0  0  0  0  0  0  0  0  0
   -5.5432   -4.4037    2.6368 H   0  0  0  0  0  0  0  0  0  0  0  0
   -5.1860   -4.0298    4.3337 H   0  0  0  0  0  0  0  0  0  0  0  0
   -7.3131   -5.2115    4.9992 H   0  0  0  0  0  0  0  0  0  0  0  0
   -6.2202   -6.2822    4.1155 H   0  0  0  0  0  0  0  0  0  0  0  0
   -7.6169   -5.5726    3.2989 H   0  0  0  0  0  0  0  0  0  0  0  0
   -9.5291    5.1851    2.1586 H   0  0  0  0  0  0  0  0  0  0  0  0
  -11.7696    6.1010    1.7297 H   0  0  0  0  0  0  0  0  0  0  0  0
  -13.7701    4.9191    2.5414 H   0  0  0  0  0  0  0  0  0  0  0  0
  -14.7100    3.2663    4.0806 H   0  0  0  0  0  0  0  0  0  0  0  0
  -13.6746    2.0446    4.8343 H   0  0  0  0  0  0  0  0  0  0  0  0
  -13.4826    0.8653    2.6391 H   0  0  0  0  0  0  0  0  0  0  0  0
  -15.1716    1.0043    3.1432 H   0  0  0  0  0  0  0  0  0  0  0  0
  -14.5221    2.0766    1.8966 H   0  0  0  0  0  0  0  0  0  0  0  0
  -11.2904    1.9114    4.2697 H   0  0  0  0  0  0  0  0  0  0  0  0
    4.0864    6.2449    2.8403 H   0  0  0  0  0  0  0  0  0  0  0  0
    5.7288    7.9783    2.2399 H   0  0  0  0  0  0  0  0  0  0  0  0
    6.4808    8.2073   -0.0936 H   0  0  0  0  0  0  0  0  0  0  0  0
    5.1177    6.1808   -2.9129 H   0  0  0  0  0  0  0  0  0  0  0  0
    5.7438    7.7936   -2.5385 H   0  0  0  0  0  0  0  0  0  0  0  0
    7.5754    6.3157   -3.3283 H   0  0  0  0  0  0  0  0  0  0  0  0
    7.2238    5.1649   -2.0361 H   0  0  0  0  0  0  0  0  0  0  0  0
    7.8410    6.7670   -1.6429 H   0  0  0  0  0  0  0  0  0  0  0  0
    3.8423    5.0646   -1.2569 H   0  0  0  0  0  0  0  0  0  0  0  0
   -4.0180    1.3924    5.0028 H   0  0  0  0  0  0  0  0  0  0  0  0
   -2.7266    2.4716    5.5977 H   0  0  0  0  0  0  0  0  0  0  0  0
   -5.5317    2.2372    6.7804 H   0  0  0  0  0  0  0  0  0  0  0  0
   -4.0344    1.6314    7.4893 H   0  0  0  0  0  0  0  0  0  0  0  0
   -4.2897    3.3726    7.3226 H   0  0  0  0  0  0  0  0  0  0  0  0
   -1.2857    2.0981    2.1756 H   0  0  0  0  0  0  0  0  0  0  0  0
   -2.6687    2.0805    3.2635 H   0  0  0  0  0  0  0  0  0  0  0  0
   -1.0560    1.3770    5.1407 H   0  0  0  0  0  0  0  0  0  0  0  0
    0.2342    1.3612    3.9427 H   0  0  0  0  0  0  0  0  0  0  0  0
   -1.1245    0.2487    3.7833 H   0  0  0  0  0  0  0  0  0  0  0  0
    5.0349    3.3276   -0.9694 H   0  0  0  0  0  0  0  0  0  0  0  0
    8.4123    1.5821   -3.6185 H   0  0  0  0  0  0  0  0  0  0  0  0
    9.7074    6.7549   -9.2547 H   0  0  0  0  0  0  0  0  0  0  0  0
    9.4861    5.1102   -8.7109 H   0  0  0  0  0  0  0  0  0  0  0  0
   11.0892    7.2519   -7.2435 H   0  0  0  0  0  0  0  0  0  0  0  0
   11.7522    5.9024   -8.1630 H   0  0  0  0  0  0  0  0  0  0  0  0
   10.8556    5.5989   -6.6773 H   0  0  0  0  0  0  0  0  0  0  0  0
    6.4042    6.0042   -9.1509 H   0  0  0  0  0  0  0  0  0  0  0  0
    5.6662    7.0827   -7.9952 H   0  0  0  0  0  0  0  0  0  0  0  0
    6.9082    9.0106   -8.9890 H   0  0  0  0  0  0  0  0  0  0  0  0
    7.6429    7.9221  -10.1616 H   0  0  0  0  0  0  0  0  0  0  0  0
    5.9033    8.1955  -10.1850 H   0  0  0  0  0  0  0  0  0  0  0  0
    9.1535    8.0292   -5.6033 H   0  0  0  0  0  0  0  0  0  0  0  0
    8.8008    9.0194   -6.9995 H   0  0  0  0  0  0  0  0  0  0  0  0
    6.7216    8.0286   -4.9961 H   0  0  0  0  0  0  0  0  0  0  0  0
    7.3949    9.6574   -5.0526 H   0  0  0  0  0  0  0  0  0  0  0  0
    6.3911    9.0701   -6.3764 H   0  0  0  0  0  0  0  0  0  0  0  0
    5.5097    5.7429   -5.7513 H   0  0  0  0  0  0  0  0  0  0  0  0
    0.4331   -4.2101    1.8949 H   0  0  0  0  0  0  0  0  0  0  0  0
    1.2616   -8.9278    4.2563 H   0  0  0  0  0  0  0  0  0  0  0  0
    2.2516   -7.5011    4.4360 H   0  0  0  0  0  0  0  0  0  0  0  0
    3.6478   -9.4611    3.8969 H   0  0  0  0  0  0  0  0  0  0  0  0
    2.7396   -9.7315    2.4109 H   0  0  0  0  0  0  0  0  0  0  0  0
    3.7312   -8.2884    2.5832 H   0  0  0  0  0  0  0  0  0  0  0  0
   -1.0977   -7.3909    4.0093 H   0  0  0  0  0  0  0  0  0  0  0  0
   -0.4741   -5.7671    3.8906 H   0  0  0  0  0  0  0  0  0  0  0  0
   -1.5893   -5.5294    1.6438 H   0  0  0  0  0  0  0  0  0  0  0  0
   -2.7374   -5.8659    2.9373 H   0  0  0  0  0  0  0  0  0  0  0  0
   -2.2518   -7.1444    1.8272 H   0  0  0  0  0  0  0  0  0  0  0  0
   -0.3127   -7.9532    0.2601 H   0  0  0  0  0  0  0  0  0  0  0  0
    1.2242   -8.7663    0.4137 H   0  0  0  0  0  0  0  0  0  0  0  0
    0.2340  -10.3286    2.1000 H   0  0  0  0  0  0  0  0  0  0  0  0
   -0.6476  -10.3831    0.5754 H   0  0  0  0  0  0  0  0  0  0  0  0
   -1.3125   -9.5033    1.9502 H   0  0  0  0  0  0  0  0  0  0  0  0
    5.3995   -4.0614   -0.4478 H   0  0  0  0  0  0  0  0  0  0  0  0
    5.4447   -3.6330   -2.4835 H   0  0  0  0  0  0  0  0  0  0  0  0
    7.7166   -3.0482   -5.5775 H   0  0  0  0  0  0  0  0  0  0  0  0
    7.6850   -7.9538   -1.7207 H   0  0  0  0  0  0  0  0  0  0  0  0
    8.9359   -9.9477   -2.5555 H   0  0  0  0  0  0  0  0  0  0  0  0
    9.8760   -9.9672   -4.7940 H   0  0  0  0  0  0  0  0  0  0  0  0
   10.6211   -8.7492   -8.1389 H   0  0  0  0  0  0  0  0  0  0  0  0
   11.3006   -9.2441   -6.5631 H   0  0  0  0  0  0  0  0  0  0  0  0
    9.7562   -9.9415   -7.1421 H   0  0  0  0  0  0  0  0  0  0  0  0
  1  2  2  0  0  0  0
  2  3  1  0  0  0  0
  3  4  2  0  0  0  0
  3  5  1  0  0  0  0
  5  6  2  0  0  0  0
  6  7  1  0  0  0  0
  7  8  2  0  0  0  0
  8  9  1  0  0  0  0
  9 10  2  0  0  0  0
 10 11  1  0  0  0  0
 10 12  1  0  0  0  0
 12 13  2  0  0  0  0
 13 14  1  0  0  0  0
 14 15  2  0  0  0  0
 15 16  1  0  0  0  0
 16 17  2  0  0  0  0
 17 18  1  0  0  0  0
 18 19  3  0  0  0  0
 17 20  1  0  0  0  0
 20 21  3  0  0  0  0
  1 22  1  0  0  0  0
 22 23  2  0  0  0  0
 23 24  1  0  0  0  0
 23 25  1  0  0  0  0
 25 26  1  0  0  0  0
 25 27  2  0  0  0  0
 27 28  1  0  0  0  0
 28 29  2  0  0  0  0
 29 30  1  0  0  0  0
 30 31  1  0  0  0  0
 31 32  1  0  0  0  0
 30 33  2  0  0  0  0
 33 34  1  0  0  0  0
 34 35  2  0  0  0  0
 33 36  1  0  0  0  0
 36 37  1  0  0  0  0
 27 38  1  0  0  0  0
 38 39  2  0  0  0  0
 39 40  1  0  0  0  0
 40 41  2  0  0  0  0
 41 42  1  0  0  0  0
 42 43  2  0  0  0  0
 43 44  1  0  0  0  0
 44 45  1  0  0  0  0
 45 46  1  0  0  0  0
 44 47  2  0  0  0  0
 39 48  1  0  0  0  0
 48 49  1  0  0  0  0
 49 50  1  0  0  0  0
 50 51  1  0  0  0  0
 51 52  1  0  0  0  0
 52 53  1  0  0  0  0
 53 54  2  0  0  0  0
 54 55  1  0  0  0  0
 55 56  1  0  0  0  0
 53 57  1  0  0  0  0
 57 58  1  0  0  0  0
 58 59  1  0  0  0  0
 59 60  1  0  0  0  0
 60 61  1  0  0  0  0
 61 62  1  0  0  0  0
 62 63  2  0  0  0  0
 63 64  1  0  0  0  0
 64 65  2  0  0  0  0
 65 66  1  0  0  0  0
 66 67  1  0  0  0  0
 67 68  1  0  0  0  0
 66 69  2  0  0  0  0
 61 70  2  0  0  0  0
 70 71  1  0  0  0  0
 71 72  1  0  0  0  0
 72 73  1  0  0  0  0
 73 74  1  0  0  0  0
 74 75  1  0  0  0  0
 75 76  1  0  0  0  0
 76 77  1  0  0  0  0
 77 78  1  0  0  0  0
 78 79  1  0  0  0  0
 79 80  1  0  0  0  0
 77 81  1  0  0  0  0
 81 82  1  0  0  0  0
 74 83  1  0  0  0  0
 83 84  1  0  0  0  0
 70 85  1  0  0  0  0
 85 86  2  0  0  0  0
 86 87  1  0  0  0  0
 87 88  2  0  0  0  0
 88 89  1  0  0  0  0
 89 90  2  0  0  0  0
 90 91  1  0  0  0  0
 91 92  1  0  0  0  0
 92 93  1  0  0  0  0
 93 94  1  0  0  0  0
 94 95  1  0  0  0  0
 95 96  1  0  0  0  0
 94 97  1  0  0  0  0
 97 98  1  0  0  0  0
 94 99  1  0  0  0  0
 99100  1  0  0  0  0
 93101  2  0  0  0  0
101102  1  0  0  0  0
102103  1  0  0  0  0
 88104  1  0  0  0  0
104105  2  0  0  0  0
105106  1  0  0  0  0
106107  1  0  0  0  0
107108  1  0  0  0  0
108109  1  0  0  0  0
109110  1  0  0  0  0
110111  2  0  0  0  0
111112  1  0  0  0  0
112113  1  0  0  0  0
113114  1  0  0  0  0
112115  1  0  0  0  0
115116  1  0  0  0  0
112117  1  0  0  0  0
117118  1  0  0  0  0
111119  1  0  0  0  0
119120  1  0  0  0  0
120121  1  0  0  0  0
106122  2  0  0  0  0
122123  1  0  0  0  0
105124  1  0  0  0  0
124125  2  0  0  0  0
125126  1  0  0  0  0
125127  1  0  0  0  0
127128  2  0  0  0  0
128129  1  0  0  0  0
129130  2  0  0  0  0
129131  1  0  0  0  0
131132  2  0  0  0  0
132133  1  0  0  0  0
133134  2  0  0  0  0
134135  1  0  0  0  0
135136  1  0  0  0  0
136137  1  0  0  0  0
135138  2  0  0  0  0
138139  1  0  0  0  0
139140  2  0  0  0  0
140141  1  0  0  0  0
141142  3  0  0  0  0
140143  1  0  0  0  0
143144  3  0  0  0  0
 16  2  1  0  0  0  0
 35 22  1  0  0  0  0
 80 38  1  0  0  0  0
123 85  1  0  0  0  0
139128  1  0  0  0  0
 15  5  1  0  0  0  0
 35 28  1  0  0  0  0
 47 40  1  0  0  0  0
 79 48  2  0  0  0  0
122 87  1  0  0  0  0
138131  1  0  0  0  0
 13  7  1  0  0  0  0
 78 50  2  0  0  0  0
103 89  1  0  0  0  0
126104  1  0  0  0  0
 76 51  2  0  0  0  0
102 91  2  0  0  0  0
121107  2  0  0  0  0
 56 52  2  0  0  0  0
 75 57  2  0  0  0  0
120109  2  0  0  0  0
 73 58  2  0  0  0  0
 72 60  2  0  0  0  0
 69 62  1  0  0  0  0
  1145  1  0  0  0  0
  6146  1  0  0  0  0
  8147  1  0  0  0  0
  9148  1  0  0  0  0
 12149  1  0  0  0  0
 14150  1  0  0  0  0
 31151  1  0  0  0  0
 31152  1  0  0  0  0
 32153  1  0  0  0  0
 32154  1  0  0  0  0
 32155  1  0  0  0  0
 36156  1  0  0  0  0
 36157  1  0  0  0  0
 37158  1  0  0  0  0
 37159  1  0  0  0  0
 37160  1  0  0  0  0
 41161  1  0  0  0  0
 42162  1  0  0  0  0
 43163  1  0  0  0  0
 45164  1  0  0  0  0
 45165  1  0  0  0  0
 46166  1  0  0  0  0
 46167  1  0  0  0  0
 46168  1  0  0  0  0
 47169  1  0  0  0  0
 63170  1  0  0  0  0
 64171  1  0  0  0  0
 65172  1  0  0  0  0
 67173  1  0  0  0  0
 67174  1  0  0  0  0
 68175  1  0  0  0  0
 68176  1  0  0  0  0
 68177  1  0  0  0  0
 69178  1  0  0  0  0
 81179  1  0  0  0  0
 81180  1  0  0  0  0
 82181  1  0  0  0  0
 82182  1  0  0  0  0
 82183  1  0  0  0  0
 83184  1  0  0  0  0
 83185  1  0  0  0  0
 84186  1  0  0  0  0
 84187  1  0  0  0  0
 84188  1  0  0  0  0
 86189  1  0  0  0  0
 90190  1  0  0  0  0
 95191  1  0  0  0  0
 95192  1  0  0  0  0
 96193  1  0  0  0  0
 96194  1  0  0  0  0
 96195  1  0  0  0  0
 97196  1  0  0  0  0
 97197  1  0  0  0  0
 98198  1  0  0  0  0
 98199  1  0  0  0  0
 98200  1  0  0  0  0
 99201  1  0  0  0  0
 99202  1  0  0  0  0
100203  1  0  0  0  0
100204  1  0  0  0  0
100205  1  0  0  0  0
101206  1  0  0  0  0
110207  1  0  0  0  0
113208  1  0  0  0  0
113209  1  0  0  0  0
114210  1  0  0  0  0
114211  1  0  0  0  0
114212  1  0  0  0  0
115213  1  0  0  0  0
115214  1  0  0  0  0
116215  1  0  0  0  0
116216  1  0  0  0  0
116217  1  0  0  0  0
117218  1  0  0  0  0
117219  1  0  0  0  0
118220  1  0  0  0  0
118221  1  0  0  0  0
118222  1  0  0  0  0
121223  1  0  0  0  0
124224  1  0  0  0  0
127225  1  0  0  0  0
132226  1  0  0  0  0
133227  1  0  0  0  0
134228  1  0  0  0  0
137229  1  0  0  0  0
137230  1  0  0  0  0
137231  1  0  0  0  0
M  END
