
  xtb     02052213243D
 energy: -314.427232425314 gnorm: 0.000879906287 xtb: 6.4.1 (unknown)
175193  0     0  0            999 V2000
    5.4510   -0.7652   -9.2647 C   0  0  0  0  0  0  0  0  0  0  0  0
    4.6396   -1.3721  -10.1676 C   0  0  0  0  0  0  0  0  0  0  0  0
    3.2507   -1.8216   -9.8628 C   0  0  0  0  0  0  0  0  0  0  0  0
    2.6491   -1.7314   -8.8148 O   0  0  0  0  0  0  0  0  0  0  0  0
    2.6892   -2.2590  -11.1541 C   0  0  0  0  0  0  0  0  0  0  0  0
    1.4424   -2.7514  -11.4124 C   0  0  0  0  0  0  0  0  0  0  0  0
    1.0905   -3.0771  -12.7407 C   0  0  0  0  0  0  0  0  0  0  0  0
   -0.1825   -3.5910  -13.0624 C   0  0  0  0  0  0  0  0  0  0  0  0
   -0.5147   -3.8920  -14.3538 C   0  0  0  0  0  0  0  0  0  0  0  0
    0.4345   -3.6838  -15.3641 C   0  0  0  0  0  0  0  0  0  0  0  0
    0.0894   -3.9872  -16.6284 F   0  0  0  0  0  0  0  0  0  0  0  0
    1.6827   -3.1890  -15.1072 C   0  0  0  0  0  0  0  0  0  0  0  0
    2.0421   -2.8726  -13.7823 C   0  0  0  0  0  0  0  0  0  0  0  0
    3.3249   -2.3569  -13.4852 C   0  0  0  0  0  0  0  0  0  0  0  0
    3.6474   -2.0583  -12.1874 C   0  0  0  0  0  0  0  0  0  0  0  0
    4.8712   -1.5343  -11.5913 C   0  0  0  0  0  0  0  0  0  0  0  0
    6.0583   -1.3335  -12.2433 C   0  0  0  0  0  0  0  0  0  0  0  0
    7.2590   -0.9295  -11.6210 C   0  0  0  0  0  0  0  0  0  0  0  0
    8.2774   -0.6363  -11.1801 N   0  0  0  0  0  0  0  0  0  0  0  0
    6.2458   -1.5403  -13.6262 C   0  0  0  0  0  0  0  0  0  0  0  0
    6.4563   -1.6880  -14.7449 N   0  0  0  0  0  0  0  0  0  0  0  0
    5.2529   -0.8772   -7.8459 C   0  0  0  0  0  0  0  0  0  0  0  0
    5.4505    0.1850   -6.9816 C   0  0  0  0  0  0  0  0  0  0  0  0
    5.8098    1.3794   -7.4759 F   0  0  0  0  0  0  0  0  0  0  0  0
    5.2249    0.0729   -5.6074 C   0  0  0  0  0  0  0  0  0  0  0  0
    5.4092    1.1670   -4.8453 F   0  0  0  0  0  0  0  0  0  0  0  0
    4.8361   -1.1182   -5.0158 C   0  0  0  0  0  0  0  0  0  0  0  0
    4.6552   -2.2429   -5.8750 C   0  0  0  0  0  0  0  0  0  0  0  0
    4.1738   -3.3924   -5.3790 N   0  0  0  0  0  0  0  0  0  0  0  0
    3.9699   -4.4127   -6.1735 C   0  0  0  0  0  0  0  0  0  0  0  0
    3.3432   -5.6195   -5.5443 C   0  0  0  0  0  0  0  0  0  0  0  0
    4.3543   -6.7402   -5.2974 C   0  0  0  0  0  0  0  0  0  0  0  0
    4.3446   -4.3382   -7.5467 C   0  0  0  0  0  0  0  0  0  0  0  0
    4.7806   -3.2109   -8.0469 N   0  0  0  0  0  0  0  0  0  0  0  0
    4.8870   -2.1281   -7.2663 C   0  0  0  0  0  0  0  0  0  0  0  0
    4.2826   -5.4848   -8.5111 C   0  0  0  0  0  0  0  0  0  0  0  0
    5.6893   -5.9897   -8.8382 C   0  0  0  0  0  0  0  0  0  0  0  0
    4.5329   -1.2109   -3.6082 C   0  0  0  0  0  0  0  0  0  0  0  0
    4.8634   -2.2263   -2.7284 C   0  0  0  0  0  0  0  0  0  0  0  0
    5.7971   -3.3054   -3.0365 C   0  0  0  0  0  0  0  0  0  0  0  0
    5.6394   -4.5672   -2.4690 C   0  0  0  0  0  0  0  0  0  0  0  0
    6.5432   -5.5722   -2.7578 C   0  0  0  0  0  0  0  0  0  0  0  0
    7.5993   -5.3405   -3.6234 C   0  0  0  0  0  0  0  0  0  0  0  0
    7.7780   -4.0859   -4.1921 C   0  0  0  0  0  0  0  0  0  0  0  0
    8.8846   -3.8234   -5.1729 C   0  0  0  0  0  0  0  0  0  0  0  0
    8.3555   -3.9247   -6.6051 C   0  0  0  0  0  0  0  0  0  0  0  0
    6.8834   -3.0761   -3.8766 C   0  0  0  0  0  0  0  0  0  0  0  0
    4.2586   -2.0173   -1.4708 C   0  0  0  0  0  0  0  0  0  0  0  0
    4.2588   -2.9198    0.0272 S   0  0  0  0  0  0  0  0  0  0  0  0
    3.2024   -1.7386    0.7238 C   0  0  0  0  0  0  0  0  0  0  0  0
    2.5058   -1.5024    1.9234 C   0  0  0  0  0  0  0  0  0  0  0  0
    2.5023   -2.1452    3.1816 C   0  0  0  0  0  0  0  0  0  0  0  0
    1.6939   -1.6024    4.2420 C   0  0  0  0  0  0  0  0  0  0  0  0
    1.8340   -2.2726    5.3745 N   0  0  0  0  0  0  0  0  0  0  0  0
    2.8822   -3.4822    5.1325 S   0  0  0  0  0  0  0  0  0  0  0  0
    3.2002   -3.2002    3.5703 N   0  0  0  0  0  0  0  0  0  0  0  0
    0.8151   -0.5312    3.9607 C   0  0  0  0  0  0  0  0  0  0  0  0
   -0.2366    0.0460    4.6932 C   0  0  0  0  0  0  0  0  0  0  0  0
   -0.9600   -0.0570    6.2623 S   0  0  0  0  0  0  0  0  0  0  0  0
   -2.1849    1.0857    5.7574 C   0  0  0  0  0  0  0  0  0  0  0  0
   -3.3230    1.6272    6.3943 C   0  0  0  0  0  0  0  0  0  0  0  0
   -3.7898    1.2115    7.7140 C   0  0  0  0  0  0  0  0  0  0  0  0
   -2.8777    0.8760    8.7115 C   0  0  0  0  0  0  0  0  0  0  0  0
   -3.3275    0.4182    9.9355 C   0  0  0  0  0  0  0  0  0  0  0  0
   -4.6845    0.3047   10.1866 C   0  0  0  0  0  0  0  0  0  0  0  0
   -5.6106    0.6449    9.2079 C   0  0  0  0  0  0  0  0  0  0  0  0
   -7.0844    0.4967    9.4568 C   0  0  0  0  0  0  0  0  0  0  0  0
   -7.5669   -0.8887    9.0232 C   0  0  0  0  0  0  0  0  0  0  0  0
   -5.1514    1.0769    7.9743 C   0  0  0  0  0  0  0  0  0  0  0  0
   -4.0028    2.4805    5.5431 C   0  0  0  0  0  0  0  0  0  0  0  0
   -3.2690    2.5938    3.9570 S   0  0  0  0  0  0  0  0  0  0  0  0
   -2.0189    1.5099    4.4370 C   0  0  0  0  0  0  0  0  0  0  0  0
   -0.9028    0.9212    3.8305 C   0  0  0  0  0  0  0  0  0  0  0  0
   -0.2893    0.9432    2.6044 N   0  0  0  0  0  0  0  0  0  0  0  0
    0.7795    0.0641    2.6714 C   0  0  0  0  0  0  0  0  0  0  0  0
    1.7395   -0.3264    1.7102 C   0  0  0  0  0  0  0  0  0  0  0  0
    2.0234    0.1842    0.4571 N   0  0  0  0  0  0  0  0  0  0  0  0
    2.8898   -0.6910   -0.1484 C   0  0  0  0  0  0  0  0  0  0  0  0
    3.4958   -0.8490   -1.3998 C   0  0  0  0  0  0  0  0  0  0  0  0
    3.5169    0.0189   -2.8882 S   0  0  0  0  0  0  0  0  0  0  0  0
    1.9857    1.5810    0.0784 C   0  0  0  0  0  0  0  0  0  0  0  0
    3.3858    2.1924    0.0424 C   0  0  0  0  0  0  0  0  0  0  0  0
   -1.0445    1.3475    1.4334 C   0  0  0  0  0  0  0  0  0  0  0  0
   -1.4542    0.1474    0.5854 C   0  0  0  0  0  0  0  0  0  0  0  0
   -5.1597    3.2986    5.8106 C   0  0  0  0  0  0  0  0  0  0  0  0
   -6.1947    3.4123    4.8947 C   0  0  0  0  0  0  0  0  0  0  0  0
   -6.1691    2.6768    3.7690 F   0  0  0  0  0  0  0  0  0  0  0  0
   -7.3085    4.2256    5.1137 C   0  0  0  0  0  0  0  0  0  0  0  0
   -8.3066    4.1693    4.2240 F   0  0  0  0  0  0  0  0  0  0  0  0
   -7.4377    4.9901    6.2624 C   0  0  0  0  0  0  0  0  0  0  0  0
   -6.4026    4.8801    7.2345 C   0  0  0  0  0  0  0  0  0  0  0  0
   -6.4895    5.6204    8.3522 N   0  0  0  0  0  0  0  0  0  0  0  0
   -5.5121    5.5839    9.2242 C   0  0  0  0  0  0  0  0  0  0  0  0
   -5.6581    6.5039   10.3977 C   0  0  0  0  0  0  0  0  0  0  0  0
   -5.1119    7.8891   10.0391 C   0  0  0  0  0  0  0  0  0  0  0  0
   -4.3616    4.7764    8.9896 C   0  0  0  0  0  0  0  0  0  0  0  0
   -4.2685    4.0444    7.9068 N   0  0  0  0  0  0  0  0  0  0  0  0
   -5.2690    4.0627    7.0107 C   0  0  0  0  0  0  0  0  0  0  0  0
   -3.2096    4.7023    9.9438 C   0  0  0  0  0  0  0  0  0  0  0  0
   -3.5197    3.7639   11.1123 C   0  0  0  0  0  0  0  0  0  0  0  0
   -8.5670    5.8402    6.5275 C   0  0  0  0  0  0  0  0  0  0  0  0
   -9.1729    6.6352    5.6113 C   0  0  0  0  0  0  0  0  0  0  0  0
   -8.5634    7.0132    4.3008 C   0  0  0  0  0  0  0  0  0  0  0  0
   -7.4957    6.6630    3.8608 O   0  0  0  0  0  0  0  0  0  0  0  0
   -9.4871    8.0134    3.7245 C   0  0  0  0  0  0  0  0  0  0  0  0
   -9.4208    8.6994    2.5245 C   0  0  0  0  0  0  0  0  0  0  0  0
   -8.4140    8.4980    1.6708 F   0  0  0  0  0  0  0  0  0  0  0  0
  -10.4152    9.6095    2.1884 C   0  0  0  0  0  0  0  0  0  0  0  0
  -11.4630    9.8324    3.0655 C   0  0  0  0  0  0  0  0  0  0  0  0
  -11.5485    9.1616    4.2786 C   0  0  0  0  0  0  0  0  0  0  0  0
  -10.5587    8.2481    4.6067 C   0  0  0  0  0  0  0  0  0  0  0  0
  -10.3919    7.4028    5.7871 C   0  0  0  0  0  0  0  0  0  0  0  0
  -11.2676    7.3058    6.8339 C   0  0  0  0  0  0  0  0  0  0  0  0
  -12.4574    8.0562    6.9517 C   0  0  0  0  0  0  0  0  0  0  0  0
  -13.4317    8.6409    7.1127 N   0  0  0  0  0  0  0  0  0  0  0  0
  -11.1201    6.4359    7.9367 C   0  0  0  0  0  0  0  0  0  0  0  0
  -11.0870    5.7553    8.8604 N   0  0  0  0  0  0  0  0  0  0  0  0
    6.2974   -0.1748   -9.5908 H   0  0  0  0  0  0  0  0  0  0  0  0
    0.7327   -2.8901  -10.6103 H   0  0  0  0  0  0  0  0  0  0  0  0
   -0.8970   -3.7410  -12.2669 H   0  0  0  0  0  0  0  0  0  0  0  0
   -1.4846   -4.2831  -14.6172 H   0  0  0  0  0  0  0  0  0  0  0  0
    2.3879   -3.0419  -15.9102 H   0  0  0  0  0  0  0  0  0  0  0  0
    4.0185   -2.2037  -14.2963 H   0  0  0  0  0  0  0  0  0  0  0  0
    2.9267   -5.3024   -4.5875 H   0  0  0  0  0  0  0  0  0  0  0  0
    2.5305   -5.9834   -6.1768 H   0  0  0  0  0  0  0  0  0  0  0  0
    4.7483   -7.1348   -6.2296 H   0  0  0  0  0  0  0  0  0  0  0  0
    3.8749   -7.5530   -4.7573 H   0  0  0  0  0  0  0  0  0  0  0  0
    5.1815   -6.3666   -4.6998 H   0  0  0  0  0  0  0  0  0  0  0  0
    3.8219   -5.1182   -9.4315 H   0  0  0  0  0  0  0  0  0  0  0  0
    3.6723   -6.2951   -8.1159 H   0  0  0  0  0  0  0  0  0  0  0  0
    5.6413   -6.7783   -9.5851 H   0  0  0  0  0  0  0  0  0  0  0  0
    6.2934   -5.1735   -9.2262 H   0  0  0  0  0  0  0  0  0  0  0  0
    6.1744   -6.3843   -7.9479 H   0  0  0  0  0  0  0  0  0  0  0  0
    4.8026   -4.7647   -1.8178 H   0  0  0  0  0  0  0  0  0  0  0  0
    6.4201   -6.5473   -2.3090 H   0  0  0  0  0  0  0  0  0  0  0  0
    8.2931   -6.1364   -3.8540 H   0  0  0  0  0  0  0  0  0  0  0  0
    9.6888   -4.5479   -5.0332 H   0  0  0  0  0  0  0  0  0  0  0  0
    9.2925   -2.8234   -5.0117 H   0  0  0  0  0  0  0  0  0  0  0  0
    7.5544   -3.2061   -6.7690 H   0  0  0  0  0  0  0  0  0  0  0  0
    9.1489   -3.7252   -7.3211 H   0  0  0  0  0  0  0  0  0  0  0  0
    7.9614   -4.9212   -6.7922 H   0  0  0  0  0  0  0  0  0  0  0  0
    7.0450   -2.0876   -4.2822 H   0  0  0  0  0  0  0  0  0  0  0  0
   -1.8196    0.9879    8.5342 H   0  0  0  0  0  0  0  0  0  0  0  0
   -2.6144    0.1535   10.7026 H   0  0  0  0  0  0  0  0  0  0  0  0
   -5.0288   -0.0465   11.1487 H   0  0  0  0  0  0  0  0  0  0  0  0
   -7.2951    0.6354   10.5191 H   0  0  0  0  0  0  0  0  0  0  0  0
   -7.6312    1.2601    8.8988 H   0  0  0  0  0  0  0  0  0  0  0  0
   -8.6344   -0.9918    9.2024 H   0  0  0  0  0  0  0  0  0  0  0  0
   -7.3759   -1.0415    7.9634 H   0  0  0  0  0  0  0  0  0  0  0  0
   -7.0436   -1.6629    9.5798 H   0  0  0  0  0  0  0  0  0  0  0  0
   -5.8678    1.2985    7.1962 H   0  0  0  0  0  0  0  0  0  0  0  0
    1.4053    2.1174    0.8260 H   0  0  0  0  0  0  0  0  0  0  0  0
    1.5110    1.6764   -0.9036 H   0  0  0  0  0  0  0  0  0  0  0  0
    3.3082    3.2571   -0.1596 H   0  0  0  0  0  0  0  0  0  0  0  0
    3.9954    1.7418   -0.7347 H   0  0  0  0  0  0  0  0  0  0  0  0
    3.8807    2.0539    1.0014 H   0  0  0  0  0  0  0  0  0  0  0  0
   -1.9378    1.8560    1.8034 H   0  0  0  0  0  0  0  0  0  0  0  0
   -0.4906    2.0638    0.8254 H   0  0  0  0  0  0  0  0  0  0  0  0
   -2.0827    0.4797   -0.2360 H   0  0  0  0  0  0  0  0  0  0  0  0
   -2.0154   -0.5640    1.1870 H   0  0  0  0  0  0  0  0  0  0  0  0
   -0.5825   -0.3565    0.1761 H   0  0  0  0  0  0  0  0  0  0  0  0
   -5.1355    6.1166   11.2701 H   0  0  0  0  0  0  0  0  0  0  0  0
   -6.7205    6.5924   10.6280 H   0  0  0  0  0  0  0  0  0  0  0  0
   -5.6507    8.2915    9.1851 H   0  0  0  0  0  0  0  0  0  0  0  0
   -4.0551    7.8373    9.7853 H   0  0  0  0  0  0  0  0  0  0  0  0
   -5.2338    8.5666   10.8803 H   0  0  0  0  0  0  0  0  0  0  0  0
   -2.9685    5.6971   10.3209 H   0  0  0  0  0  0  0  0  0  0  0  0
   -2.3509    4.3124    9.3964 H   0  0  0  0  0  0  0  0  0  0  0  0
   -2.6661    3.7175   11.7839 H   0  0  0  0  0  0  0  0  0  0  0  0
   -3.7249    2.7646   10.7395 H   0  0  0  0  0  0  0  0  0  0  0  0
   -4.3854    4.1022   11.6767 H   0  0  0  0  0  0  0  0  0  0  0  0
   -8.8895    5.8525    7.5601 H   0  0  0  0  0  0  0  0  0  0  0  0
  -10.3544   10.1302    1.2458 H   0  0  0  0  0  0  0  0  0  0  0  0
  -12.2301   10.5437    2.8011 H   0  0  0  0  0  0  0  0  0  0  0  0
  -12.3729    9.3598    4.9428 H   0  0  0  0  0  0  0  0  0  0  0  0
  1  2  2  0  0  0  0
  2  3  1  0  0  0  0
  3  4  2  0  0  0  0
  3  5  1  0  0  0  0
  5  6  2  0  0  0  0
  6  7  1  0  0  0  0
  7  8  2  0  0  0  0
  8  9  1  0  0  0  0
  9 10  2  0  0  0  0
 10 11  1  0  0  0  0
 10 12  1  0  0  0  0
 12 13  2  0  0  0  0
 13 14  1  0  0  0  0
 14 15  2  0  0  0  0
 15 16  1  0  0  0  0
 16 17  2  0  0  0  0
 17 18  1  0  0  0  0
 18 19  3  0  0  0  0
 17 20  1  0  0  0  0
 20 21  3  0  0  0  0
  1 22  1  0  0  0  0
 22 23  2  0  0  0  0
 23 24  1  0  0  0  0
 23 25  1  0  0  0  0
 25 26  1  0  0  0  0
 25 27  2  0  0  0  0
 27 28  1  0  0  0  0
 28 29  2  0  0  0  0
 29 30  1  0  0  0  0
 30 31  1  0  0  0  0
 31 32  1  0  0  0  0
 30 33  2  0  0  0  0
 33 34  1  0  0  0  0
 34 35  2  0  0  0  0
 33 36  1  0  0  0  0
 36 37  1  0  0  0  0
 27 38  1  0  0  0  0
 38 39  2  0  0  0  0
 39 40  1  0  0  0  0
 40 41  2  0  0  0  0
 41 42  1  0  0  0  0
 42 43  2  0  0  0  0
 43 44  1  0  0  0  0
 44 45  1  0  0  0  0
 45 46  1  0  0  0  0
 44 47  2  0  0  0  0
 39 48  1  0  0  0  0
 48 49  1  0  0  0  0
 49 50  1  0  0  0  0
 50 51  1  0  0  0  0
 51 52  1  0  0  0  0
 52 53  1  0  0  0  0
 53 54  2  0  0  0  0
 54 55  1  0  0  0  0
 55 56  1  0  0  0  0
 53 57  1  0  0  0  0
 57 58  1  0  0  0  0
 58 59  1  0  0  0  0
 59 60  1  0  0  0  0
 60 61  1  0  0  0  0
 61 62  1  0  0  0  0
 62 63  2  0  0  0  0
 63 64  1  0  0  0  0
 64 65  2  0  0  0  0
 65 66  1  0  0  0  0
 66 67  1  0  0  0  0
 67 68  1  0  0  0  0
 66 69  2  0  0  0  0
 61 70  2  0  0  0  0
 70 71  1  0  0  0  0
 71 72  1  0  0  0  0
 72 73  1  0  0  0  0
 73 74  1  0  0  0  0
 74 75  1  0  0  0  0
 75 76  1  0  0  0  0
 76 77  1  0  0  0  0
 77 78  1  0  0  0  0
 78 79  1  0  0  0  0
 79 80  1  0  0  0  0
 77 81  1  0  0  0  0
 81 82  1  0  0  0  0
 74 83  1  0  0  0  0
 83 84  1  0  0  0  0
 70 85  1  0  0  0  0
 85 86  2  0  0  0  0
 86 87  1  0  0  0  0
 86 88  1  0  0  0  0
 88 89  1  0  0  0  0
 88 90  2  0  0  0  0
 90 91  1  0  0  0  0
 91 92  2  0  0  0  0
 92 93  1  0  0  0  0
 93 94  1  0  0  0  0
 94 95  1  0  0  0  0
 93 96  2  0  0  0  0
 96 97  1  0  0  0  0
 97 98  2  0  0  0  0
 96 99  1  0  0  0  0
 99100  1  0  0  0  0
 90101  1  0  0  0  0
101102  2  0  0  0  0
102103  1  0  0  0  0
103104  2  0  0  0  0
103105  1  0  0  0  0
105106  2  0  0  0  0
106107  1  0  0  0  0
106108  1  0  0  0  0
108109  2  0  0  0  0
109110  1  0  0  0  0
110111  2  0  0  0  0
111112  1  0  0  0  0
112113  2  0  0  0  0
113114  1  0  0  0  0
114115  3  0  0  0  0
113116  1  0  0  0  0
116117  3  0  0  0  0
 16  2  1  0  0  0  0
 35 22  1  0  0  0  0
 80 38  1  0  0  0  0
 98 85  1  0  0  0  0
112102  1  0  0  0  0
 15  5  1  0  0  0  0
 35 28  1  0  0  0  0
 47 40  1  0  0  0  0
 79 48  2  0  0  0  0
 98 91  1  0  0  0  0
111105  1  0  0  0  0
 13  7  1  0  0  0  0
 78 50  2  0  0  0  0
 76 51  2  0  0  0  0
 56 52  2  0  0  0  0
 75 57  2  0  0  0  0
 73 58  2  0  0  0  0
 72 60  2  0  0  0  0
 69 62  1  0  0  0  0
  1118  1  0  0  0  0
  6119  1  0  0  0  0
  8120  1  0  0  0  0
  9121  1  0  0  0  0
 12122  1  0  0  0  0
 14123  1  0  0  0  0
 31124  1  0  0  0  0
 31125  1  0  0  0  0
 32126  1  0  0  0  0
 32127  1  0  0  0  0
 32128  1  0  0  0  0
 36129  1  0  0  0  0
 36130  1  0  0  0  0
 37131  1  0  0  0  0
 37132  1  0  0  0  0
 37133  1  0  0  0  0
 41134  1  0  0  0  0
 42135  1  0  0  0  0
 43136  1  0  0  0  0
 45137  1  0  0  0  0
 45138  1  0  0  0  0
 46139  1  0  0  0  0
 46140  1  0  0  0  0
 46141  1  0  0  0  0
 47142  1  0  0  0  0
 63143  1  0  0  0  0
 64144  1  0  0  0  0
 65145  1  0  0  0  0
 67146  1  0  0  0  0
 67147  1  0  0  0  0
 68148  1  0  0  0  0
 68149  1  0  0  0  0
 68150  1  0  0  0  0
 69151  1  0  0  0  0
 81152  1  0  0  0  0
 81153  1  0  0  0  0
 82154  1  0  0  0  0
 82155  1  0  0  0  0
 82156  1  0  0  0  0
 83157  1  0  0  0  0
 83158  1  0  0  0  0
 84159  1  0  0  0  0
 84160  1  0  0  0  0
 84161  1  0  0  0  0
 94162  1  0  0  0  0
 94163  1  0  0  0  0
 95164  1  0  0  0  0
 95165  1  0  0  0  0
 95166  1  0  0  0  0
 99167  1  0  0  0  0
 99168  1  0  0  0  0
100169  1  0  0  0  0
100170  1  0  0  0  0
100171  1  0  0  0  0
101172  1  0  0  0  0
108173  1  0  0  0  0
109174  1  0  0  0  0
110175  1  0  0  0  0
M  END
