
  xtb     02042218083D
 energy: -313.599398604597 gnorm: 0.000786512468 xtb: 6.4.1 (unknown)
179197  0     0  0            999 V2000
   -2.6737    1.7561   10.9260 C   0  0  0  0  0  0  0  0  0  0  0  0
   -3.9822    1.4267   10.8462 C   0  0  0  0  0  0  0  0  0  0  0  0
   -4.7091    1.2636    9.5519 C   0  0  0  0  0  0  0  0  0  0  0  0
   -4.5125    1.8677    8.5180 O   0  0  0  0  0  0  0  0  0  0  0  0
   -5.8658    0.4049    9.8783 C   0  0  0  0  0  0  0  0  0  0  0  0
   -6.7606   -0.1920    9.0398 C   0  0  0  0  0  0  0  0  0  0  0  0
   -7.8174   -0.9543    9.5866 C   0  0  0  0  0  0  0  0  0  0  0  0
   -8.7643   -1.5983    8.7641 C   0  0  0  0  0  0  0  0  0  0  0  0
   -9.7867   -2.3278    9.3036 C   0  0  0  0  0  0  0  0  0  0  0  0
   -9.8842   -2.4303   10.6982 C   0  0  0  0  0  0  0  0  0  0  0  0
  -10.8974   -3.1530   11.2103 F   0  0  0  0  0  0  0  0  0  0  0  0
   -8.9933   -1.8276   11.5413 C   0  0  0  0  0  0  0  0  0  0  0  0
   -7.9333   -1.0714   11.0026 C   0  0  0  0  0  0  0  0  0  0  0  0
   -6.9978   -0.4334   11.8484 C   0  0  0  0  0  0  0  0  0  0  0  0
   -5.9765    0.2931   11.2944 C   0  0  0  0  0  0  0  0  0  0  0  0
   -4.8836    1.0349   11.9136 C   0  0  0  0  0  0  0  0  0  0  0  0
   -4.7532    1.3405   13.2408 C   0  0  0  0  0  0  0  0  0  0  0  0
   -3.7216    2.1592   13.7459 C   0  0  0  0  0  0  0  0  0  0  0  0
   -2.9119    2.8422   14.1886 N   0  0  0  0  0  0  0  0  0  0  0  0
   -5.6596    0.9328   14.2408 C   0  0  0  0  0  0  0  0  0  0  0  0
   -6.3653    0.6232   15.0914 N   0  0  0  0  0  0  0  0  0  0  0  0
   -1.8103    1.7297    9.7640 C   0  0  0  0  0  0  0  0  0  0  0  0
   -0.8067    2.6639    9.5301 C   0  0  0  0  0  0  0  0  0  0  0  0
   -0.7299    3.8266   10.2383 O   0  0  0  0  0  0  0  0  0  0  0  0
   -1.9244    4.5414   10.5479 C   0  0  0  0  0  0  0  0  0  0  0  0
   -2.7833    4.8261    9.3230 C   0  0  0  0  0  0  0  0  0  0  0  0
    0.1544    2.4691    8.4967 C   0  0  0  0  0  0  0  0  0  0  0  0
    1.1532    3.3199    8.1992 O   0  0  0  0  0  0  0  0  0  0  0  0
    1.7041    4.2617    9.1128 C   0  0  0  0  0  0  0  0  0  0  0  0
    1.2499    5.6794    8.7921 C   0  0  0  0  0  0  0  0  0  0  0  0
    0.0367    1.3701    7.6343 C   0  0  0  0  0  0  0  0  0  0  0  0
   -1.0586    0.4803    7.7889 C   0  0  0  0  0  0  0  0  0  0  0  0
   -1.9630    0.6329    8.8723 C   0  0  0  0  0  0  0  0  0  0  0  0
   -2.9506   -0.2578    9.0524 N   0  0  0  0  0  0  0  0  0  0  0  0
   -3.0945   -1.2218    8.1809 C   0  0  0  0  0  0  0  0  0  0  0  0
   -2.2333   -1.3388    7.0790 C   0  0  0  0  0  0  0  0  0  0  0  0
   -1.2301   -0.5186    6.9103 N   0  0  0  0  0  0  0  0  0  0  0  0
    0.9230    1.1813    6.5092 C   0  0  0  0  0  0  0  0  0  0  0  0
    2.2807    1.4192    6.3991 C   0  0  0  0  0  0  0  0  0  0  0  0
    3.1867    1.6918    7.5126 C   0  0  0  0  0  0  0  0  0  0  0  0
    3.0342    1.0284    8.7288 C   0  0  0  0  0  0  0  0  0  0  0  0
    3.9265    1.2582    9.7575 C   0  0  0  0  0  0  0  0  0  0  0  0
    4.9833    2.1366    9.5849 C   0  0  0  0  0  0  0  0  0  0  0  0
    5.1558    2.8011    8.3775 C   0  0  0  0  0  0  0  0  0  0  0  0
    6.3270    3.7137    8.1542 C   0  0  0  0  0  0  0  0  0  0  0  0
    7.4508    2.9617    7.4383 C   0  0  0  0  0  0  0  0  0  0  0  0
    4.2521    2.5705    7.3504 C   0  0  0  0  0  0  0  0  0  0  0  0
    2.7244    1.2366    5.0730 C   0  0  0  0  0  0  0  0  0  0  0  0
    4.2888    1.4129    4.3113 S   0  0  0  0  0  0  0  0  0  0  0  0
    3.5849    0.9398    2.8027 C   0  0  0  0  0  0  0  0  0  0  0  0
    3.9450    0.8329    1.4494 C   0  0  0  0  0  0  0  0  0  0  0  0
    5.1163    1.2098    0.7556 C   0  0  0  0  0  0  0  0  0  0  0  0
    5.1074    1.2027   -0.6826 C   0  0  0  0  0  0  0  0  0  0  0  0
    6.2364    1.6636   -1.1966 N   0  0  0  0  0  0  0  0  0  0  0  0
    7.2297    2.0629    0.0189 S   0  0  0  0  0  0  0  0  0  0  0  0
    6.2545    1.6684    1.2511 N   0  0  0  0  0  0  0  0  0  0  0  0
    3.9823    0.6805   -1.3580 C   0  0  0  0  0  0  0  0  0  0  0  0
    3.7252    0.4467   -2.7211 C   0  0  0  0  0  0  0  0  0  0  0  0
    4.4559    0.7224   -4.2671 S   0  0  0  0  0  0  0  0  0  0  0  0
    3.1097   -0.0943   -5.0285 C   0  0  0  0  0  0  0  0  0  0  0  0
    2.8150   -0.4197   -6.3699 C   0  0  0  0  0  0  0  0  0  0  0  0
    3.7248   -0.1553   -7.4826 C   0  0  0  0  0  0  0  0  0  0  0  0
    3.9624   -1.1290   -8.4500 C   0  0  0  0  0  0  0  0  0  0  0  0
    4.8738   -0.8901   -9.4605 C   0  0  0  0  0  0  0  0  0  0  0  0
    5.5534    0.3154   -9.5190 C   0  0  0  0  0  0  0  0  0  0  0  0
    5.3291    1.2979   -8.5621 C   0  0  0  0  0  0  0  0  0  0  0  0
    6.0244    2.6263   -8.6451 C   0  0  0  0  0  0  0  0  0  0  0  0
    5.1805    3.6216   -9.4441 C   0  0  0  0  0  0  0  0  0  0  0  0
    4.4145    1.0505   -7.5497 C   0  0  0  0  0  0  0  0  0  0  0  0
    1.6285   -1.1166   -6.4634 C   0  0  0  0  0  0  0  0  0  0  0  0
    0.8867   -1.4105   -4.9069 S   0  0  0  0  0  0  0  0  0  0  0  0
    2.1587   -0.5523   -4.1160 C   0  0  0  0  0  0  0  0  0  0  0  0
    2.5081   -0.2319   -2.7973 C   0  0  0  0  0  0  0  0  0  0  0  0
    1.9828   -0.4061   -1.5420 N   0  0  0  0  0  0  0  0  0  0  0  0
    2.8643    0.1715   -0.6426 C   0  0  0  0  0  0  0  0  0  0  0  0
    2.7851    0.3913    0.7552 C   0  0  0  0  0  0  0  0  0  0  0  0
    1.7424    0.2925    1.6565 N   0  0  0  0  0  0  0  0  0  0  0  0
    2.2250    0.6318    2.8933 C   0  0  0  0  0  0  0  0  0  0  0  0
    1.7251    0.8244    4.1894 C   0  0  0  0  0  0  0  0  0  0  0  0
    0.2108    0.6491    5.0017 S   0  0  0  0  0  0  0  0  0  0  0  0
    0.3181    0.2465    1.4152 C   0  0  0  0  0  0  0  0  0  0  0  0
   -0.3206   -1.0284    1.9672 C   0  0  0  0  0  0  0  0  0  0  0  0
    1.0736   -1.5090   -1.3199 C   0  0  0  0  0  0  0  0  0  0  0  0
    1.7602   -2.8501   -1.5799 C   0  0  0  0  0  0  0  0  0  0  0  0
    0.9279   -1.5734   -7.6457 C   0  0  0  0  0  0  0  0  0  0  0  0
    0.7113   -0.7191   -8.7344 C   0  0  0  0  0  0  0  0  0  0  0  0
    1.2169    0.5175   -8.5663 O   0  0  0  0  0  0  0  0  0  0  0  0
    1.2088    1.5497   -9.5418 C   0  0  0  0  0  0  0  0  0  0  0  0
    2.1527    1.2909  -10.7074 C   0  0  0  0  0  0  0  0  0  0  0  0
   -0.0623   -1.1769   -9.8388 C   0  0  0  0  0  0  0  0  0  0  0  0
   -0.3594   -0.2804  -10.8216 O   0  0  0  0  0  0  0  0  0  0  0  0
   -1.6863   -0.2263  -11.3424 C   0  0  0  0  0  0  0  0  0  0  0  0
   -2.7464   -0.1016  -10.2565 C   0  0  0  0  0  0  0  0  0  0  0  0
   -0.5265   -2.4874   -9.8941 C   0  0  0  0  0  0  0  0  0  0  0  0
   -0.3485   -3.3439   -8.7743 C   0  0  0  0  0  0  0  0  0  0  0  0
    0.3609   -2.8711   -7.6390 C   0  0  0  0  0  0  0  0  0  0  0  0
    0.5089   -3.6577   -6.5606 N   0  0  0  0  0  0  0  0  0  0  0  0
   -0.0143   -4.8544   -6.5874 C   0  0  0  0  0  0  0  0  0  0  0  0
   -0.6836   -5.3399   -7.7225 C   0  0  0  0  0  0  0  0  0  0  0  0
   -0.8355   -4.5946   -8.7860 N   0  0  0  0  0  0  0  0  0  0  0  0
   -1.0927   -3.0784  -11.0883 C   0  0  0  0  0  0  0  0  0  0  0  0
   -2.0926   -3.9832  -11.0212 C   0  0  0  0  0  0  0  0  0  0  0  0
   -2.8705   -4.2511   -9.7712 C   0  0  0  0  0  0  0  0  0  0  0  0
   -3.2159   -3.4395   -8.9371 O   0  0  0  0  0  0  0  0  0  0  0  0
   -3.3804   -5.6299   -9.9477 C   0  0  0  0  0  0  0  0  0  0  0  0
   -4.0112   -6.4564   -9.0384 C   0  0  0  0  0  0  0  0  0  0  0  0
   -4.4240   -7.7122   -9.4550 C   0  0  0  0  0  0  0  0  0  0  0  0
   -4.2138   -8.1110  -10.7709 C   0  0  0  0  0  0  0  0  0  0  0  0
   -4.7346   -9.6781  -11.2649 Cl  0  0  0  0  0  0  0  0  0  0  0  0
   -3.5971   -7.2843  -11.7028 C   0  0  0  0  0  0  0  0  0  0  0  0
   -3.1756   -6.0335  -11.2802 C   0  0  0  0  0  0  0  0  0  0  0  0
   -2.4960   -4.9655  -12.0095 C   0  0  0  0  0  0  0  0  0  0  0  0
   -2.3066   -4.8845  -13.3606 C   0  0  0  0  0  0  0  0  0  0  0  0
   -2.7157   -5.8699  -14.2831 C   0  0  0  0  0  0  0  0  0  0  0  0
   -3.0172   -6.6441  -15.0746 N   0  0  0  0  0  0  0  0  0  0  0  0
   -1.7297   -3.7582  -13.9856 C   0  0  0  0  0  0  0  0  0  0  0  0
   -1.2872   -2.8488  -14.5282 N   0  0  0  0  0  0  0  0  0  0  0  0
   -2.1883    1.8848   11.8854 H   0  0  0  0  0  0  0  0  0  0  0  0
   -6.6631   -0.0876    7.9694 H   0  0  0  0  0  0  0  0  0  0  0  0
   -8.6698   -1.5031    7.6926 H   0  0  0  0  0  0  0  0  0  0  0  0
  -10.5198   -2.8248    8.6882 H   0  0  0  0  0  0  0  0  0  0  0  0
   -9.1003   -1.9261   12.6102 H   0  0  0  0  0  0  0  0  0  0  0  0
   -7.1082   -0.5395   12.9161 H   0  0  0  0  0  0  0  0  0  0  0  0
   -2.5128    4.0199   11.3094 H   0  0  0  0  0  0  0  0  0  0  0  0
   -1.5497    5.4719   10.9835 H   0  0  0  0  0  0  0  0  0  0  0  0
   -2.1942    5.3100    8.5464 H   0  0  0  0  0  0  0  0  0  0  0  0
   -3.2059    3.9095    8.9164 H   0  0  0  0  0  0  0  0  0  0  0  0
   -3.5982    5.4867    9.6059 H   0  0  0  0  0  0  0  0  0  0  0  0
    1.4712    3.9948   10.1440 H   0  0  0  0  0  0  0  0  0  0  0  0
    2.7867    4.1826    8.9639 H   0  0  0  0  0  0  0  0  0  0  0  0
    1.4637    5.9062    7.7507 H   0  0  0  0  0  0  0  0  0  0  0  0
    0.1842    5.7898    8.9652 H   0  0  0  0  0  0  0  0  0  0  0  0
    1.7838    6.3821    9.4253 H   0  0  0  0  0  0  0  0  0  0  0  0
   -3.9013   -1.9202    8.3573 H   0  0  0  0  0  0  0  0  0  0  0  0
   -2.3528   -2.1204    6.3422 H   0  0  0  0  0  0  0  0  0  0  0  0
    2.2236    0.3257    8.8569 H   0  0  0  0  0  0  0  0  0  0  0  0
    3.8046    0.7421   10.6989 H   0  0  0  0  0  0  0  0  0  0  0  0
    5.6806    2.3052   10.3930 H   0  0  0  0  0  0  0  0  0  0  0  0
    6.0214    4.5658    7.5434 H   0  0  0  0  0  0  0  0  0  0  0  0
    6.6941    4.0911    9.1108 H   0  0  0  0  0  0  0  0  0  0  0  0
    7.7788    2.1146    8.0369 H   0  0  0  0  0  0  0  0  0  0  0  0
    7.1028    2.5879    6.4781 H   0  0  0  0  0  0  0  0  0  0  0  0
    8.3011    3.6183    7.2699 H   0  0  0  0  0  0  0  0  0  0  0  0
    4.3690    3.0968    6.4148 H   0  0  0  0  0  0  0  0  0  0  0  0
    3.4475   -2.0769   -8.3935 H   0  0  0  0  0  0  0  0  0  0  0  0
    5.0606   -1.6495  -10.2059 H   0  0  0  0  0  0  0  0  0  0  0  0
    6.2673    0.4929  -10.3106 H   0  0  0  0  0  0  0  0  0  0  0  0
    6.1884    3.0183   -7.6397 H   0  0  0  0  0  0  0  0  0  0  0  0
    6.9956    2.5072   -9.1293 H   0  0  0  0  0  0  0  0  0  0  0  0
    4.2096    3.7576   -8.9728 H   0  0  0  0  0  0  0  0  0  0  0  0
    5.0215    3.2575  -10.4569 H   0  0  0  0  0  0  0  0  0  0  0  0
    5.6791    4.5865   -9.4968 H   0  0  0  0  0  0  0  0  0  0  0  0
    4.2287    1.8097   -6.8045 H   0  0  0  0  0  0  0  0  0  0  0  0
   -0.1338    1.1054    1.9248 H   0  0  0  0  0  0  0  0  0  0  0  0
    0.1373    0.3629    0.3458 H   0  0  0  0  0  0  0  0  0  0  0  0
   -0.2904   -1.0193    3.0531 H   0  0  0  0  0  0  0  0  0  0  0  0
    0.2001   -1.9203    1.6250 H   0  0  0  0  0  0  0  0  0  0  0  0
   -1.3588   -1.0839    1.6519 H   0  0  0  0  0  0  0  0  0  0  0  0
    0.2254   -1.3903   -2.0012 H   0  0  0  0  0  0  0  0  0  0  0  0
    0.7204   -1.4918   -0.2958 H   0  0  0  0  0  0  0  0  0  0  0  0
    2.0757   -2.9291   -2.6164 H   0  0  0  0  0  0  0  0  0  0  0  0
    2.6334   -2.9553   -0.9391 H   0  0  0  0  0  0  0  0  0  0  0  0
    1.0690   -3.6610   -1.3671 H   0  0  0  0  0  0  0  0  0  0  0  0
    1.5565    2.4170   -8.9720 H   0  0  0  0  0  0  0  0  0  0  0  0
    0.1951    1.7466   -9.8987 H   0  0  0  0  0  0  0  0  0  0  0  0
    3.1512    1.0780  -10.3365 H   0  0  0  0  0  0  0  0  0  0  0  0
    1.8078    0.4515  -11.3033 H   0  0  0  0  0  0  0  0  0  0  0  0
    2.1874    2.1749  -11.3380 H   0  0  0  0  0  0  0  0  0  0  0  0
   -1.8978   -1.0912  -11.9792 H   0  0  0  0  0  0  0  0  0  0  0  0
   -1.6687    0.6678  -11.9716 H   0  0  0  0  0  0  0  0  0  0  0  0
   -2.8196   -1.0166   -9.6717 H   0  0  0  0  0  0  0  0  0  0  0  0
   -3.7101    0.0887  -10.7203 H   0  0  0  0  0  0  0  0  0  0  0  0
   -2.5110    0.7235   -9.5870 H   0  0  0  0  0  0  0  0  0  0  0  0
    0.1091   -5.4594   -5.7004 H   0  0  0  0  0  0  0  0  0  0  0  0
   -1.0911   -6.3407   -7.7670 H   0  0  0  0  0  0  0  0  0  0  0  0
   -0.5607   -2.8989  -12.0143 H   0  0  0  0  0  0  0  0  0  0  0  0
   -4.1713   -6.1243   -8.0243 H   0  0  0  0  0  0  0  0  0  0  0  0
   -4.9109   -8.3865   -8.7680 H   0  0  0  0  0  0  0  0  0  0  0  0
   -3.4533   -7.6248  -12.7153 H   0  0  0  0  0  0  0  0  0  0  0  0
  1  2  2  0  0  0  0
  2  3  1  0  0  0  0
  3  4  2  0  0  0  0
  3  5  1  0  0  0  0
  5  6  2  0  0  0  0
  6  7  1  0  0  0  0
  7  8  2  0  0  0  0
  8  9  1  0  0  0  0
  9 10  2  0  0  0  0
 10 11  1  0  0  0  0
 10 12  1  0  0  0  0
 12 13  2  0  0  0  0
 13 14  1  0  0  0  0
 14 15  2  0  0  0  0
 15 16  1  0  0  0  0
 16 17  2  0  0  0  0
 17 18  1  0  0  0  0
 18 19  3  0  0  0  0
 17 20  1  0  0  0  0
 20 21  3  0  0  0  0
  1 22  1  0  0  0  0
 22 23  2  0  0  0  0
 23 24  1  0  0  0  0
 24 25  1  0  0  0  0
 25 26  1  0  0  0  0
 23 27  1  0  0  0  0
 27 28  1  0  0  0  0
 28 29  1  0  0  0  0
 29 30  1  0  0  0  0
 27 31  2  0  0  0  0
 31 32  1  0  0  0  0
 32 33  2  0  0  0  0
 33 34  1  0  0  0  0
 34 35  2  0  0  0  0
 35 36  1  0  0  0  0
 36 37  2  0  0  0  0
 31 38  1  0  0  0  0
 38 39  2  0  0  0  0
 39 40  1  0  0  0  0
 40 41  2  0  0  0  0
 41 42  1  0  0  0  0
 42 43  2  0  0  0  0
 43 44  1  0  0  0  0
 44 45  1  0  0  0  0
 45 46  1  0  0  0  0
 44 47  2  0  0  0  0
 39 48  1  0  0  0  0
 48 49  1  0  0  0  0
 49 50  1  0  0  0  0
 50 51  1  0  0  0  0
 51 52  1  0  0  0  0
 52 53  1  0  0  0  0
 53 54  2  0  0  0  0
 54 55  1  0  0  0  0
 55 56  1  0  0  0  0
 53 57  1  0  0  0  0
 57 58  1  0  0  0  0
 58 59  1  0  0  0  0
 59 60  1  0  0  0  0
 60 61  1  0  0  0  0
 61 62  1  0  0  0  0
 62 63  2  0  0  0  0
 63 64  1  0  0  0  0
 64 65  2  0  0  0  0
 65 66  1  0  0  0  0
 66 67  1  0  0  0  0
 67 68  1  0  0  0  0
 66 69  2  0  0  0  0
 61 70  2  0  0  0  0
 70 71  1  0  0  0  0
 71 72  1  0  0  0  0
 72 73  1  0  0  0  0
 73 74  1  0  0  0  0
 74 75  1  0  0  0  0
 75 76  1  0  0  0  0
 76 77  1  0  0  0  0
 77 78  1  0  0  0  0
 78 79  1  0  0  0  0
 79 80  1  0  0  0  0
 77 81  1  0  0  0  0
 81 82  1  0  0  0  0
 74 83  1  0  0  0  0
 83 84  1  0  0  0  0
 70 85  1  0  0  0  0
 85 86  2  0  0  0  0
 86 87  1  0  0  0  0
 87 88  1  0  0  0  0
 88 89  1  0  0  0  0
 86 90  1  0  0  0  0
 90 91  1  0  0  0  0
 91 92  1  0  0  0  0
 92 93  1  0  0  0  0
 90 94  2  0  0  0  0
 94 95  1  0  0  0  0
 95 96  2  0  0  0  0
 96 97  1  0  0  0  0
 97 98  2  0  0  0  0
 98 99  1  0  0  0  0
 99100  2  0  0  0  0
 94101  1  0  0  0  0
101102  2  0  0  0  0
102103  1  0  0  0  0
103104  2  0  0  0  0
103105  1  0  0  0  0
105106  2  0  0  0  0
106107  1  0  0  0  0
107108  2  0  0  0  0
108109  1  0  0  0  0
108110  1  0  0  0  0
110111  2  0  0  0  0
111112  1  0  0  0  0
112113  2  0  0  0  0
113114  1  0  0  0  0
114115  3  0  0  0  0
113116  1  0  0  0  0
116117  3  0  0  0  0
 16  2  1  0  0  0  0
 33 22  1  0  0  0  0
 80 38  1  0  0  0  0
 96 85  1  0  0  0  0
112102  1  0  0  0  0
 15  5  1  0  0  0  0
 37 32  1  0  0  0  0
 47 40  1  0  0  0  0
 79 48  2  0  0  0  0
100 95  1  0  0  0  0
111105  1  0  0  0  0
 13  7  1  0  0  0  0
 78 50  2  0  0  0  0
 76 51  2  0  0  0  0
 56 52  2  0  0  0  0
 75 57  2  0  0  0  0
 73 58  2  0  0  0  0
 72 60  2  0  0  0  0
 69 62  1  0  0  0  0
  1118  1  0  0  0  0
  6119  1  0  0  0  0
  8120  1  0  0  0  0
  9121  1  0  0  0  0
 12122  1  0  0  0  0
 14123  1  0  0  0  0
 25124  1  0  0  0  0
 25125  1  0  0  0  0
 26126  1  0  0  0  0
 26127  1  0  0  0  0
 26128  1  0  0  0  0
 29129  1  0  0  0  0
 29130  1  0  0  0  0
 30131  1  0  0  0  0
 30132  1  0  0  0  0
 30133  1  0  0  0  0
 35134  1  0  0  0  0
 36135  1  0  0  0  0
 41136  1  0  0  0  0
 42137  1  0  0  0  0
 43138  1  0  0  0  0
 45139  1  0  0  0  0
 45140  1  0  0  0  0
 46141  1  0  0  0  0
 46142  1  0  0  0  0
 46143  1  0  0  0  0
 47144  1  0  0  0  0
 63145  1  0  0  0  0
 64146  1  0  0  0  0
 65147  1  0  0  0  0
 67148  1  0  0  0  0
 67149  1  0  0  0  0
 68150  1  0  0  0  0
 68151  1  0  0  0  0
 68152  1  0  0  0  0
 69153  1  0  0  0  0
 81154  1  0  0  0  0
 81155  1  0  0  0  0
 82156  1  0  0  0  0
 82157  1  0  0  0  0
 82158  1  0  0  0  0
 83159  1  0  0  0  0
 83160  1  0  0  0  0
 84161  1  0  0  0  0
 84162  1  0  0  0  0
 84163  1  0  0  0  0
 88164  1  0  0  0  0
 88165  1  0  0  0  0
 89166  1  0  0  0  0
 89167  1  0  0  0  0
 89168  1  0  0  0  0
 92169  1  0  0  0  0
 92170  1  0  0  0  0
 93171  1  0  0  0  0
 93172  1  0  0  0  0
 93173  1  0  0  0  0
 98174  1  0  0  0  0
 99175  1  0  0  0  0
101176  1  0  0  0  0
106177  1  0  0  0  0
107178  1  0  0  0  0
110179  1  0  0  0  0
M  END
