
  xtb     02052205483D
 energy: -364.818797063118 gnorm: 0.000700636511 xtb: 6.4.1 (unknown)
216236  0     0  0            999 V2000
    8.3980    1.1563   -2.8779 C   0  0  0  0  0  0  0  0  0  0  0  0
    7.6280    1.0707   -3.9986 C   0  0  0  0  0  0  0  0  0  0  0  0
    6.1483    0.9353   -3.9856 C   0  0  0  0  0  0  0  0  0  0  0  0
    5.4166    0.7016   -3.0468 O   0  0  0  0  0  0  0  0  0  0  0  0
    5.7145    1.2758   -5.3561 C   0  0  0  0  0  0  0  0  0  0  0  0
    4.4440    1.3543   -5.8492 C   0  0  0  0  0  0  0  0  0  0  0  0
    4.2495    1.7154   -7.2013 C   0  0  0  0  0  0  0  0  0  0  0  0
    2.9599    1.7997   -7.7660 C   0  0  0  0  0  0  0  0  0  0  0  0
    2.7830    2.1576   -9.0741 C   0  0  0  0  0  0  0  0  0  0  0  0
    3.9119    2.4420   -9.8549 C   0  0  0  0  0  0  0  0  0  0  0  0
    3.7222    2.7934  -11.1390 F   0  0  0  0  0  0  0  0  0  0  0  0
    5.1840    2.3724   -9.3588 C   0  0  0  0  0  0  0  0  0  0  0  0
    5.3840    2.0034   -8.0145 C   0  0  0  0  0  0  0  0  0  0  0  0
    6.6890    1.9165   -7.4753 C   0  0  0  0  0  0  0  0  0  0  0  0
    6.8520    1.5522   -6.1655 C   0  0  0  0  0  0  0  0  0  0  0  0
    8.0479    1.3712   -5.3513 C   0  0  0  0  0  0  0  0  0  0  0  0
    9.3419    1.3663   -5.8017 C   0  0  0  0  0  0  0  0  0  0  0  0
    9.7148    1.6385   -7.1330 C   0  0  0  0  0  0  0  0  0  0  0  0
   10.0710    1.8591   -8.2020 N   0  0  0  0  0  0  0  0  0  0  0  0
   10.4510    1.0265   -4.9986 C   0  0  0  0  0  0  0  0  0  0  0  0
   11.3903    0.7155   -4.4159 N   0  0  0  0  0  0  0  0  0  0  0  0
    7.9661    0.7237   -1.5864 C   0  0  0  0  0  0  0  0  0  0  0  0
    7.2427   -0.4637   -1.4090 C   0  0  0  0  0  0  0  0  0  0  0  0
    7.0971   -1.2779   -2.4840 O   0  0  0  0  0  0  0  0  0  0  0  0
    7.4575   -2.6486   -2.3324 C   0  0  0  0  0  0  0  0  0  0  0  0
    8.9649   -2.8027   -2.1674 C   0  0  0  0  0  0  0  0  0  0  0  0
    6.6574   -0.7716   -0.1588 C   0  0  0  0  0  0  0  0  0  0  0  0
    5.8030   -1.8461   -0.0778 O   0  0  0  0  0  0  0  0  0  0  0  0
    4.5413   -1.6288   -0.7210 C   0  0  0  0  0  0  0  0  0  0  0  0
    3.7375   -2.9132   -0.6336 C   0  0  0  0  0  0  0  0  0  0  0  0
    6.8537    0.0455    0.9565 C   0  0  0  0  0  0  0  0  0  0  0  0
    7.7290    1.1668    0.8199 C   0  0  0  0  0  0  0  0  0  0  0  0
    8.2829    1.5029   -0.4415 C   0  0  0  0  0  0  0  0  0  0  0  0
    9.0702    2.5861   -0.5710 N   0  0  0  0  0  0  0  0  0  0  0  0
    9.3095    3.2970    0.5019 C   0  0  0  0  0  0  0  0  0  0  0  0
    8.7452    2.9767    1.7466 C   0  0  0  0  0  0  0  0  0  0  0  0
    7.9705    1.9309    1.8930 N   0  0  0  0  0  0  0  0  0  0  0  0
    6.0763   -0.0939    2.1492 C   0  0  0  0  0  0  0  0  0  0  0  0
    5.7459    1.3404    3.1068 S   0  0  0  0  0  0  0  0  0  0  0  0
    4.4651    0.5159    3.9002 C   0  0  0  0  0  0  0  0  0  0  0  0
    3.2885    0.8970    4.6204 C   0  0  0  0  0  0  0  0  0  0  0  0
    2.4781   -0.2268    4.7360 C   0  0  0  0  0  0  0  0  0  0  0  0
    3.1375   -1.4485    4.1052 C   0  0  0  0  0  0  0  0  0  0  0  0
    4.3834   -0.8194    3.5284 C   0  0  0  0  0  0  0  0  0  0  0  0
    5.3036   -1.1708    2.5501 C   0  0  0  0  0  0  0  0  0  0  0  0
    2.2116   -1.8802    2.9764 C   0  0  0  0  0  0  0  0  0  0  0  0
    1.9159   -0.9501    1.9829 C   0  0  0  0  0  0  0  0  0  0  0  0
    0.9720   -1.2189    1.0206 C   0  0  0  0  0  0  0  0  0  0  0  0
    0.2817   -2.4311    1.0207 C   0  0  0  0  0  0  0  0  0  0  0  0
   -0.6583   -2.5769    0.0432 O   0  0  0  0  0  0  0  0  0  0  0  0
   -1.6233   -3.6033    0.1625 C   0  0  0  0  0  0  0  0  0  0  0  0
   -2.5868   -3.3682    1.3215 C   0  0  0  0  0  0  0  0  0  0  0  0
    0.6077   -3.3816    1.9795 C   0  0  0  0  0  0  0  0  0  0  0  0
    1.5613   -3.1013    2.9454 C   0  0  0  0  0  0  0  0  0  0  0  0
    3.5022   -2.5484    5.0731 C   0  0  0  0  0  0  0  0  0  0  0  0
    3.2334   -2.4444    6.4277 C   0  0  0  0  0  0  0  0  0  0  0  0
    3.5972   -3.4466    7.3127 C   0  0  0  0  0  0  0  0  0  0  0  0
    4.2533   -4.5814    6.8513 C   0  0  0  0  0  0  0  0  0  0  0  0
    4.6806   -5.6238    7.6139 O   0  0  0  0  0  0  0  0  0  0  0  0
    4.3929   -5.6515    8.9969 C   0  0  0  0  0  0  0  0  0  0  0  0
    2.9532   -6.0646    9.2904 C   0  0  0  0  0  0  0  0  0  0  0  0
    4.5352   -4.6837    5.4866 C   0  0  0  0  0  0  0  0  0  0  0  0
    4.1689   -3.6827    4.6159 C   0  0  0  0  0  0  0  0  0  0  0  0
    1.1076   -0.0972    5.0388 C   0  0  0  0  0  0  0  0  0  0  0  0
    0.2239   -1.1763    5.1285 C   0  0  0  0  0  0  0  0  0  0  0  0
   -1.1433   -0.9960    4.9698 C   0  0  0  0  0  0  0  0  0  0  0  0
   -2.0461   -2.0959    4.9233 C   0  0  0  0  0  0  0  0  0  0  0  0
   -3.3319   -1.9458    4.5052 C   0  0  0  0  0  0  0  0  0  0  0  0
   -3.7550   -0.6730    4.0620 C   0  0  0  0  0  0  0  0  0  0  0  0
   -4.9028   -0.2849    3.2990 C   0  0  0  0  0  0  0  0  0  0  0  0
   -4.7918    1.0501    2.9252 C   0  0  0  0  0  0  0  0  0  0  0  0
   -3.5011    1.6346    3.4396 C   0  0  0  0  0  0  0  0  0  0  0  0
   -2.5588    1.8335    2.2493 C   0  0  0  0  0  0  0  0  0  0  0  0
   -2.5627    0.9011    1.2207 C   0  0  0  0  0  0  0  0  0  0  0  0
   -1.7190    1.0084    0.1322 C   0  0  0  0  0  0  0  0  0  0  0  0
   -0.8157    2.0626    0.0587 C   0  0  0  0  0  0  0  0  0  0  0  0
    0.0601    2.2697   -0.9622 O   0  0  0  0  0  0  0  0  0  0  0  0
    0.0016    1.4190   -2.0909 C   0  0  0  0  0  0  0  0  0  0  0  0
    1.0573    1.8795   -3.0848 C   0  0  0  0  0  0  0  0  0  0  0  0
   -0.7858    2.9892    1.1011 C   0  0  0  0  0  0  0  0  0  0  0  0
   -1.6440    2.8765    2.1759 C   0  0  0  0  0  0  0  0  0  0  0  0
   -3.7703    2.8826    4.2411 C   0  0  0  0  0  0  0  0  0  0  0  0
   -3.7509    2.8705    5.6264 C   0  0  0  0  0  0  0  0  0  0  0  0
   -4.0422    4.0093    6.3596 C   0  0  0  0  0  0  0  0  0  0  0  0
   -4.3775    5.1908    5.7091 C   0  0  0  0  0  0  0  0  0  0  0  0
   -4.6991    6.3697    6.3080 O   0  0  0  0  0  0  0  0  0  0  0  0
   -4.6094    6.4961    7.7121 C   0  0  0  0  0  0  0  0  0  0  0  0
   -3.1717    6.6603    8.1976 C   0  0  0  0  0  0  0  0  0  0  0  0
   -4.4215    5.1981    4.3126 C   0  0  0  0  0  0  0  0  0  0  0  0
   -4.1274    4.0622    3.5929 C   0  0  0  0  0  0  0  0  0  0  0  0
   -2.9363    0.4452    4.1988 C   0  0  0  0  0  0  0  0  0  0  0  0
   -1.6364    0.3295    4.7271 C   0  0  0  0  0  0  0  0  0  0  0  0
   -0.7847    1.4167    4.9348 C   0  0  0  0  0  0  0  0  0  0  0  0
    0.5813    1.2367    5.0916 C   0  0  0  0  0  0  0  0  0  0  0  0
    1.4760    2.3434    5.1553 C   0  0  0  0  0  0  0  0  0  0  0  0
    2.8094    2.1866    4.9465 C   0  0  0  0  0  0  0  0  0  0  0  0
   -5.7328    1.4443    1.9923 C   0  0  0  0  0  0  0  0  0  0  0  0
   -6.5535    0.3972    1.5906 C   0  0  0  0  0  0  0  0  0  0  0  0
   -6.1942   -1.0739    2.4842 S   0  0  0  0  0  0  0  0  0  0  0  0
   -7.3454    0.3802    0.4088 C   0  0  0  0  0  0  0  0  0  0  0  0
   -7.7935   -0.8269   -0.1560 C   0  0  0  0  0  0  0  0  0  0  0  0
   -7.7623   -1.9175    0.6650 O   0  0  0  0  0  0  0  0  0  0  0  0
   -7.2212   -3.1500    0.1937 C   0  0  0  0  0  0  0  0  0  0  0  0
   -5.8980   -2.9875   -0.5401 C   0  0  0  0  0  0  0  0  0  0  0  0
   -8.1599   -0.8962   -1.5133 C   0  0  0  0  0  0  0  0  0  0  0  0
   -8.5711   -2.0791   -2.0828 O   0  0  0  0  0  0  0  0  0  0  0  0
   -9.9092   -2.4442   -1.7493 C   0  0  0  0  0  0  0  0  0  0  0  0
  -10.9395   -1.5412   -2.4158 C   0  0  0  0  0  0  0  0  0  0  0  0
   -7.9234    0.1938   -2.3570 C   0  0  0  0  0  0  0  0  0  0  0  0
   -7.7228    1.4719   -1.7619 C   0  0  0  0  0  0  0  0  0  0  0  0
   -7.5084    1.5783   -0.3642 C   0  0  0  0  0  0  0  0  0  0  0  0
   -7.4148    2.7862    0.2054 N   0  0  0  0  0  0  0  0  0  0  0  0
   -7.4970    3.8447   -0.5638 C   0  0  0  0  0  0  0  0  0  0  0  0
   -7.7017    3.7348   -1.9447 C   0  0  0  0  0  0  0  0  0  0  0  0
   -7.8279    2.5689   -2.5262 N   0  0  0  0  0  0  0  0  0  0  0  0
   -7.8458    0.0269   -3.7711 C   0  0  0  0  0  0  0  0  0  0  0  0
   -6.8835    0.6494   -4.5134 C   0  0  0  0  0  0  0  0  0  0  0  0
   -5.6403    1.2105   -3.9264 C   0  0  0  0  0  0  0  0  0  0  0  0
   -5.3218    1.2895   -2.7570 O   0  0  0  0  0  0  0  0  0  0  0  0
   -4.7682    1.5194   -5.0740 C   0  0  0  0  0  0  0  0  0  0  0  0
   -3.5001    2.0215   -5.0544 C   0  0  0  0  0  0  0  0  0  0  0  0
   -2.8131    2.2033   -6.2745 C   0  0  0  0  0  0  0  0  0  0  0  0
   -1.5005    2.7157   -6.3095 C   0  0  0  0  0  0  0  0  0  0  0  0
   -0.8374    2.8708   -7.4948 C   0  0  0  0  0  0  0  0  0  0  0  0
   -1.4858    2.5083   -8.6829 C   0  0  0  0  0  0  0  0  0  0  0  0
   -0.8070    2.6528   -9.8378 F   0  0  0  0  0  0  0  0  0  0  0  0
   -2.7605    2.0151   -8.7060 C   0  0  0  0  0  0  0  0  0  0  0  0
   -3.4607    1.8514   -7.4943 C   0  0  0  0  0  0  0  0  0  0  0  0
   -4.7801    1.3376   -7.4819 C   0  0  0  0  0  0  0  0  0  0  0  0
   -5.4279    1.1737   -6.2859 C   0  0  0  0  0  0  0  0  0  0  0  0
   -6.7537    0.6565   -5.9539 C   0  0  0  0  0  0  0  0  0  0  0  0
   -7.7274    0.2998   -6.8519 C   0  0  0  0  0  0  0  0  0  0  0  0
   -7.5667    0.3553   -8.2506 C   0  0  0  0  0  0  0  0  0  0  0  0
   -7.4819    0.3749   -9.3956 N   0  0  0  0  0  0  0  0  0  0  0  0
   -9.0123   -0.1539   -6.4895 C   0  0  0  0  0  0  0  0  0  0  0  0
  -10.0750   -0.5261   -6.2622 N   0  0  0  0  0  0  0  0  0  0  0  0
    9.3619    1.6473   -2.9150 H   0  0  0  0  0  0  0  0  0  0  0  0
    3.5964    1.1416   -5.2147 H   0  0  0  0  0  0  0  0  0  0  0  0
    2.1081    1.5699   -7.1424 H   0  0  0  0  0  0  0  0  0  0  0  0
    1.8065    2.2256   -9.5270 H   0  0  0  0  0  0  0  0  0  0  0  0
    6.0294    2.5943   -9.9911 H   0  0  0  0  0  0  0  0  0  0  0  0
    7.5281    2.1479   -8.1119 H   0  0  0  0  0  0  0  0  0  0  0  0
    6.9352   -3.1063   -1.4879 H   0  0  0  0  0  0  0  0  0  0  0  0
    7.1214   -3.1151   -3.2617 H   0  0  0  0  0  0  0  0  0  0  0  0
    9.4875   -2.3124   -2.9857 H   0  0  0  0  0  0  0  0  0  0  0  0
    9.2908   -2.3539   -1.2309 H   0  0  0  0  0  0  0  0  0  0  0  0
    9.2267   -3.8570   -2.1610 H   0  0  0  0  0  0  0  0  0  0  0  0
    4.6974   -1.3292   -1.7627 H   0  0  0  0  0  0  0  0  0  0  0  0
    4.0155   -0.8168   -0.2019 H   0  0  0  0  0  0  0  0  0  0  0  0
    3.5791   -3.1871    0.4064 H   0  0  0  0  0  0  0  0  0  0  0  0
    2.7694   -2.7659   -1.1029 H   0  0  0  0  0  0  0  0  0  0  0  0
    4.2598   -3.7230   -1.1369 H   0  0  0  0  0  0  0  0  0  0  0  0
    9.9630    4.1497    0.3788 H   0  0  0  0  0  0  0  0  0  0  0  0
    8.9260    3.5747    2.6287 H   0  0  0  0  0  0  0  0  0  0  0  0
    5.3924   -2.1412    2.1016 H   0  0  0  0  0  0  0  0  0  0  0  0
    2.4101    0.0101    1.9801 H   0  0  0  0  0  0  0  0  0  0  0  0
    0.7316   -0.4853    0.2696 H   0  0  0  0  0  0  0  0  0  0  0  0
   -2.1649   -3.5735   -0.7871 H   0  0  0  0  0  0  0  0  0  0  0  0
   -1.1395   -4.5844    0.2509 H   0  0  0  0  0  0  0  0  0  0  0  0
   -3.0538   -2.3921    1.2190 H   0  0  0  0  0  0  0  0  0  0  0  0
   -2.0627   -3.3876    2.2737 H   0  0  0  0  0  0  0  0  0  0  0  0
   -3.3575   -4.1337    1.3228 H   0  0  0  0  0  0  0  0  0  0  0  0
    0.1225   -4.3449    1.9997 H   0  0  0  0  0  0  0  0  0  0  0  0
    1.7791   -3.8517    3.6914 H   0  0  0  0  0  0  0  0  0  0  0  0
    2.7323   -1.5678    6.8109 H   0  0  0  0  0  0  0  0  0  0  0  0
    3.3661   -3.3175    8.3583 H   0  0  0  0  0  0  0  0  0  0  0  0
    4.6248   -4.6848    9.4607 H   0  0  0  0  0  0  0  0  0  0  0  0
    5.0813   -6.3990    9.4013 H   0  0  0  0  0  0  0  0  0  0  0  0
    2.2497   -5.3489    8.8720 H   0  0  0  0  0  0  0  0  0  0  0  0
    2.7538   -7.0388    8.8512 H   0  0  0  0  0  0  0  0  0  0  0  0
    2.8007   -6.1234   10.3645 H   0  0  0  0  0  0  0  0  0  0  0  0
    5.0522   -5.5636    5.1373 H   0  0  0  0  0  0  0  0  0  0  0  0
    4.3980   -3.7815    3.5659 H   0  0  0  0  0  0  0  0  0  0  0  0
    0.6150   -2.1743    5.2531 H   0  0  0  0  0  0  0  0  0  0  0  0
   -1.6650   -3.0724    5.1870 H   0  0  0  0  0  0  0  0  0  0  0  0
   -4.0093   -2.7839    4.4398 H   0  0  0  0  0  0  0  0  0  0  0  0
   -3.2440    0.0649    1.2517 H   0  0  0  0  0  0  0  0  0  0  0  0
   -1.7766    0.2601   -0.6418 H   0  0  0  0  0  0  0  0  0  0  0  0
   -0.9997    1.4693   -2.5434 H   0  0  0  0  0  0  0  0  0  0  0  0
    0.1950    0.3771   -1.8006 H   0  0  0  0  0  0  0  0  0  0  0  0
    0.9067    2.9279   -3.3297 H   0  0  0  0  0  0  0  0  0  0  0  0
    2.0499    1.7652   -2.6570 H   0  0  0  0  0  0  0  0  0  0  0  0
    0.9871    1.2826   -3.9908 H   0  0  0  0  0  0  0  0  0  0  0  0
   -0.0782    3.8016    1.0453 H   0  0  0  0  0  0  0  0  0  0  0  0
   -1.6051    3.6240    2.9535 H   0  0  0  0  0  0  0  0  0  0  0  0
   -3.5024    1.9600    6.1521 H   0  0  0  0  0  0  0  0  0  0  0  0
   -4.0095    3.9504    7.4362 H   0  0  0  0  0  0  0  0  0  0  0  0
   -5.1814    7.4003    7.9391 H   0  0  0  0  0  0  0  0  0  0  0  0
   -5.0958    5.6483    8.2103 H   0  0  0  0  0  0  0  0  0  0  0  0
   -2.7186    7.5246    7.7186 H   0  0  0  0  0  0  0  0  0  0  0  0
   -3.1629    6.8079    9.2740 H   0  0  0  0  0  0  0  0  0  0  0  0
   -2.5768    5.7828    7.9560 H   0  0  0  0  0  0  0  0  0  0  0  0
   -4.6960    6.1156    3.8164 H   0  0  0  0  0  0  0  0  0  0  0  0
   -4.1667    4.0877    2.5143 H   0  0  0  0  0  0  0  0  0  0  0  0
   -1.1870    2.4170    4.9131 H   0  0  0  0  0  0  0  0  0  0  0  0
    1.0539    3.3272    5.3004 H   0  0  0  0  0  0  0  0  0  0  0  0
    3.4869    3.0266    4.9313 H   0  0  0  0  0  0  0  0  0  0  0  0
   -5.8025    2.4212    1.5559 H   0  0  0  0  0  0  0  0  0  0  0  0
   -7.0807   -3.7249    1.1131 H   0  0  0  0  0  0  0  0  0  0  0  0
   -7.9402   -3.6731   -0.4436 H   0  0  0  0  0  0  0  0  0  0  0  0
   -5.2060   -2.4009    0.0584 H   0  0  0  0  0  0  0  0  0  0  0  0
   -5.4667   -3.9677   -0.7227 H   0  0  0  0  0  0  0  0  0  0  0  0
   -6.0446   -2.4897   -1.4958 H   0  0  0  0  0  0  0  0  0  0  0  0
  -10.0464   -2.4298   -0.6599 H   0  0  0  0  0  0  0  0  0  0  0  0
  -10.0105   -3.4707   -2.1104 H   0  0  0  0  0  0  0  0  0  0  0  0
  -10.8233   -1.5594   -3.4967 H   0  0  0  0  0  0  0  0  0  0  0  0
  -10.8272   -0.5148   -2.0712 H   0  0  0  0  0  0  0  0  0  0  0  0
  -11.9383   -1.8871   -2.1649 H   0  0  0  0  0  0  0  0  0  0  0  0
   -7.4284    4.8046   -0.0702 H   0  0  0  0  0  0  0  0  0  0  0  0
   -7.7987    4.6050   -2.5796 H   0  0  0  0  0  0  0  0  0  0  0  0
   -8.5112   -0.6927   -4.2276 H   0  0  0  0  0  0  0  0  0  0  0  0
   -3.0280    2.2776   -4.1175 H   0  0  0  0  0  0  0  0  0  0  0  0
   -1.0242    2.9845   -5.3786 H   0  0  0  0  0  0  0  0  0  0  0  0
    0.1648    3.2675   -7.5408 H   0  0  0  0  0  0  0  0  0  0  0  0
   -3.2274    1.7523   -9.6423 H   0  0  0  0  0  0  0  0  0  0  0  0
   -5.2400    1.0764   -8.4217 H   0  0  0  0  0  0  0  0  0  0  0  0
  1  2  2  0  0  0  0
  2  3  1  0  0  0  0
  3  4  2  0  0  0  0
  3  5  1  0  0  0  0
  5  6  2  0  0  0  0
  6  7  1  0  0  0  0
  7  8  2  0  0  0  0
  8  9  1  0  0  0  0
  9 10  2  0  0  0  0
 10 11  1  0  0  0  0
 10 12  1  0  0  0  0
 12 13  2  0  0  0  0
 13 14  1  0  0  0  0
 14 15  2  0  0  0  0
 15 16  1  0  0  0  0
 16 17  2  0  0  0  0
 17 18  1  0  0  0  0
 18 19  3  0  0  0  0
 17 20  1  0  0  0  0
 20 21  3  0  0  0  0
  1 22  1  0  0  0  0
 22 23  2  0  0  0  0
 23 24  1  0  0  0  0
 24 25  1  0  0  0  0
 25 26  1  0  0  0  0
 23 27  1  0  0  0  0
 27 28  1  0  0  0  0
 28 29  1  0  0  0  0
 29 30  1  0  0  0  0
 27 31  2  0  0  0  0
 31 32  1  0  0  0  0
 32 33  2  0  0  0  0
 33 34  1  0  0  0  0
 34 35  2  0  0  0  0
 35 36  1  0  0  0  0
 36 37  2  0  0  0  0
 31 38  1  0  0  0  0
 38 39  1  0  0  0  0
 39 40  1  0  0  0  0
 40 41  1  0  0  0  0
 41 42  2  0  0  0  0
 42 43  1  0  0  0  0
 43 44  1  0  0  0  0
 44 45  1  0  0  0  0
 43 46  1  0  0  0  0
 46 47  2  0  0  0  0
 47 48  1  0  0  0  0
 48 49  2  0  0  0  0
 49 50  1  0  0  0  0
 50 51  1  0  0  0  0
 51 52  1  0  0  0  0
 49 53  1  0  0  0  0
 53 54  2  0  0  0  0
 43 55  1  0  0  0  0
 55 56  2  0  0  0  0
 56 57  1  0  0  0  0
 57 58  2  0  0  0  0
 58 59  1  0  0  0  0
 59 60  1  0  0  0  0
 60 61  1  0  0  0  0
 58 62  1  0  0  0  0
 62 63  2  0  0  0  0
 42 64  1  0  0  0  0
 64 65  2  0  0  0  0
 65 66  1  0  0  0  0
 66 67  2  0  0  0  0
 67 68  1  0  0  0  0
 68 69  2  0  0  0  0
 69 70  1  0  0  0  0
 70 71  2  0  0  0  0
 71 72  1  0  0  0  0
 72 73  1  0  0  0  0
 73 74  2  0  0  0  0
 74 75  1  0  0  0  0
 75 76  2  0  0  0  0
 76 77  1  0  0  0  0
 77 78  1  0  0  0  0
 78 79  1  0  0  0  0
 76 80  1  0  0  0  0
 80 81  2  0  0  0  0
 72 82  1  0  0  0  0
 82 83  2  0  0  0  0
 83 84  1  0  0  0  0
 84 85  2  0  0  0  0
 85 86  1  0  0  0  0
 86 87  1  0  0  0  0
 87 88  1  0  0  0  0
 85 89  1  0  0  0  0
 89 90  2  0  0  0  0
 72 91  1  0  0  0  0
 91 92  2  0  0  0  0
 92 93  1  0  0  0  0
 93 94  2  0  0  0  0
 94 95  1  0  0  0  0
 95 96  2  0  0  0  0
 71 97  1  0  0  0  0
 97 98  2  0  0  0  0
 98 99  1  0  0  0  0
 98100  1  0  0  0  0
100101  2  0  0  0  0
101102  1  0  0  0  0
102103  1  0  0  0  0
103104  1  0  0  0  0
101105  1  0  0  0  0
105106  1  0  0  0  0
106107  1  0  0  0  0
107108  1  0  0  0  0
105109  2  0  0  0  0
109110  1  0  0  0  0
110111  2  0  0  0  0
111112  1  0  0  0  0
112113  2  0  0  0  0
113114  1  0  0  0  0
114115  2  0  0  0  0
109116  1  0  0  0  0
116117  2  0  0  0  0
117118  1  0  0  0  0
118119  2  0  0  0  0
118120  1  0  0  0  0
120121  2  0  0  0  0
121122  1  0  0  0  0
122123  2  0  0  0  0
123124  1  0  0  0  0
124125  2  0  0  0  0
125126  1  0  0  0  0
125127  1  0  0  0  0
127128  2  0  0  0  0
128129  1  0  0  0  0
129130  2  0  0  0  0
130131  1  0  0  0  0
131132  2  0  0  0  0
132133  1  0  0  0  0
133134  3  0  0  0  0
132135  1  0  0  0  0
135136  3  0  0  0  0
 16  2  1  0  0  0  0
 33 22  1  0  0  0  0
 45 38  2  0  0  0  0
 54 46  1  0  0  0  0
 63 55  1  0  0  0  0
 94 64  1  0  0  0  0
111100  1  0  0  0  0
131117  1  0  0  0  0
 15  5  1  0  0  0  0
 37 32  1  0  0  0  0
 44 40  2  0  0  0  0
 92 66  1  0  0  0  0
115110  1  0  0  0  0
130120  1  0  0  0  0
 13  7  1  0  0  0  0
 96 41  1  0  0  0  0
128122  1  0  0  0  0
 91 69  1  0  0  0  0
 99 70  1  0  0  0  0
 81 73  1  0  0  0  0
 90 82  1  0  0  0  0
  1137  1  0  0  0  0
  6138  1  0  0  0  0
  8139  1  0  0  0  0
  9140  1  0  0  0  0
 12141  1  0  0  0  0
 14142  1  0  0  0  0
 25143  1  0  0  0  0
 25144  1  0  0  0  0
 26145  1  0  0  0  0
 26146  1  0  0  0  0
 26147  1  0  0  0  0
 29148  1  0  0  0  0
 29149  1  0  0  0  0
 30150  1  0  0  0  0
 30151  1  0  0  0  0
 30152  1  0  0  0  0
 35153  1  0  0  0  0
 36154  1  0  0  0  0
 45155  1  0  0  0  0
 47156  1  0  0  0  0
 48157  1  0  0  0  0
 51158  1  0  0  0  0
 51159  1  0  0  0  0
 52160  1  0  0  0  0
 52161  1  0  0  0  0
 52162  1  0  0  0  0
 53163  1  0  0  0  0
 54164  1  0  0  0  0
 56165  1  0  0  0  0
 57166  1  0  0  0  0
 60167  1  0  0  0  0
 60168  1  0  0  0  0
 61169  1  0  0  0  0
 61170  1  0  0  0  0
 61171  1  0  0  0  0
 62172  1  0  0  0  0
 63173  1  0  0  0  0
 65174  1  0  0  0  0
 67175  1  0  0  0  0
 68176  1  0  0  0  0
 74177  1  0  0  0  0
 75178  1  0  0  0  0
 78179  1  0  0  0  0
 78180  1  0  0  0  0
 79181  1  0  0  0  0
 79182  1  0  0  0  0
 79183  1  0  0  0  0
 80184  1  0  0  0  0
 81185  1  0  0  0  0
 83186  1  0  0  0  0
 84187  1  0  0  0  0
 87188  1  0  0  0  0
 87189  1  0  0  0  0
 88190  1  0  0  0  0
 88191  1  0  0  0  0
 88192  1  0  0  0  0
 89193  1  0  0  0  0
 90194  1  0  0  0  0
 93195  1  0  0  0  0
 95196  1  0  0  0  0
 96197  1  0  0  0  0
 97198  1  0  0  0  0
103199  1  0  0  0  0
103200  1  0  0  0  0
104201  1  0  0  0  0
104202  1  0  0  0  0
104203  1  0  0  0  0
107204  1  0  0  0  0
107205  1  0  0  0  0
108206  1  0  0  0  0
108207  1  0  0  0  0
108208  1  0  0  0  0
113209  1  0  0  0  0
114210  1  0  0  0  0
116211  1  0  0  0  0
121212  1  0  0  0  0
123213  1  0  0  0  0
124214  1  0  0  0  0
127215  1  0  0  0  0
129216  1  0  0  0  0
M  END
