185

C        -10.35880        4.91290       -2.48230
C        -10.17300        6.23410       -2.22760
C         -8.84570        6.90700       -2.19400
O         -7.78970        6.49080       -2.62030
C         -9.11520        8.27360       -1.70370
C         -8.22650        9.26070       -1.39210
C         -8.71010       10.50750       -0.93610
C         -7.83570       11.55520       -0.58230
C         -8.31690       12.75640       -0.14110
C         -9.70350       12.93660       -0.04390
F        -10.15800       14.12570        0.39430
C        -10.59520       11.95520       -0.37500
C        -10.11670       10.71060       -0.83030
C        -11.01450        9.67420       -1.17520
C        -10.52150        8.46900       -1.60160
C        -11.19660        7.23250       -1.98630
C        -12.55370        7.05220       -2.05230
C        -13.20000        5.84760       -2.39950
N        -13.80630        4.90830       -2.66350
C        -13.50080        8.06360       -1.78910
N        -14.32090        8.84370       -1.59560
C         -9.33640        3.91830       -2.36340
C         -9.37590        2.78490       -3.18830
O        -10.31890        2.85070       -4.14700
C        -10.89760        1.70460       -4.76060
C        -11.58560        0.79870       -3.75090
C         -8.39450        1.76700       -3.05810
O         -8.41110        0.73250       -3.96360
C         -7.27970        0.61910       -4.81880
C         -7.08100        1.85050       -5.69510
C         -7.43090        1.83850       -2.05530
C         -7.37190        2.99620       -1.22540
C         -8.34350        4.02020       -1.35310
N         -8.37280        5.02810       -0.46560
C         -7.41720        5.09720        0.42290
C         -6.38310        4.14810        0.46720
N         -6.39550        3.09820       -0.31190
C         -6.45960        0.79430       -1.83100
C         -6.66230       -0.57360       -1.83460
C         -7.96080       -1.23490       -1.96460
C         -8.09800       -2.35370       -2.77950
C         -9.31920       -2.99430       -2.86890
C        -10.40180       -2.53800       -2.13900
C        -10.27860       -1.42960       -1.30880
C        -11.43750       -0.97350       -0.46870
C        -11.48650       -1.76320        0.84070
C         -9.05390       -0.78510       -1.23090
C         -5.45870       -1.26540       -1.59650
S         -5.08470       -2.96390       -1.41380
C         -3.43910       -2.53890       -1.08020
C         -2.23050       -3.15570       -0.71570
C         -1.93070       -4.49140       -0.36770
C         -0.62330       -4.80080        0.14010
N         -0.50630       -6.07040        0.49450
S         -1.91550       -6.81570        0.20780
N         -2.73120       -5.54530       -0.37790
C          0.36740       -3.79370        0.13420
C          1.74490       -3.84460        0.39200
S          2.93140       -4.97420        0.95310
C          4.16320       -3.76080        0.67720
C          5.54600       -3.77450        0.84760
C          6.27180       -4.95760        1.32860
C          7.14190       -5.63810        0.48090
C          7.81260       -6.75340        0.94180
C          7.62360       -7.19320        2.24060
C          6.74940       -6.53290        3.09220
C          6.50140       -7.03390        4.48480
C          5.27060       -7.94220        4.51190
C          6.06630       -5.42180        2.62040
C          6.13050       -2.56330        0.46400
S          4.93720       -1.43480       -0.17240
C          3.66610       -2.54970        0.17610
C          2.27580       -2.60040        0.03100
N          1.27190       -1.77500       -0.40220
C          0.08500       -2.47460       -0.32510
C         -1.25930       -2.12160       -0.60730
N         -1.87690       -0.90560       -0.85900
C         -3.19550       -1.16520       -1.12960
C         -4.35470       -0.42980       -1.41040
S         -4.80110        1.23670       -1.49000
C         -1.53650        0.41150       -0.36670
C         -1.96470        0.57730        1.09080
C          1.59210       -0.56220       -1.11990
C          2.01870        0.56660       -0.18060
C          7.47920       -2.20890        0.69980
S          8.39050       -3.17300        1.82700
C          9.80310       -2.16930        1.64480
C          9.55390       -1.12200        0.75020
C         10.54450       -0.08560        0.40860
O         11.54570        0.13520        1.06950
C         10.20080        0.65820       -0.80000
C         11.07070        1.45300       -1.50180
C         12.49120        1.76330       -1.20450
C         12.59560        2.96810       -0.26430
S         10.28600        2.14540       -2.88250
C          8.77890        1.38140       -2.50640
C          7.58320        1.61960       -3.35520
C          6.72210        2.74500       -2.77400
C          8.89080        0.61430       -1.37360
C          7.81220       -0.17950       -0.79250
O          6.64400       -0.05690       -1.14780
C          8.25070       -1.13900        0.21270
C         11.06080       -2.43740        2.21070
C         11.42660       -3.40030        3.11280
C         10.52570       -4.28330        3.86960
O          9.32810       -4.44150        3.71390
C         11.36150       -4.93070        4.89450
C         10.98440       -5.80010        5.87670
C         11.96050       -6.29090        6.77210
C         11.62910       -7.19310        7.80350
C         12.58220       -7.65720        8.66680
C         13.90510       -7.22070        8.51410
F         14.82890       -7.68770        9.37360
C         14.28030       -6.34720        7.53150
C         13.31230       -5.86100        6.63150
C         13.67330       -4.96290        5.59940
C         12.71210       -4.50790        4.73730
C         12.78170       -3.61300        3.58530
C         13.93150       -3.14620        3.00430
C         14.00480       -2.42580        1.79140
N         14.16410       -1.89440        0.78600
C         15.22220       -3.39350        3.51640
N         16.29480       -3.56070        3.89030
H        -11.33790        4.54130       -2.75350
H         -7.16420        9.08960       -1.48390
H         -6.77150       11.39290       -0.66640
H         -7.66170       13.56780        0.13360
H        -11.65640       12.12900       -0.28810
H        -12.07270        9.86130       -1.08800
H        -11.62900        2.13880       -5.44810
H        -10.15690        1.14040       -5.33140
H        -12.29030        1.37150       -3.15220
H        -10.85000        0.33580       -3.09810
H        -12.12340        0.01490       -4.27610
H         -6.37020        0.42640       -4.23900
H         -7.50040       -0.26150       -5.42620
H         -7.97190        2.05130       -6.28580
H         -6.86890        2.72440       -5.08150
H         -6.24420        1.68460       -6.36770
H         -7.47550        5.90890        1.13530
H         -5.56560        4.22300        1.17040
H         -7.25250       -2.70820       -3.34950
H         -9.42590       -3.85750       -3.50910
H        -11.35340       -3.04470       -2.21030
H        -12.37120       -1.12310       -1.01450
H        -11.33950        0.09080       -0.24470
H        -10.56750       -1.61780        1.40440
H        -11.59760       -2.82590        0.63810
H        -12.32470       -1.43580        1.45120
H         -8.94030        0.07180       -0.58060
H          7.29040       -5.28400       -0.52920
H          8.48960       -7.28140        0.28600
H          8.16410       -8.05860        2.59690
H          6.34260       -6.18720        5.15530
H          7.37140       -7.59210        4.83630
H          4.39400       -7.40230        4.16160
H          5.08040       -8.29800        5.52190
H          5.42180       -8.80220        3.86320
H          5.38550       -4.89200        3.27080
H         -2.06780        1.13500       -0.99150
H         -0.47230        0.59240       -0.45380
H         -3.03940        0.44660        1.18920
H         -1.46600       -0.15920        1.71780
H         -1.70350        1.57230        1.44060
H          0.73830       -0.28480       -1.74020
H          2.42950       -0.78500       -1.79070
H          2.99330        0.34460        0.24440
H          1.31440        0.69400        0.63840
H          2.09300        1.49860       -0.73420
H         12.94740        0.90010       -0.71530
H         13.02290        1.97600       -2.13400
H         13.64060        3.19720       -0.07650
H         12.11730        3.84150       -0.70330
H         12.11580        2.73760        0.68300
H          6.98490        0.70670       -3.38750
H          7.89890        1.88110       -4.36700
H          5.87170        2.93230       -3.42380
H          6.35380        2.45490       -1.79370
H          7.30140        3.66090       -2.68100
H         11.83430       -1.75100        1.88480
H          9.95320       -6.10700        5.96890
H         10.60290       -7.51380        7.90180
H         12.34560       -8.34790        9.46050
H         15.30870       -6.03380        7.44280
H         14.70350       -4.65450        5.52200
