
  xtb     02072214573D
 energy: -299.873041372485 gnorm: 0.000785462631 xtb: 6.4.1 (unknown)
175194  0     0  0            999 V2000
   -2.4998   -0.4237  -10.5149 C   0  0  0  0  0  0  0  0  0  0  0  0
   -2.7634   -0.3530  -11.8595 C   0  0  0  0  0  0  0  0  0  0  0  0
   -3.8462    0.3897  -12.5410 C   0  0  0  0  0  0  0  0  0  0  0  0
   -4.6264    1.1980  -12.0790 O   0  0  0  0  0  0  0  0  0  0  0  0
   -3.8273   -0.0732  -13.9419 C   0  0  0  0  0  0  0  0  0  0  0  0
   -4.6647    0.2780  -14.9605 C   0  0  0  0  0  0  0  0  0  0  0  0
   -4.4775   -0.2999  -16.2356 C   0  0  0  0  0  0  0  0  0  0  0  0
   -5.3119    0.0259  -17.3241 C   0  0  0  0  0  0  0  0  0  0  0  0
   -5.1232   -0.5450  -18.5519 C   0  0  0  0  0  0  0  0  0  0  0  0
   -4.0804   -1.4663  -18.7175 C   0  0  0  0  0  0  0  0  0  0  0  0
   -3.9106   -2.0184  -19.9336 F   0  0  0  0  0  0  0  0  0  0  0  0
   -3.2422   -1.8168  -17.6962 C   0  0  0  0  0  0  0  0  0  0  0  0
   -3.4215   -1.2378  -16.4247 C   0  0  0  0  0  0  0  0  0  0  0  0
   -2.5680   -1.5788  -15.3494 C   0  0  0  0  0  0  0  0  0  0  0  0
   -2.7657   -1.0008  -14.1238 C   0  0  0  0  0  0  0  0  0  0  0  0
   -2.0612   -1.1449  -12.8531 C   0  0  0  0  0  0  0  0  0  0  0  0
   -0.8991   -1.8536  -12.6788 C   0  0  0  0  0  0  0  0  0  0  0  0
   -0.1415   -1.9315  -11.4915 C   0  0  0  0  0  0  0  0  0  0  0  0
    0.5514   -2.0351  -10.5804 N   0  0  0  0  0  0  0  0  0  0  0  0
   -0.2644   -2.5892  -13.7010 C   0  0  0  0  0  0  0  0  0  0  0  0
    0.3016   -3.2120  -14.4824 N   0  0  0  0  0  0  0  0  0  0  0  0
   -3.0339    0.2900   -9.4286 C   0  0  0  0  0  0  0  0  0  0  0  0
   -3.8341    1.4162   -9.3321 C   0  0  0  0  0  0  0  0  0  0  0  0
   -4.0872    1.8339   -8.0252 C   0  0  0  0  0  0  0  0  0  0  0  0
   -4.8206    3.0621   -7.7137 C   0  0  0  0  0  0  0  0  0  0  0  0
   -4.3401    3.9698   -6.7771 C   0  0  0  0  0  0  0  0  0  0  0  0
   -5.0305    5.1359   -6.5045 C   0  0  0  0  0  0  0  0  0  0  0  0
   -6.2214    5.4271   -7.1549 C   0  0  0  0  0  0  0  0  0  0  0  0
   -7.0193    6.6787   -6.9014 C   0  0  0  0  0  0  0  0  0  0  0  0
   -6.5807    7.5057   -5.6996 C   0  0  0  0  0  0  0  0  0  0  0  0
   -6.6885    4.5220   -8.1044 C   0  0  0  0  0  0  0  0  0  0  0  0
   -5.9997    3.3630   -8.3907 C   0  0  0  0  0  0  0  0  0  0  0  0
   -3.4995    0.9958   -7.0752 C   0  0  0  0  0  0  0  0  0  0  0  0
   -2.5838   -0.2661   -7.8259 S   0  0  0  0  0  0  0  0  0  0  0  0
   -3.5857    1.0623   -5.6545 C   0  0  0  0  0  0  0  0  0  0  0  0
   -4.6435    1.4757   -4.8615 C   0  0  0  0  0  0  0  0  0  0  0  0
   -5.9993    1.7525   -5.3327 C   0  0  0  0  0  0  0  0  0  0  0  0
   -6.6033    0.9250   -6.2764 C   0  0  0  0  0  0  0  0  0  0  0  0
   -7.9022    1.1693   -6.6751 C   0  0  0  0  0  0  0  0  0  0  0  0
   -8.6110    2.2291   -6.1364 C   0  0  0  0  0  0  0  0  0  0  0  0
   -8.0285    3.0568   -5.1861 C   0  0  0  0  0  0  0  0  0  0  0  0
   -8.8075    4.1660   -4.5419 C   0  0  0  0  0  0  0  0  0  0  0  0
   -9.3859    3.6985   -3.2048 C   0  0  0  0  0  0  0  0  0  0  0  0
   -6.7241    2.8070   -4.7900 C   0  0  0  0  0  0  0  0  0  0  0  0
   -4.2815    1.4830   -3.5001 C   0  0  0  0  0  0  0  0  0  0  0  0
   -5.1527    1.9240   -2.0506 S   0  0  0  0  0  0  0  0  0  0  0  0
   -3.7627    1.4947   -1.1139 C   0  0  0  0  0  0  0  0  0  0  0  0
   -3.3347    1.5110    0.2209 C   0  0  0  0  0  0  0  0  0  0  0  0
   -3.9713    2.0137    1.3757 C   0  0  0  0  0  0  0  0  0  0  0  0
   -3.2489    2.0207    2.6121 C   0  0  0  0  0  0  0  0  0  0  0  0
   -3.9407    2.5642    3.6014 N   0  0  0  0  0  0  0  0  0  0  0  0
   -5.3819    3.0248    3.0236 S   0  0  0  0  0  0  0  0  0  0  0  0
   -5.1765    2.5500    1.4888 N   0  0  0  0  0  0  0  0  0  0  0  0
   -1.9667    1.4326    2.6521 C   0  0  0  0  0  0  0  0  0  0  0  0
   -1.1129    1.1980    3.7387 C   0  0  0  0  0  0  0  0  0  0  0  0
   -1.0526    1.4929    5.4425 S   0  0  0  0  0  0  0  0  0  0  0  0
    0.4354    0.5806    5.5164 C   0  0  0  0  0  0  0  0  0  0  0  0
    1.2887    0.2557    6.5855 C   0  0  0  0  0  0  0  0  0  0  0  0
    1.0685    0.7591    7.9437 C   0  0  0  0  0  0  0  0  0  0  0  0
    2.0631    1.4750    8.6048 C   0  0  0  0  0  0  0  0  0  0  0  0
    1.8120    1.9983    9.8582 C   0  0  0  0  0  0  0  0  0  0  0  0
    0.5750    1.8215   10.4542 C   0  0  0  0  0  0  0  0  0  0  0  0
   -0.4303    1.1186    9.8033 C   0  0  0  0  0  0  0  0  0  0  0  0
   -1.7973    0.9809   10.4073 C   0  0  0  0  0  0  0  0  0  0  0  0
   -2.7262    2.0660    9.8584 C   0  0  0  0  0  0  0  0  0  0  0  0
   -0.1724    0.5935    8.5457 C   0  0  0  0  0  0  0  0  0  0  0  0
    2.3485   -0.5293    6.1642 C   0  0  0  0  0  0  0  0  0  0  0  0
    2.3120   -0.8207    4.4267 S   0  0  0  0  0  0  0  0  0  0  0  0
    0.8510    0.0892    4.2759 C   0  0  0  0  0  0  0  0  0  0  0  0
   -0.0320    0.4584    3.2534 C   0  0  0  0  0  0  0  0  0  0  0  0
   -0.1756    0.2518    1.9087 N   0  0  0  0  0  0  0  0  0  0  0  0
   -1.3516    0.8573    1.5009 C   0  0  0  0  0  0  0  0  0  0  0  0
   -2.0072    0.9897    0.2438 C   0  0  0  0  0  0  0  0  0  0  0  0
   -1.6381    0.7172   -1.0622 N   0  0  0  0  0  0  0  0  0  0  0  0
   -2.6950    1.0182   -1.8766 C   0  0  0  0  0  0  0  0  0  0  0  0
   -2.9852    1.0265   -3.2470 C   0  0  0  0  0  0  0  0  0  0  0  0
   -2.1712    0.6114   -4.7126 S   0  0  0  0  0  0  0  0  0  0  0  0
   -0.3723    0.3685   -1.6634 C   0  0  0  0  0  0  0  0  0  0  0  0
   -0.3483   -1.0817   -2.1474 C   0  0  0  0  0  0  0  0  0  0  0  0
    0.7414   -0.6409    1.2403 C   0  0  0  0  0  0  0  0  0  0  0  0
    2.0789    0.0361    0.9391 C   0  0  0  0  0  0  0  0  0  0  0  0
    3.3405   -1.1975    6.9275 C   0  0  0  0  0  0  0  0  0  0  0  0
    4.4177   -1.9041    6.4259 C   0  0  0  0  0  0  0  0  0  0  0  0
    5.1783   -2.5564    7.3973 C   0  0  0  0  0  0  0  0  0  0  0  0
    6.4033   -3.2956    7.0957 C   0  0  0  0  0  0  0  0  0  0  0  0
    7.5616   -3.0998    7.8446 C   0  0  0  0  0  0  0  0  0  0  0  0
    8.6814   -3.8726    7.6131 C   0  0  0  0  0  0  0  0  0  0  0  0
    8.6794   -4.8588    6.6319 C   0  0  0  0  0  0  0  0  0  0  0  0
    9.8932   -5.7087    6.3966 C   0  0  0  0  0  0  0  0  0  0  0  0
   10.7942   -5.0794    5.3320 C   0  0  0  0  0  0  0  0  0  0  0  0
    7.5420   -5.0138    5.8504 C   0  0  0  0  0  0  0  0  0  0  0  0
    6.4168   -4.2417    6.0735 C   0  0  0  0  0  0  0  0  0  0  0  0
    4.6691   -2.3707    8.6857 C   0  0  0  0  0  0  0  0  0  0  0  0
    3.2742   -1.3151    8.6543 S   0  0  0  0  0  0  0  0  0  0  0  0
    5.0941   -2.8497    9.9402 C   0  0  0  0  0  0  0  0  0  0  0  0
    5.8630   -3.9332   10.2657 C   0  0  0  0  0  0  0  0  0  0  0  0
    6.5619   -3.9461   11.5766 C   0  0  0  0  0  0  0  0  0  0  0  0
    6.3587   -3.2117   12.5179 O   0  0  0  0  0  0  0  0  0  0  0  0
    7.5980   -4.9924   11.4520 C   0  0  0  0  0  0  0  0  0  0  0  0
    8.6055   -5.3144   12.3138 C   0  0  0  0  0  0  0  0  0  0  0  0
    9.5256   -6.3245   11.9511 C   0  0  0  0  0  0  0  0  0  0  0  0
   10.5870   -6.6936   12.8024 C   0  0  0  0  0  0  0  0  0  0  0  0
   11.4804   -7.6621   12.4369 C   0  0  0  0  0  0  0  0  0  0  0  0
   11.3277   -8.2893   11.1934 C   0  0  0  0  0  0  0  0  0  0  0  0
   12.2190   -9.2380   10.8477 F   0  0  0  0  0  0  0  0  0  0  0  0
   10.3160   -7.9711   10.3309 C   0  0  0  0  0  0  0  0  0  0  0  0
    9.3841   -6.9791   10.6931 C   0  0  0  0  0  0  0  0  0  0  0  0
    8.3203   -6.6345    9.8267 C   0  0  0  0  0  0  0  0  0  0  0  0
    7.4387   -5.6605   10.2049 C   0  0  0  0  0  0  0  0  0  0  0  0
    6.2687   -5.1047    9.5308 C   0  0  0  0  0  0  0  0  0  0  0  0
    5.5642   -5.7258    8.5309 C   0  0  0  0  0  0  0  0  0  0  0  0
    4.3144   -5.2689    8.0728 C   0  0  0  0  0  0  0  0  0  0  0  0
    3.2805   -4.9441    7.6934 N   0  0  0  0  0  0  0  0  0  0  0  0
    5.9745   -6.9210    7.9109 C   0  0  0  0  0  0  0  0  0  0  0  0
    6.2714   -7.8885    7.3678 N   0  0  0  0  0  0  0  0  0  0  0  0
   -1.7733   -1.1701  -10.2146 H   0  0  0  0  0  0  0  0  0  0  0  0
   -5.4610    0.9882  -14.7943 H   0  0  0  0  0  0  0  0  0  0  0  0
   -6.1087    0.7382  -17.1712 H   0  0  0  0  0  0  0  0  0  0  0  0
   -5.7526   -0.3073  -19.3948 H   0  0  0  0  0  0  0  0  0  0  0  0
   -2.4487   -2.5289  -17.8606 H   0  0  0  0  0  0  0  0  0  0  0  0
   -1.7820   -2.2950  -15.5258 H   0  0  0  0  0  0  0  0  0  0  0  0
   -4.1999    1.9373  -10.1970 H   0  0  0  0  0  0  0  0  0  0  0  0
   -3.4093    3.7694   -6.2660 H   0  0  0  0  0  0  0  0  0  0  0  0
   -4.6254    5.8190   -5.7747 H   0  0  0  0  0  0  0  0  0  0  0  0
   -6.9676    7.3031   -7.7993 H   0  0  0  0  0  0  0  0  0  0  0  0
   -8.0671    6.3921   -6.7759 H   0  0  0  0  0  0  0  0  0  0  0  0
   -7.2636    8.3409   -5.5596 H   0  0  0  0  0  0  0  0  0  0  0  0
   -5.5818    7.9093   -5.8457 H   0  0  0  0  0  0  0  0  0  0  0  0
   -6.5861    6.9055   -4.7925 H   0  0  0  0  0  0  0  0  0  0  0  0
   -7.6095    4.7359   -8.6280 H   0  0  0  0  0  0  0  0  0  0  0  0
   -6.3810    2.6730   -9.1282 H   0  0  0  0  0  0  0  0  0  0  0  0
   -6.0592    0.0847   -6.6814 H   0  0  0  0  0  0  0  0  0  0  0  0
   -8.3676    0.5257   -7.4069 H   0  0  0  0  0  0  0  0  0  0  0  0
   -9.6276    2.4123   -6.4533 H   0  0  0  0  0  0  0  0  0  0  0  0
   -9.6209    4.4805   -5.1986 H   0  0  0  0  0  0  0  0  0  0  0  0
   -8.1537    5.0224   -4.3689 H   0  0  0  0  0  0  0  0  0  0  0  0
   -8.5870    3.3876   -2.5355 H   0  0  0  0  0  0  0  0  0  0  0  0
   -9.9455    4.5014   -2.7306 H   0  0  0  0  0  0  0  0  0  0  0  0
  -10.0528    2.8527   -3.3567 H   0  0  0  0  0  0  0  0  0  0  0  0
   -6.2571    3.4531   -4.0615 H   0  0  0  0  0  0  0  0  0  0  0  0
    3.0190    1.6324    8.1271 H   0  0  0  0  0  0  0  0  0  0  0  0
    2.5826    2.5552   10.3705 H   0  0  0  0  0  0  0  0  0  0  0  0
    0.3864    2.2379   11.4332 H   0  0  0  0  0  0  0  0  0  0  0  0
   -1.7358    1.0708   11.4933 H   0  0  0  0  0  0  0  0  0  0  0  0
   -2.2104   -0.0008   10.1674 H   0  0  0  0  0  0  0  0  0  0  0  0
   -3.7211    1.9671   10.2860 H   0  0  0  0  0  0  0  0  0  0  0  0
   -2.3394    3.0528   10.1026 H   0  0  0  0  0  0  0  0  0  0  0  0
   -2.8023    1.9880    8.7762 H   0  0  0  0  0  0  0  0  0  0  0  0
   -0.9428    0.0391    8.0296 H   0  0  0  0  0  0  0  0  0  0  0  0
    0.4309    0.5739   -0.9619 H   0  0  0  0  0  0  0  0  0  0  0  0
   -0.2314    1.0245   -2.5298 H   0  0  0  0  0  0  0  0  0  0  0  0
   -1.0443   -1.2135   -2.9713 H   0  0  0  0  0  0  0  0  0  0  0  0
   -0.6326   -1.7732   -1.3570 H   0  0  0  0  0  0  0  0  0  0  0  0
    0.6481   -1.3360   -2.4975 H   0  0  0  0  0  0  0  0  0  0  0  0
    0.2755   -1.0336    0.3415 H   0  0  0  0  0  0  0  0  0  0  0  0
    0.9251   -1.4847    1.9147 H   0  0  0  0  0  0  0  0  0  0  0  0
    2.6008    0.2601    1.8654 H   0  0  0  0  0  0  0  0  0  0  0  0
    1.9421    0.9704    0.3982 H   0  0  0  0  0  0  0  0  0  0  0  0
    2.7016   -0.6271    0.3455 H   0  0  0  0  0  0  0  0  0  0  0  0
    4.6532   -1.9317    5.3759 H   0  0  0  0  0  0  0  0  0  0  0  0
    7.5776   -2.3402    8.6129 H   0  0  0  0  0  0  0  0  0  0  0  0
    9.5682   -3.7193    8.2120 H   0  0  0  0  0  0  0  0  0  0  0  0
   10.4548   -5.8136    7.3277 H   0  0  0  0  0  0  0  0  0  0  0  0
    9.5851   -6.7024    6.0656 H   0  0  0  0  0  0  0  0  0  0  0  0
   11.6746   -5.6959    5.1680 H   0  0  0  0  0  0  0  0  0  0  0  0
   10.2574   -4.9823    4.3911 H   0  0  0  0  0  0  0  0  0  0  0  0
   11.1167   -4.0890    5.6461 H   0  0  0  0  0  0  0  0  0  0  0  0
    7.5275   -5.7631    5.0726 H   0  0  0  0  0  0  0  0  0  0  0  0
    5.5266   -4.3971    5.4816 H   0  0  0  0  0  0  0  0  0  0  0  0
    4.8098   -2.2344   10.7901 H   0  0  0  0  0  0  0  0  0  0  0  0
    8.7049   -4.8024   13.2593 H   0  0  0  0  0  0  0  0  0  0  0  0
   10.6844   -6.1950   13.7551 H   0  0  0  0  0  0  0  0  0  0  0  0
   12.2972   -7.9558   13.0769 H   0  0  0  0  0  0  0  0  0  0  0  0
   10.2252   -8.4786    9.3832 H   0  0  0  0  0  0  0  0  0  0  0  0
    8.2376   -7.1378    8.8766 H   0  0  0  0  0  0  0  0  0  0  0  0
  1  2  2  0  0  0  0
  2  3  1  0  0  0  0
  3  4  2  0  0  0  0
  3  5  1  0  0  0  0
  5  6  2  0  0  0  0
  6  7  1  0  0  0  0
  7  8  2  0  0  0  0
  8  9  1  0  0  0  0
  9 10  2  0  0  0  0
 10 11  1  0  0  0  0
 10 12  1  0  0  0  0
 12 13  2  0  0  0  0
 13 14  1  0  0  0  0
 14 15  2  0  0  0  0
 15 16  1  0  0  0  0
 16 17  2  0  0  0  0
 17 18  1  0  0  0  0
 18 19  3  0  0  0  0
 17 20  1  0  0  0  0
 20 21  3  0  0  0  0
  1 22  1  0  0  0  0
 22 23  2  0  0  0  0
 23 24  1  0  0  0  0
 24 25  1  0  0  0  0
 25 26  2  0  0  0  0
 26 27  1  0  0  0  0
 27 28  2  0  0  0  0
 28 29  1  0  0  0  0
 29 30  1  0  0  0  0
 28 31  1  0  0  0  0
 31 32  2  0  0  0  0
 24 33  2  0  0  0  0
 33 34  1  0  0  0  0
 33 35  1  0  0  0  0
 35 36  2  0  0  0  0
 36 37  1  0  0  0  0
 37 38  2  0  0  0  0
 38 39  1  0  0  0  0
 39 40  2  0  0  0  0
 40 41  1  0  0  0  0
 41 42  1  0  0  0  0
 42 43  1  0  0  0  0
 41 44  2  0  0  0  0
 36 45  1  0  0  0  0
 45 46  1  0  0  0  0
 46 47  1  0  0  0  0
 47 48  1  0  0  0  0
 48 49  1  0  0  0  0
 49 50  1  0  0  0  0
 50 51  2  0  0  0  0
 51 52  1  0  0  0  0
 52 53  1  0  0  0  0
 50 54  1  0  0  0  0
 54 55  1  0  0  0  0
 55 56  1  0  0  0  0
 56 57  1  0  0  0  0
 57 58  1  0  0  0  0
 58 59  1  0  0  0  0
 59 60  2  0  0  0  0
 60 61  1  0  0  0  0
 61 62  2  0  0  0  0
 62 63  1  0  0  0  0
 63 64  1  0  0  0  0
 64 65  1  0  0  0  0
 63 66  2  0  0  0  0
 58 67  2  0  0  0  0
 67 68  1  0  0  0  0
 68 69  1  0  0  0  0
 69 70  1  0  0  0  0
 70 71  1  0  0  0  0
 71 72  1  0  0  0  0
 72 73  1  0  0  0  0
 73 74  1  0  0  0  0
 74 75  1  0  0  0  0
 75 76  1  0  0  0  0
 76 77  1  0  0  0  0
 74 78  1  0  0  0  0
 78 79  1  0  0  0  0
 71 80  1  0  0  0  0
 80 81  1  0  0  0  0
 67 82  1  0  0  0  0
 82 83  2  0  0  0  0
 83 84  1  0  0  0  0
 84 85  1  0  0  0  0
 85 86  2  0  0  0  0
 86 87  1  0  0  0  0
 87 88  2  0  0  0  0
 88 89  1  0  0  0  0
 89 90  1  0  0  0  0
 88 91  1  0  0  0  0
 91 92  2  0  0  0  0
 84 93  2  0  0  0  0
 93 94  1  0  0  0  0
 93 95  1  0  0  0  0
 95 96  2  0  0  0  0
 96 97  1  0  0  0  0
 97 98  2  0  0  0  0
 97 99  1  0  0  0  0
 99100  2  0  0  0  0
100101  1  0  0  0  0
101102  2  0  0  0  0
102103  1  0  0  0  0
103104  2  0  0  0  0
104105  1  0  0  0  0
104106  1  0  0  0  0
106107  2  0  0  0  0
107108  1  0  0  0  0
108109  2  0  0  0  0
109110  1  0  0  0  0
110111  2  0  0  0  0
111112  1  0  0  0  0
112113  3  0  0  0  0
111114  1  0  0  0  0
114115  3  0  0  0  0
 16  2  1  0  0  0  0
 34 22  1  0  0  0  0
 77 35  1  0  0  0  0
 94 82  1  0  0  0  0
110 96  1  0  0  0  0
 15  5  1  0  0  0  0
 32 25  1  0  0  0  0
 44 37  1  0  0  0  0
 76 45  2  0  0  0  0
 92 85  1  0  0  0  0
109 99  1  0  0  0  0
 13  7  1  0  0  0  0
 75 47  2  0  0  0  0
107101  1  0  0  0  0
 73 48  2  0  0  0  0
 53 49  2  0  0  0  0
 72 54  2  0  0  0  0
 70 55  2  0  0  0  0
 69 57  2  0  0  0  0
 66 59  1  0  0  0  0
  1116  1  0  0  0  0
  6117  1  0  0  0  0
  8118  1  0  0  0  0
  9119  1  0  0  0  0
 12120  1  0  0  0  0
 14121  1  0  0  0  0
 23122  1  0  0  0  0
 26123  1  0  0  0  0
 27124  1  0  0  0  0
 29125  1  0  0  0  0
 29126  1  0  0  0  0
 30127  1  0  0  0  0
 30128  1  0  0  0  0
 30129  1  0  0  0  0
 31130  1  0  0  0  0
 32131  1  0  0  0  0
 38132  1  0  0  0  0
 39133  1  0  0  0  0
 40134  1  0  0  0  0
 42135  1  0  0  0  0
 42136  1  0  0  0  0
 43137  1  0  0  0  0
 43138  1  0  0  0  0
 43139  1  0  0  0  0
 44140  1  0  0  0  0
 60141  1  0  0  0  0
 61142  1  0  0  0  0
 62143  1  0  0  0  0
 64144  1  0  0  0  0
 64145  1  0  0  0  0
 65146  1  0  0  0  0
 65147  1  0  0  0  0
 65148  1  0  0  0  0
 66149  1  0  0  0  0
 78150  1  0  0  0  0
 78151  1  0  0  0  0
 79152  1  0  0  0  0
 79153  1  0  0  0  0
 79154  1  0  0  0  0
 80155  1  0  0  0  0
 80156  1  0  0  0  0
 81157  1  0  0  0  0
 81158  1  0  0  0  0
 81159  1  0  0  0  0
 83160  1  0  0  0  0
 86161  1  0  0  0  0
 87162  1  0  0  0  0
 89163  1  0  0  0  0
 89164  1  0  0  0  0
 90165  1  0  0  0  0
 90166  1  0  0  0  0
 90167  1  0  0  0  0
 91168  1  0  0  0  0
 92169  1  0  0  0  0
 95170  1  0  0  0  0
100171  1  0  0  0  0
102172  1  0  0  0  0
103173  1  0  0  0  0
106174  1  0  0  0  0
108175  1  0  0  0  0
M  END
