140

C          0.76890        3.88330        6.98030
C          1.28840        3.09960        7.95480
C          0.93830        1.66450        8.16240
O         -0.05420        1.08460        7.78540
C          1.97390        1.14120        9.07400
C          2.20200       -0.14750        9.46020
C          3.26930       -0.42440       10.34280
C          3.56030       -1.73920       10.76100
C          4.59660       -1.99380       11.61530
C          5.37500       -0.92260       12.07560
F          6.39180       -1.19390       12.91410
C          5.13640        0.37030       11.70250
C          4.07260        0.65120       10.82220
C          3.80450        1.97810       10.41500
C          2.77060        2.22160        9.54870
C          2.29620        3.46160        8.93900
C          2.75830        4.71770        9.22260
C          2.29950        5.90970        8.62100
N          1.99330        6.92220        8.17540
C          3.75810        4.99440       10.17930
N          4.56610        5.28250       10.94210
C          0.05830        3.37760        5.83420
C          0.45680        2.20880        5.19190
O          1.56870        1.53770        5.65470
C          2.76550        1.86960        4.95990
C          3.91280        1.12730        5.62370
C         -0.19980        1.75460        4.02060
O          0.16340        0.62610        3.36270
C          0.46620       -0.56040        4.09370
C         -0.54090       -0.86320        5.19280
C         -1.18340        2.53800        3.42400
C         -1.56040        3.76310        4.02150
C         -0.95920        4.17330        5.24140
N         -1.32490        5.32140        5.83860
C         -2.24520        6.04120        5.25180
C         -2.85170        5.63100        4.04920
N         -2.51940        4.51910        3.45000
C         -1.77350        2.12320        2.14860
C         -1.72050        2.92520        1.03780
C         -2.13880        2.48230       -0.23840
C         -2.67420        1.19470       -0.45200
C         -2.81970        0.39900        0.71120
C         -2.36540        0.84730        1.98400
N         -2.63090       -0.12480        2.86480
N         -3.18430       -1.06710        2.15100
C         -3.65700       -2.28310        2.74830
C         -4.96030       -2.03610        3.50170
N         -3.32550       -0.82900        0.87380
C         -2.97740        0.69920       -1.73730
C         -2.75030        1.42630       -2.88030
C         -2.26000        2.74440       -2.70300
N         -1.92870        3.68600       -3.59320
N         -1.50430        4.68200       -2.86730
C         -1.12020        5.92780       -3.46610
C         -2.35770        6.68880       -3.93170
N         -1.49710        4.50550       -1.57360
C         -1.97310        3.26550       -1.40730
C         -2.89170        0.85450       -4.21380
C         -3.40580        1.55960       -5.28590
F         -3.96970        2.76230       -5.10550
C         -3.38570        1.04200       -6.58760
F         -3.86060        1.80400       -7.58500
C         -2.83630       -0.19250       -6.88400
C         -2.38840       -0.98370       -5.78600
N         -2.00630       -2.25380       -5.99170
C         -1.54480       -2.96350       -4.99520
C         -1.14390       -4.37140       -5.31530
C          0.34300       -4.44060       -5.67160
C         -1.43070       -2.38760       -3.69430
N         -1.88230       -1.18390       -3.46750
C         -2.39640       -0.45550       -4.47240
C         -0.84500       -3.13650       -2.53460
C         -0.89060       -2.34430       -1.23430
C         -2.77820       -0.71290       -8.22380
C         -1.72460       -1.43400       -8.68220
C         -0.37260       -1.41600       -8.05320
O          0.00360       -0.76040       -7.10670
C          0.47380       -2.25940       -8.91790
C          1.79390       -2.57350       -8.76420
C          2.42430       -3.39410       -9.72470
C          3.78130       -3.75870       -9.60780
C          4.38160       -4.54760      -10.54890
C          3.62510       -4.99510      -11.64110
F          4.23370       -5.77100      -12.55610
C          2.30660       -4.67210      -11.80180
C          1.67110       -3.86040      -10.84140
C          0.30830       -3.50950      -10.97970
C         -0.28640       -2.72350      -10.02740
C         -1.65160       -2.22330       -9.89980
C         -2.69280       -2.52640      -10.73470
C         -2.57570       -3.33730      -11.88360
N         -2.54300       -3.98600      -12.83010
C         -4.02620       -2.09760      -10.55810
N         -5.13400       -1.80830      -10.47730
H          0.91220        4.95530        6.99550
H          1.58050       -0.94790        9.08770
H          2.94610       -2.54760       10.39370
H          4.83200       -2.99320       11.94530
H          5.75530        1.17040       12.07760
H          4.43040        2.76910       10.79570
H          2.92830        2.95620        5.01720
H          2.68130        1.59130        3.90020
H          3.74480        0.05440        5.57710
H          4.84440        1.36450        5.11820
H          3.98960        1.41670        6.66890
H          0.43790       -1.33430        3.31980
H          1.47950       -0.51850        4.50680
H         -0.40000       -1.88400        5.53870
H         -1.54810       -0.74410        4.80000
H         -0.41070       -0.18970        6.03680
H         -2.52070        6.96520        5.74110
H         -3.62410        6.22200        3.57610
H         -1.29430        3.91360        1.10430
H         -3.80430       -2.99990        1.93890
H         -2.88860       -2.64670        3.43510
H         -5.30000       -2.95680        3.96730
H         -5.72990       -1.68350        2.81940
H         -4.80590       -1.28670        4.27400
H         -3.38190       -0.29660       -1.80230
H         -0.57050        6.49150       -2.71080
H         -0.47220        5.70860       -4.31810
H         -2.99480        6.92950       -3.08410
H         -2.92150        6.07830       -4.63250
H         -2.06300        7.61170       -4.42280
H         -1.35290       -5.02940       -4.47100
H         -1.72870       -4.70100       -6.17550
H          0.55350       -3.78610       -6.51330
H          0.61460       -5.45750       -5.94410
H          0.96090       -4.12970       -4.83290
H         -1.38910       -4.07790       -2.41350
H          0.19050       -3.39210       -2.77550
H         -1.91690       -2.14490       -0.94050
H         -0.40030       -2.90430       -0.44100
H         -0.38710       -1.38960       -1.35640
H         -3.63540       -0.52030       -8.85580
H          2.35030       -2.20060       -7.91680
H          4.34290       -3.40060       -8.75800
H          5.41870       -4.83440      -10.47600
H          1.75540       -5.03520      -12.65510
H         -0.22980       -3.87020      -11.84140
