
  xtb     02042217583D
 energy: -287.264741867815 gnorm: 0.000497340017 xtb: 6.4.1 (unknown)
151168  0     0  0            999 V2000
   -7.1105   -3.7375    7.8517 C   0  0  0  0  0  0  0  0  0  0  0  0
   -6.5272   -3.7369    9.0834 C   0  0  0  0  0  0  0  0  0  0  0  0
   -5.0758   -3.5304    9.3229 C   0  0  0  0  0  0  0  0  0  0  0  0
   -4.2019   -3.3244    8.5069 O   0  0  0  0  0  0  0  0  0  0  0  0
   -4.9241   -3.4657   10.7897 C   0  0  0  0  0  0  0  0  0  0  0  0
   -3.7833   -3.2931   11.5182 C   0  0  0  0  0  0  0  0  0  0  0  0
   -3.8668   -3.2311   12.9271 C   0  0  0  0  0  0  0  0  0  0  0  0
   -2.7201   -3.0558   13.7281 C   0  0  0  0  0  0  0  0  0  0  0  0
   -2.8157   -2.9867   15.0901 C   0  0  0  0  0  0  0  0  0  0  0  0
   -4.0791   -3.0955   15.6867 C   0  0  0  0  0  0  0  0  0  0  0  0
   -4.1534   -3.0245   17.0294 F   0  0  0  0  0  0  0  0  0  0  0  0
   -5.2222   -3.2681   14.9574 C   0  0  0  0  0  0  0  0  0  0  0  0
   -5.1424   -3.3404   13.5527 C   0  0  0  0  0  0  0  0  0  0  0  0
   -6.3082   -3.5139   12.7706 C   0  0  0  0  0  0  0  0  0  0  0  0
   -6.2014   -3.5783   11.4065 C   0  0  0  0  0  0  0  0  0  0  0  0
   -7.2078   -3.7438   10.3616 C   0  0  0  0  0  0  0  0  0  0  0  0
   -8.5506   -3.9274   10.5718 C   0  0  0  0  0  0  0  0  0  0  0  0
   -9.1566   -3.9462   11.8447 C   0  0  0  0  0  0  0  0  0  0  0  0
   -9.7105   -3.9673   12.8505 N   0  0  0  0  0  0  0  0  0  0  0  0
   -9.5157   -4.1221    9.5621 C   0  0  0  0  0  0  0  0  0  0  0  0
  -10.3691   -4.2934    8.8124 N   0  0  0  0  0  0  0  0  0  0  0  0
   -6.4063   -3.9327    6.6259 C   0  0  0  0  0  0  0  0  0  0  0  0
   -6.8366   -3.2805    5.4532 C   0  0  0  0  0  0  0  0  0  0  0  0
   -7.9168   -2.5015    5.6273 O   0  0  0  0  0  0  0  0  0  0  0  0
   -8.3463   -1.5267    4.6884 C   0  0  0  0  0  0  0  0  0  0  0  0
   -9.3088   -0.6075    5.4254 C   0  0  0  0  0  0  0  0  0  0  0  0
   -6.1203   -3.4333    4.2439 C   0  0  0  0  0  0  0  0  0  0  0  0
   -6.6383   -2.8600    3.0962 O   0  0  0  0  0  0  0  0  0  0  0  0
   -7.0134   -3.7886    2.0822 C   0  0  0  0  0  0  0  0  0  0  0  0
   -8.0744   -4.7793    2.5449 C   0  0  0  0  0  0  0  0  0  0  0  0
   -4.9115   -4.1391    4.2101 C   0  0  0  0  0  0  0  0  0  0  0  0
   -4.5703   -4.9332    5.3458 C   0  0  0  0  0  0  0  0  0  0  0  0
   -5.3292   -4.8548    6.5396 C   0  0  0  0  0  0  0  0  0  0  0  0
   -5.0675   -5.6919    7.5566 N   0  0  0  0  0  0  0  0  0  0  0  0
   -4.0434   -6.4964    7.4429 C   0  0  0  0  0  0  0  0  0  0  0  0
   -3.2312   -6.5061    6.2977 C   0  0  0  0  0  0  0  0  0  0  0  0
   -3.5209   -5.7569    5.2656 N   0  0  0  0  0  0  0  0  0  0  0  0
   -3.9855   -4.0652    3.1222 C   0  0  0  0  0  0  0  0  0  0  0  0
   -2.6893   -5.2427    2.9710 S   0  0  0  0  0  0  0  0  0  0  0  0
   -2.0793   -4.3942    1.5949 C   0  0  0  0  0  0  0  0  0  0  0  0
   -1.0186   -4.3918    0.6912 C   0  0  0  0  0  0  0  0  0  0  0  0
    0.3535   -5.3975    0.3383 S   0  0  0  0  0  0  0  0  0  0  0  0
    0.8091   -4.2494   -0.8681 C   0  0  0  0  0  0  0  0  0  0  0  0
    1.9032   -4.0580   -1.7200 C   0  0  0  0  0  0  0  0  0  0  0  0
    3.1147   -4.7740   -1.8286 C   0  0  0  0  0  0  0  0  0  0  0  0
    4.1780   -4.2070   -2.6041 C   0  0  0  0  0  0  0  0  0  0  0  0
    5.2829   -4.9358   -2.5595 N   0  0  0  0  0  0  0  0  0  0  0  0
    5.0029   -6.2305   -1.6281 S   0  0  0  0  0  0  0  0  0  0  0  0
    3.4654   -5.9067   -1.2403 N   0  0  0  0  0  0  0  0  0  0  0  0
    3.9405   -3.0109   -3.3136 C   0  0  0  0  0  0  0  0  0  0  0  0
    4.7936   -2.2477   -4.1283 C   0  0  0  0  0  0  0  0  0  0  0  0
    6.4425   -2.2276   -4.6463 S   0  0  0  0  0  0  0  0  0  0  0  0
    6.1239   -0.7557   -5.5359 C   0  0  0  0  0  0  0  0  0  0  0  0
    6.9467    0.0984   -6.2964 C   0  0  0  0  0  0  0  0  0  0  0  0
    8.3725   -0.2280   -6.6090 C   0  0  0  0  0  0  0  0  0  0  0  0
    9.2456   -0.2672   -5.3545 C   0  0  0  0  0  0  0  0  0  0  0  0
    6.2295    1.1767   -6.7684 C   0  0  0  0  0  0  0  0  0  0  0  0
    4.5296    1.1197   -6.3163 S   0  0  0  0  0  0  0  0  0  0  0  0
    4.7940   -0.3382   -5.4392 C   0  0  0  0  0  0  0  0  0  0  0  0
    4.0353   -1.1928   -4.6321 C   0  0  0  0  0  0  0  0  0  0  0  0
    2.7409   -1.2608   -4.1679 N   0  0  0  0  0  0  0  0  0  0  0  0
    2.6700   -2.3679   -3.3197 C   0  0  0  0  0  0  0  0  0  0  0  0
    1.6737   -2.8450   -2.4247 C   0  0  0  0  0  0  0  0  0  0  0  0
    0.4780   -2.3159   -1.9742 N   0  0  0  0  0  0  0  0  0  0  0  0
   -0.0560   -3.1556   -1.0208 C   0  0  0  0  0  0  0  0  0  0  0  0
   -1.1310   -3.2247   -0.1074 C   0  0  0  0  0  0  0  0  0  0  0  0
   -2.2690   -2.5381    0.2734 N   0  0  0  0  0  0  0  0  0  0  0  0
   -2.8257   -3.2322    1.3217 C   0  0  0  0  0  0  0  0  0  0  0  0
   -3.9121   -3.0582    2.1732 C   0  0  0  0  0  0  0  0  0  0  0  0
   -2.7263   -1.2106   -0.0520 C   0  0  0  0  0  0  0  0  0  0  0  0
   -2.0757   -0.1538    0.8422 C   0  0  0  0  0  0  0  0  0  0  0  0
   -0.1134   -1.0492   -2.3089 C   0  0  0  0  0  0  0  0  0  0  0  0
   -1.2300   -1.2131   -3.3433 C   0  0  0  0  0  0  0  0  0  0  0  0
    1.7298   -0.7229   -5.0596 C   0  0  0  0  0  0  0  0  0  0  0  0
    1.3332   -1.7511   -6.1177 C   0  0  0  0  0  0  0  0  0  0  0  0
    6.6650    2.3425   -7.5077 C   0  0  0  0  0  0  0  0  0  0  0  0
    7.8170    3.0628   -7.1659 C   0  0  0  0  0  0  0  0  0  0  0  0
    8.5676    2.6674   -6.1289 F   0  0  0  0  0  0  0  0  0  0  0  0
    8.1742    4.2218   -7.8314 C   0  0  0  0  0  0  0  0  0  0  0  0
    9.2745    4.8855   -7.4492 F   0  0  0  0  0  0  0  0  0  0  0  0
    7.3746    4.7701   -8.8364 C   0  0  0  0  0  0  0  0  0  0  0  0
    6.2309    4.0479   -9.1953 C   0  0  0  0  0  0  0  0  0  0  0  0
    5.4835    4.4714  -10.2189 F   0  0  0  0  0  0  0  0  0  0  0  0
    5.8963    2.8684   -8.5581 C   0  0  0  0  0  0  0  0  0  0  0  0
    4.8091    2.2001   -8.9699 F   0  0  0  0  0  0  0  0  0  0  0  0
    7.7222    6.0361   -9.4540 C   0  0  0  0  0  0  0  0  0  0  0  0
    6.8460    7.0544   -9.5933 C   0  0  0  0  0  0  0  0  0  0  0  0
    5.5347    7.1221   -8.8741 C   0  0  0  0  0  0  0  0  0  0  0  0
    5.0181    6.2582   -8.2033 O   0  0  0  0  0  0  0  0  0  0  0  0
    5.0640    8.5039   -9.0564 C   0  0  0  0  0  0  0  0  0  0  0  0
    3.9381    9.0870   -8.5482 C   0  0  0  0  0  0  0  0  0  0  0  0
    3.6838   10.4482   -8.8218 C   0  0  0  0  0  0  0  0  0  0  0  0
    2.5375   11.0992   -8.3209 C   0  0  0  0  0  0  0  0  0  0  0  0
    2.3081   12.4211   -8.5826 C   0  0  0  0  0  0  0  0  0  0  0  0
    3.2330   13.1287   -9.3636 C   0  0  0  0  0  0  0  0  0  0  0  0
    2.9904   14.4277   -9.6085 F   0  0  0  0  0  0  0  0  0  0  0  0
    4.3587   12.5457   -9.8757 C   0  0  0  0  0  0  0  0  0  0  0  0
    4.6118   11.1844   -9.6161 C   0  0  0  0  0  0  0  0  0  0  0  0
    5.7681   10.5540  -10.1303 C   0  0  0  0  0  0  0  0  0  0  0  0
    5.9910    9.2293   -9.8582 C   0  0  0  0  0  0  0  0  0  0  0  0
    7.0751    8.3362  -10.2453 C   0  0  0  0  0  0  0  0  0  0  0  0
    8.0818    8.6204  -11.1254 C   0  0  0  0  0  0  0  0  0  0  0  0
    8.2442    9.8697  -11.7625 C   0  0  0  0  0  0  0  0  0  0  0  0
    8.4280   10.8643  -12.3042 N   0  0  0  0  0  0  0  0  0  0  0  0
    9.0678    7.6969  -11.5369 C   0  0  0  0  0  0  0  0  0  0  0  0
    9.8858    6.9904  -11.9220 N   0  0  0  0  0  0  0  0  0  0  0  0
   -8.1726   -3.5526    7.7614 H   0  0  0  0  0  0  0  0  0  0  0  0
   -2.8271   -3.2057   11.0242 H   0  0  0  0  0  0  0  0  0  0  0  0
   -1.7580   -2.9739   13.2447 H   0  0  0  0  0  0  0  0  0  0  0  0
   -1.9488   -2.8504   15.7171 H   0  0  0  0  0  0  0  0  0  0  0  0
   -6.1782   -3.3484   15.4508 H   0  0  0  0  0  0  0  0  0  0  0  0
   -7.2586   -3.5854   13.2745 H   0  0  0  0  0  0  0  0  0  0  0  0
   -8.8542   -2.0067    3.8451 H   0  0  0  0  0  0  0  0  0  0  0  0
   -7.4874   -0.9659    4.3067 H   0  0  0  0  0  0  0  0  0  0  0  0
  -10.1395   -1.1837    5.8234 H   0  0  0  0  0  0  0  0  0  0  0  0
   -9.6910    0.1473    4.7445 H   0  0  0  0  0  0  0  0  0  0  0  0
   -8.8008   -0.1181    6.2520 H   0  0  0  0  0  0  0  0  0  0  0  0
   -6.1330   -4.3310    1.7170 H   0  0  0  0  0  0  0  0  0  0  0  0
   -7.3997   -3.1578    1.2777 H   0  0  0  0  0  0  0  0  0  0  0  0
   -8.3680   -5.4091    1.7099 H   0  0  0  0  0  0  0  0  0  0  0  0
   -8.9540   -4.2593    2.9175 H   0  0  0  0  0  0  0  0  0  0  0  0
   -7.6832   -5.4121    3.3393 H   0  0  0  0  0  0  0  0  0  0  0  0
   -3.8627   -7.1681    8.2712 H   0  0  0  0  0  0  0  0  0  0  0  0
   -2.3661   -7.1473    6.2081 H   0  0  0  0  0  0  0  0  0  0  0  0
    8.7755    0.4902   -7.3231 H   0  0  0  0  0  0  0  0  0  0  0  0
    8.3900   -1.2159   -7.0788 H   0  0  0  0  0  0  0  0  0  0  0  0
    9.2437    0.6980   -4.8572 H   0  0  0  0  0  0  0  0  0  0  0  0
    8.8824   -1.0202   -4.6603 H   0  0  0  0  0  0  0  0  0  0  0  0
   10.2677   -0.5141   -5.6284 H   0  0  0  0  0  0  0  0  0  0  0  0
   -4.6012   -2.2341    2.1495 H   0  0  0  0  0  0  0  0  0  0  0  0
   -3.8090   -1.1984    0.1023 H   0  0  0  0  0  0  0  0  0  0  0  0
   -2.5410   -0.9980   -1.1035 H   0  0  0  0  0  0  0  0  0  0  0  0
   -0.9910   -0.1912    0.7620 H   0  0  0  0  0  0  0  0  0  0  0  0
   -2.3415   -0.3310    1.8813 H   0  0  0  0  0  0  0  0  0  0  0  0
   -2.4153    0.8387    0.5580 H   0  0  0  0  0  0  0  0  0  0  0  0
   -0.5155   -0.6144   -1.3917 H   0  0  0  0  0  0  0  0  0  0  0  0
    0.6731   -0.3776   -2.6543 H   0  0  0  0  0  0  0  0  0  0  0  0
   -1.9958   -1.8857   -2.9626 H   0  0  0  0  0  0  0  0  0  0  0  0
   -1.6843   -0.2511   -3.5683 H   0  0  0  0  0  0  0  0  0  0  0  0
   -0.8517   -1.6476   -4.2642 H   0  0  0  0  0  0  0  0  0  0  0  0
    0.8513   -0.3828   -4.5225 H   0  0  0  0  0  0  0  0  0  0  0  0
    2.1773    0.1487   -5.5445 H   0  0  0  0  0  0  0  0  0  0  0  0
    0.9286   -2.6466   -5.6491 H   0  0  0  0  0  0  0  0  0  0  0  0
    0.5845   -1.3297   -6.7830 H   0  0  0  0  0  0  0  0  0  0  0  0
    2.1997   -2.0380   -6.7087 H   0  0  0  0  0  0  0  0  0  0  0  0
    8.7568    6.1500   -9.7509 H   0  0  0  0  0  0  0  0  0  0  0  0
    3.2513    8.5136   -7.9438 H   0  0  0  0  0  0  0  0  0  0  0  0
    1.8404   10.5331   -7.7217 H   0  0  0  0  0  0  0  0  0  0  0  0
    1.4381   12.9349   -8.2055 H   0  0  0  0  0  0  0  0  0  0  0  0
    5.0476   13.1212  -10.4740 H   0  0  0  0  0  0  0  0  0  0  0  0
    6.4549   11.1388  -10.7210 H   0  0  0  0  0  0  0  0  0  0  0  0
  1  2  2  0  0  0  0
  2  3  1  0  0  0  0
  3  4  2  0  0  0  0
  3  5  1  0  0  0  0
  5  6  2  0  0  0  0
  6  7  1  0  0  0  0
  7  8  2  0  0  0  0
  8  9  1  0  0  0  0
  9 10  2  0  0  0  0
 10 11  1  0  0  0  0
 10 12  1  0  0  0  0
 12 13  2  0  0  0  0
 13 14  1  0  0  0  0
 14 15  2  0  0  0  0
 15 16  1  0  0  0  0
 16 17  2  0  0  0  0
 17 18  1  0  0  0  0
 18 19  3  0  0  0  0
 17 20  1  0  0  0  0
 20 21  3  0  0  0  0
  1 22  1  0  0  0  0
 22 23  2  0  0  0  0
 23 24  1  0  0  0  0
 24 25  1  0  0  0  0
 25 26  1  0  0  0  0
 23 27  1  0  0  0  0
 27 28  1  0  0  0  0
 28 29  1  0  0  0  0
 29 30  1  0  0  0  0
 27 31  2  0  0  0  0
 31 32  1  0  0  0  0
 32 33  2  0  0  0  0
 33 34  1  0  0  0  0
 34 35  2  0  0  0  0
 35 36  1  0  0  0  0
 36 37  2  0  0  0  0
 31 38  1  0  0  0  0
 38 39  1  0  0  0  0
 39 40  1  0  0  0  0
 40 41  1  0  0  0  0
 41 42  1  0  0  0  0
 42 43  1  0  0  0  0
 43 44  1  0  0  0  0
 44 45  1  0  0  0  0
 45 46  1  0  0  0  0
 46 47  2  0  0  0  0
 47 48  1  0  0  0  0
 48 49  1  0  0  0  0
 46 50  1  0  0  0  0
 50 51  1  0  0  0  0
 51 52  1  0  0  0  0
 52 53  1  0  0  0  0
 53 54  1  0  0  0  0
 54 55  1  0  0  0  0
 55 56  1  0  0  0  0
 54 57  2  0  0  0  0
 57 58  1  0  0  0  0
 58 59  1  0  0  0  0
 59 60  1  0  0  0  0
 60 61  1  0  0  0  0
 61 62  1  0  0  0  0
 62 63  1  0  0  0  0
 63 64  1  0  0  0  0
 64 65  1  0  0  0  0
 65 66  1  0  0  0  0
 66 67  1  0  0  0  0
 67 68  1  0  0  0  0
 68 69  1  0  0  0  0
 67 70  1  0  0  0  0
 70 71  1  0  0  0  0
 64 72  1  0  0  0  0
 72 73  1  0  0  0  0
 61 74  1  0  0  0  0
 74 75  1  0  0  0  0
 57 76  1  0  0  0  0
 76 77  2  0  0  0  0
 77 78  1  0  0  0  0
 77 79  1  0  0  0  0
 79 80  1  0  0  0  0
 79 81  2  0  0  0  0
 81 82  1  0  0  0  0
 82 83  1  0  0  0  0
 82 84  2  0  0  0  0
 84 85  1  0  0  0  0
 81 86  1  0  0  0  0
 86 87  2  0  0  0  0
 87 88  1  0  0  0  0
 88 89  2  0  0  0  0
 88 90  1  0  0  0  0
 90 91  2  0  0  0  0
 91 92  1  0  0  0  0
 92 93  2  0  0  0  0
 93 94  1  0  0  0  0
 94 95  2  0  0  0  0
 95 96  1  0  0  0  0
 95 97  1  0  0  0  0
 97 98  2  0  0  0  0
 98 99  1  0  0  0  0
 99100  2  0  0  0  0
100101  1  0  0  0  0
101102  2  0  0  0  0
102103  1  0  0  0  0
103104  3  0  0  0  0
102105  1  0  0  0  0
105106  3  0  0  0  0
 16  2  1  0  0  0  0
 33 22  1  0  0  0  0
 69 38  2  0  0  0  0
 84 76  1  0  0  0  0
101 87  1  0  0  0  0
 15  5  1  0  0  0  0
 37 32  1  0  0  0  0
 68 40  2  0  0  0  0
100 90  1  0  0  0  0
 13  7  1  0  0  0  0
 66 41  2  0  0  0  0
 98 92  1  0  0  0  0
 65 43  2  0  0  0  0
 63 44  2  0  0  0  0
 49 45  2  0  0  0  0
 62 50  2  0  0  0  0
 60 51  2  0  0  0  0
 59 53  2  0  0  0  0
  1107  1  0  0  0  0
  6108  1  0  0  0  0
  8109  1  0  0  0  0
  9110  1  0  0  0  0
 12111  1  0  0  0  0
 14112  1  0  0  0  0
 25113  1  0  0  0  0
 25114  1  0  0  0  0
 26115  1  0  0  0  0
 26116  1  0  0  0  0
 26117  1  0  0  0  0
 29118  1  0  0  0  0
 29119  1  0  0  0  0
 30120  1  0  0  0  0
 30121  1  0  0  0  0
 30122  1  0  0  0  0
 35123  1  0  0  0  0
 36124  1  0  0  0  0
 55125  1  0  0  0  0
 55126  1  0  0  0  0
 56127  1  0  0  0  0
 56128  1  0  0  0  0
 56129  1  0  0  0  0
 69130  1  0  0  0  0
 70131  1  0  0  0  0
 70132  1  0  0  0  0
 71133  1  0  0  0  0
 71134  1  0  0  0  0
 71135  1  0  0  0  0
 72136  1  0  0  0  0
 72137  1  0  0  0  0
 73138  1  0  0  0  0
 73139  1  0  0  0  0
 73140  1  0  0  0  0
 74141  1  0  0  0  0
 74142  1  0  0  0  0
 75143  1  0  0  0  0
 75144  1  0  0  0  0
 75145  1  0  0  0  0
 86146  1  0  0  0  0
 91147  1  0  0  0  0
 93148  1  0  0  0  0
 94149  1  0  0  0  0
 97150  1  0  0  0  0
 99151  1  0  0  0  0
M  END
