
  xtb     02052207073D
 energy: -253.658686386638 gnorm: 0.000186549654 xtb: 6.4.1 (unknown)
140153  0     0  0            999 V2000
    0.7689    3.8833    6.9803 C   0  0  0  0  0  0  0  0  0  0  0  0
    1.2884    3.0996    7.9548 C   0  0  0  0  0  0  0  0  0  0  0  0
    0.9383    1.6645    8.1624 C   0  0  0  0  0  0  0  0  0  0  0  0
   -0.0542    1.0846    7.7854 O   0  0  0  0  0  0  0  0  0  0  0  0
    1.9739    1.1412    9.0740 C   0  0  0  0  0  0  0  0  0  0  0  0
    2.2020   -0.1475    9.4602 C   0  0  0  0  0  0  0  0  0  0  0  0
    3.2693   -0.4244   10.3428 C   0  0  0  0  0  0  0  0  0  0  0  0
    3.5603   -1.7392   10.7610 C   0  0  0  0  0  0  0  0  0  0  0  0
    4.5966   -1.9938   11.6153 C   0  0  0  0  0  0  0  0  0  0  0  0
    5.3750   -0.9226   12.0756 C   0  0  0  0  0  0  0  0  0  0  0  0
    6.3918   -1.1939   12.9141 F   0  0  0  0  0  0  0  0  0  0  0  0
    5.1364    0.3703   11.7025 C   0  0  0  0  0  0  0  0  0  0  0  0
    4.0726    0.6512   10.8222 C   0  0  0  0  0  0  0  0  0  0  0  0
    3.8045    1.9781   10.4150 C   0  0  0  0  0  0  0  0  0  0  0  0
    2.7706    2.2216    9.5487 C   0  0  0  0  0  0  0  0  0  0  0  0
    2.2962    3.4616    8.9390 C   0  0  0  0  0  0  0  0  0  0  0  0
    2.7583    4.7177    9.2226 C   0  0  0  0  0  0  0  0  0  0  0  0
    2.2995    5.9097    8.6210 C   0  0  0  0  0  0  0  0  0  0  0  0
    1.9933    6.9222    8.1754 N   0  0  0  0  0  0  0  0  0  0  0  0
    3.7581    4.9944   10.1793 C   0  0  0  0  0  0  0  0  0  0  0  0
    4.5661    5.2825   10.9421 N   0  0  0  0  0  0  0  0  0  0  0  0
    0.0583    3.3776    5.8342 C   0  0  0  0  0  0  0  0  0  0  0  0
    0.4568    2.2088    5.1919 C   0  0  0  0  0  0  0  0  0  0  0  0
    1.5687    1.5377    5.6547 O   0  0  0  0  0  0  0  0  0  0  0  0
    2.7655    1.8696    4.9599 C   0  0  0  0  0  0  0  0  0  0  0  0
    3.9128    1.1273    5.6237 C   0  0  0  0  0  0  0  0  0  0  0  0
   -0.1998    1.7546    4.0206 C   0  0  0  0  0  0  0  0  0  0  0  0
    0.1634    0.6261    3.3627 O   0  0  0  0  0  0  0  0  0  0  0  0
    0.4662   -0.5604    4.0937 C   0  0  0  0  0  0  0  0  0  0  0  0
   -0.5409   -0.8632    5.1928 C   0  0  0  0  0  0  0  0  0  0  0  0
   -1.1834    2.5380    3.4240 C   0  0  0  0  0  0  0  0  0  0  0  0
   -1.5604    3.7631    4.0215 C   0  0  0  0  0  0  0  0  0  0  0  0
   -0.9592    4.1733    5.2414 C   0  0  0  0  0  0  0  0  0  0  0  0
   -1.3249    5.3214    5.8386 N   0  0  0  0  0  0  0  0  0  0  0  0
   -2.2452    6.0412    5.2518 C   0  0  0  0  0  0  0  0  0  0  0  0
   -2.8517    5.6310    4.0492 C   0  0  0  0  0  0  0  0  0  0  0  0
   -2.5194    4.5191    3.4500 N   0  0  0  0  0  0  0  0  0  0  0  0
   -1.7735    2.1232    2.1486 C   0  0  0  0  0  0  0  0  0  0  0  0
   -1.7205    2.9252    1.0378 C   0  0  0  0  0  0  0  0  0  0  0  0
   -2.1388    2.4823   -0.2384 C   0  0  0  0  0  0  0  0  0  0  0  0
   -2.6742    1.1947   -0.4520 C   0  0  0  0  0  0  0  0  0  0  0  0
   -2.8197    0.3990    0.7112 C   0  0  0  0  0  0  0  0  0  0  0  0
   -2.3654    0.8473    1.9840 C   0  0  0  0  0  0  0  0  0  0  0  0
   -2.6309   -0.1248    2.8648 N   0  0  0  0  0  0  0  0  0  0  0  0
   -3.1843   -1.0671    2.1510 N   0  0  0  0  0  0  0  0  0  0  0  0
   -3.6570   -2.2831    2.7483 C   0  0  0  0  0  0  0  0  0  0  0  0
   -4.9603   -2.0361    3.5017 C   0  0  0  0  0  0  0  0  0  0  0  0
   -3.3255   -0.8290    0.8738 N   0  0  0  0  0  0  0  0  0  0  0  0
   -2.9774    0.6992   -1.7373 C   0  0  0  0  0  0  0  0  0  0  0  0
   -2.7503    1.4263   -2.8803 C   0  0  0  0  0  0  0  0  0  0  0  0
   -2.2600    2.7444   -2.7030 C   0  0  0  0  0  0  0  0  0  0  0  0
   -1.9287    3.6860   -3.5932 N   0  0  0  0  0  0  0  0  0  0  0  0
   -1.5043    4.6820   -2.8673 N   0  0  0  0  0  0  0  0  0  0  0  0
   -1.1202    5.9278   -3.4661 C   0  0  0  0  0  0  0  0  0  0  0  0
   -2.3577    6.6888   -3.9317 C   0  0  0  0  0  0  0  0  0  0  0  0
   -1.4971    4.5055   -1.5736 N   0  0  0  0  0  0  0  0  0  0  0  0
   -1.9731    3.2655   -1.4073 C   0  0  0  0  0  0  0  0  0  0  0  0
   -2.8917    0.8545   -4.2138 C   0  0  0  0  0  0  0  0  0  0  0  0
   -3.4058    1.5596   -5.2859 C   0  0  0  0  0  0  0  0  0  0  0  0
   -3.9697    2.7623   -5.1055 F   0  0  0  0  0  0  0  0  0  0  0  0
   -3.3857    1.0420   -6.5876 C   0  0  0  0  0  0  0  0  0  0  0  0
   -3.8606    1.8040   -7.5850 F   0  0  0  0  0  0  0  0  0  0  0  0
   -2.8363   -0.1925   -6.8840 C   0  0  0  0  0  0  0  0  0  0  0  0
   -2.3884   -0.9837   -5.7860 C   0  0  0  0  0  0  0  0  0  0  0  0
   -2.0063   -2.2538   -5.9917 N   0  0  0  0  0  0  0  0  0  0  0  0
   -1.5448   -2.9635   -4.9952 C   0  0  0  0  0  0  0  0  0  0  0  0
   -1.1439   -4.3714   -5.3153 C   0  0  0  0  0  0  0  0  0  0  0  0
    0.3430   -4.4406   -5.6716 C   0  0  0  0  0  0  0  0  0  0  0  0
   -1.4307   -2.3876   -3.6943 C   0  0  0  0  0  0  0  0  0  0  0  0
   -1.8823   -1.1839   -3.4675 N   0  0  0  0  0  0  0  0  0  0  0  0
   -2.3964   -0.4555   -4.4724 C   0  0  0  0  0  0  0  0  0  0  0  0
   -0.8450   -3.1365   -2.5346 C   0  0  0  0  0  0  0  0  0  0  0  0
   -0.8906   -2.3443   -1.2343 C   0  0  0  0  0  0  0  0  0  0  0  0
   -2.7782   -0.7129   -8.2238 C   0  0  0  0  0  0  0  0  0  0  0  0
   -1.7246   -1.4340   -8.6822 C   0  0  0  0  0  0  0  0  0  0  0  0
   -0.3726   -1.4160   -8.0532 C   0  0  0  0  0  0  0  0  0  0  0  0
    0.0036   -0.7604   -7.1067 O   0  0  0  0  0  0  0  0  0  0  0  0
    0.4738   -2.2594   -8.9179 C   0  0  0  0  0  0  0  0  0  0  0  0
    1.7939   -2.5735   -8.7642 C   0  0  0  0  0  0  0  0  0  0  0  0
    2.4243   -3.3941   -9.7247 C   0  0  0  0  0  0  0  0  0  0  0  0
    3.7813   -3.7587   -9.6078 C   0  0  0  0  0  0  0  0  0  0  0  0
    4.3816   -4.5476  -10.5489 C   0  0  0  0  0  0  0  0  0  0  0  0
    3.6251   -4.9951  -11.6411 C   0  0  0  0  0  0  0  0  0  0  0  0
    4.2337   -5.7710  -12.5561 F   0  0  0  0  0  0  0  0  0  0  0  0
    2.3066   -4.6721  -11.8018 C   0  0  0  0  0  0  0  0  0  0  0  0
    1.6711   -3.8604  -10.8414 C   0  0  0  0  0  0  0  0  0  0  0  0
    0.3083   -3.5095  -10.9797 C   0  0  0  0  0  0  0  0  0  0  0  0
   -0.2864   -2.7235  -10.0274 C   0  0  0  0  0  0  0  0  0  0  0  0
   -1.6516   -2.2233   -9.8998 C   0  0  0  0  0  0  0  0  0  0  0  0
   -2.6928   -2.5264  -10.7347 C   0  0  0  0  0  0  0  0  0  0  0  0
   -2.5757   -3.3373  -11.8836 C   0  0  0  0  0  0  0  0  0  0  0  0
   -2.5430   -3.9860  -12.8301 N   0  0  0  0  0  0  0  0  0  0  0  0
   -4.0262   -2.0976  -10.5581 C   0  0  0  0  0  0  0  0  0  0  0  0
   -5.1340   -1.8083  -10.4773 N   0  0  0  0  0  0  0  0  0  0  0  0
    0.9122    4.9553    6.9955 H   0  0  0  0  0  0  0  0  0  0  0  0
    1.5805   -0.9479    9.0877 H   0  0  0  0  0  0  0  0  0  0  0  0
    2.9461   -2.5476   10.3937 H   0  0  0  0  0  0  0  0  0  0  0  0
    4.8320   -2.9932   11.9453 H   0  0  0  0  0  0  0  0  0  0  0  0
    5.7553    1.1704   12.0776 H   0  0  0  0  0  0  0  0  0  0  0  0
    4.4304    2.7691   10.7957 H   0  0  0  0  0  0  0  0  0  0  0  0
    2.9283    2.9562    5.0172 H   0  0  0  0  0  0  0  0  0  0  0  0
    2.6813    1.5913    3.9002 H   0  0  0  0  0  0  0  0  0  0  0  0
    3.7448    0.0544    5.5771 H   0  0  0  0  0  0  0  0  0  0  0  0
    4.8444    1.3645    5.1182 H   0  0  0  0  0  0  0  0  0  0  0  0
    3.9896    1.4167    6.6689 H   0  0  0  0  0  0  0  0  0  0  0  0
    0.4379   -1.3343    3.3198 H   0  0  0  0  0  0  0  0  0  0  0  0
    1.4795   -0.5185    4.5068 H   0  0  0  0  0  0  0  0  0  0  0  0
   -0.4000   -1.8840    5.5387 H   0  0  0  0  0  0  0  0  0  0  0  0
   -1.5481   -0.7441    4.8000 H   0  0  0  0  0  0  0  0  0  0  0  0
   -0.4107   -0.1897    6.0368 H   0  0  0  0  0  0  0  0  0  0  0  0
   -2.5207    6.9652    5.7411 H   0  0  0  0  0  0  0  0  0  0  0  0
   -3.6241    6.2220    3.5761 H   0  0  0  0  0  0  0  0  0  0  0  0
   -1.2943    3.9136    1.1043 H   0  0  0  0  0  0  0  0  0  0  0  0
   -3.8043   -2.9999    1.9389 H   0  0  0  0  0  0  0  0  0  0  0  0
   -2.8886   -2.6467    3.4351 H   0  0  0  0  0  0  0  0  0  0  0  0
   -5.3000   -2.9568    3.9673 H   0  0  0  0  0  0  0  0  0  0  0  0
   -5.7299   -1.6835    2.8194 H   0  0  0  0  0  0  0  0  0  0  0  0
   -4.8059   -1.2867    4.2740 H   0  0  0  0  0  0  0  0  0  0  0  0
   -3.3819   -0.2966   -1.8023 H   0  0  0  0  0  0  0  0  0  0  0  0
   -0.5705    6.4915   -2.7108 H   0  0  0  0  0  0  0  0  0  0  0  0
   -0.4722    5.7086   -4.3181 H   0  0  0  0  0  0  0  0  0  0  0  0
   -2.9948    6.9295   -3.0841 H   0  0  0  0  0  0  0  0  0  0  0  0
   -2.9215    6.0783   -4.6325 H   0  0  0  0  0  0  0  0  0  0  0  0
   -2.0630    7.6117   -4.4228 H   0  0  0  0  0  0  0  0  0  0  0  0
   -1.3529   -5.0294   -4.4710 H   0  0  0  0  0  0  0  0  0  0  0  0
   -1.7287   -4.7010   -6.1755 H   0  0  0  0  0  0  0  0  0  0  0  0
    0.5535   -3.7861   -6.5133 H   0  0  0  0  0  0  0  0  0  0  0  0
    0.6146   -5.4575   -5.9441 H   0  0  0  0  0  0  0  0  0  0  0  0
    0.9609   -4.1297   -4.8329 H   0  0  0  0  0  0  0  0  0  0  0  0
   -1.3891   -4.0779   -2.4135 H   0  0  0  0  0  0  0  0  0  0  0  0
    0.1905   -3.3921   -2.7755 H   0  0  0  0  0  0  0  0  0  0  0  0
   -1.9169   -2.1449   -0.9405 H   0  0  0  0  0  0  0  0  0  0  0  0
   -0.4003   -2.9043   -0.4410 H   0  0  0  0  0  0  0  0  0  0  0  0
   -0.3871   -1.3896   -1.3564 H   0  0  0  0  0  0  0  0  0  0  0  0
   -3.6354   -0.5203   -8.8558 H   0  0  0  0  0  0  0  0  0  0  0  0
    2.3503   -2.2006   -7.9168 H   0  0  0  0  0  0  0  0  0  0  0  0
    4.3429   -3.4006   -8.7580 H   0  0  0  0  0  0  0  0  0  0  0  0
    5.4187   -4.8344  -10.4760 H   0  0  0  0  0  0  0  0  0  0  0  0
    1.7554   -5.0352  -12.6551 H   0  0  0  0  0  0  0  0  0  0  0  0
   -0.2298   -3.8702  -11.8414 H   0  0  0  0  0  0  0  0  0  0  0  0
  1  2  2  0  0  0  0
  2  3  1  0  0  0  0
  3  4  2  0  0  0  0
  3  5  1  0  0  0  0
  5  6  2  0  0  0  0
  6  7  1  0  0  0  0
  7  8  2  0  0  0  0
  8  9  1  0  0  0  0
  9 10  2  0  0  0  0
 10 11  1  0  0  0  0
 10 12  1  0  0  0  0
 12 13  2  0  0  0  0
 13 14  1  0  0  0  0
 14 15  2  0  0  0  0
 15 16  1  0  0  0  0
 16 17  2  0  0  0  0
 17 18  1  0  0  0  0
 18 19  3  0  0  0  0
 17 20  1  0  0  0  0
 20 21  3  0  0  0  0
  1 22  1  0  0  0  0
 22 23  2  0  0  0  0
 23 24  1  0  0  0  0
 24 25  1  0  0  0  0
 25 26  1  0  0  0  0
 23 27  1  0  0  0  0
 27 28  1  0  0  0  0
 28 29  1  0  0  0  0
 29 30  1  0  0  0  0
 27 31  2  0  0  0  0
 31 32  1  0  0  0  0
 32 33  2  0  0  0  0
 33 34  1  0  0  0  0
 34 35  2  0  0  0  0
 35 36  1  0  0  0  0
 36 37  2  0  0  0  0
 31 38  1  0  0  0  0
 38 39  2  0  0  0  0
 39 40  1  0  0  0  0
 40 41  2  0  0  0  0
 41 42  1  0  0  0  0
 42 43  1  0  0  0  0
 43 44  2  0  0  0  0
 44 45  1  0  0  0  0
 45 46  1  0  0  0  0
 46 47  1  0  0  0  0
 45 48  1  0  0  0  0
 41 49  1  0  0  0  0
 49 50  2  0  0  0  0
 50 51  1  0  0  0  0
 51 52  2  0  0  0  0
 52 53  1  0  0  0  0
 53 54  1  0  0  0  0
 54 55  1  0  0  0  0
 53 56  1  0  0  0  0
 56 57  2  0  0  0  0
 50 58  1  0  0  0  0
 58 59  2  0  0  0  0
 59 60  1  0  0  0  0
 59 61  1  0  0  0  0
 61 62  1  0  0  0  0
 61 63  2  0  0  0  0
 63 64  1  0  0  0  0
 64 65  2  0  0  0  0
 65 66  1  0  0  0  0
 66 67  1  0  0  0  0
 67 68  1  0  0  0  0
 66 69  2  0  0  0  0
 69 70  1  0  0  0  0
 70 71  2  0  0  0  0
 69 72  1  0  0  0  0
 72 73  1  0  0  0  0
 63 74  1  0  0  0  0
 74 75  2  0  0  0  0
 75 76  1  0  0  0  0
 76 77  2  0  0  0  0
 76 78  1  0  0  0  0
 78 79  2  0  0  0  0
 79 80  1  0  0  0  0
 80 81  2  0  0  0  0
 81 82  1  0  0  0  0
 82 83  2  0  0  0  0
 83 84  1  0  0  0  0
 83 85  1  0  0  0  0
 85 86  2  0  0  0  0
 86 87  1  0  0  0  0
 87 88  2  0  0  0  0
 88 89  1  0  0  0  0
 89 90  2  0  0  0  0
 90 91  1  0  0  0  0
 91 92  3  0  0  0  0
 90 93  1  0  0  0  0
 93 94  3  0  0  0  0
 16  2  1  0  0  0  0
 33 22  1  0  0  0  0
 43 38  1  0  0  0  0
 57 51  1  0  0  0  0
 71 58  1  0  0  0  0
 89 75  1  0  0  0  0
 15  5  1  0  0  0  0
 37 32  1  0  0  0  0
 57 40  1  0  0  0  0
 71 64  1  0  0  0  0
 88 78  1  0  0  0  0
 13  7  1  0  0  0  0
 48 42  2  0  0  0  0
 86 80  1  0  0  0  0
  1 95  1  0  0  0  0
  6 96  1  0  0  0  0
  8 97  1  0  0  0  0
  9 98  1  0  0  0  0
 12 99  1  0  0  0  0
 14100  1  0  0  0  0
 25101  1  0  0  0  0
 25102  1  0  0  0  0
 26103  1  0  0  0  0
 26104  1  0  0  0  0
 26105  1  0  0  0  0
 29106  1  0  0  0  0
 29107  1  0  0  0  0
 30108  1  0  0  0  0
 30109  1  0  0  0  0
 30110  1  0  0  0  0
 35111  1  0  0  0  0
 36112  1  0  0  0  0
 39113  1  0  0  0  0
 46114  1  0  0  0  0
 46115  1  0  0  0  0
 47116  1  0  0  0  0
 47117  1  0  0  0  0
 47118  1  0  0  0  0
 49119  1  0  0  0  0
 54120  1  0  0  0  0
 54121  1  0  0  0  0
 55122  1  0  0  0  0
 55123  1  0  0  0  0
 55124  1  0  0  0  0
 67125  1  0  0  0  0
 67126  1  0  0  0  0
 68127  1  0  0  0  0
 68128  1  0  0  0  0
 68129  1  0  0  0  0
 72130  1  0  0  0  0
 72131  1  0  0  0  0
 73132  1  0  0  0  0
 73133  1  0  0  0  0
 73134  1  0  0  0  0
 74135  1  0  0  0  0
 79136  1  0  0  0  0
 81137  1  0  0  0  0
 82138  1  0  0  0  0
 85139  1  0  0  0  0
 87140  1  0  0  0  0
M  END
