212

C          3.44760        7.52620       -3.93490
C          4.14970        6.36900       -3.76720
C          3.51150        5.03730       -3.63230
O          2.40250        4.69420       -3.99130
C          4.49230        4.21320       -2.90480
C          4.33620        2.95300       -2.40540
C          5.40820        2.34950       -1.71150
C          5.28580        1.06320       -1.14890
C          6.32290        0.48740       -0.46910
C          7.52410        1.19760       -0.34870
F          8.53930        0.61060        0.31670
C          7.69780        2.44940       -0.87240
C          6.63460        3.06220       -1.56480
C          6.76820        4.36730       -2.09690
C          5.70870        4.93880       -2.75010
C          5.53700        6.24970       -3.36390
C          6.51360        7.17510       -3.61900
C          6.27520        8.34400       -4.37110
N          6.13260        9.27790       -5.02350
C          7.86020        7.02450       -3.23370
N          8.96440        6.94500       -2.92980
C          2.03660        7.54190       -4.21480
C          1.41040        6.79310       -5.21460
O          1.99830        6.37320       -6.34940
C          3.23290        6.89260       -6.82170
C          4.25650        5.78110       -7.00590
C          0.02000        6.47500       -5.12160
O         -0.55940        5.62680       -5.99840
C          0.13260        4.44280       -6.40530
C         -0.87280        3.29960       -6.45240
C         -0.76700        7.01870       -4.10530
C         -0.17380        7.98400       -3.23650
C          1.21770        8.25350       -3.29040
N          1.77840        9.10760       -2.41900
C          0.99350        9.69610       -1.54830
C         -0.37740        9.41680       -1.47960
N         -0.93760        8.56890       -2.30860
C         -2.07460        6.52470       -3.78800
C         -2.86940        5.66280       -4.51290
C         -3.84140        5.05570       -3.71770
S         -4.87780        3.67750       -3.98690
C         -5.16300        3.57490       -2.27320
C         -5.63310        2.56930       -1.42870
C         -5.98520        1.11130       -1.58430
C         -7.43040        0.85810       -1.96160
C         -8.37500        1.87330       -1.93180
C         -9.69450        1.61310       -2.25440
C        -10.10400        0.33590       -2.61090
C        -11.54490        0.04870       -2.92090
C        -12.30190       -0.32470       -1.64480
C         -9.15570       -0.67920       -2.63090
C         -7.83650       -0.42410       -2.31090
C         -5.00510        0.54240       -2.59280
C         -3.71850        0.18980       -2.20730
C         -2.78760       -0.20380       -3.15010
C         -3.10980       -0.24100       -4.50030
C         -2.10270       -0.68740       -5.52080
C         -2.19570       -2.19870       -5.74030
C         -4.39690        0.11340       -4.88050
C         -5.33230        0.50740       -3.94220
C         -5.76460        0.62050       -0.15890
C         -5.53970        1.71060        0.71520
C         -5.43980        2.88480       -0.09550
S         -4.73660        4.45080        0.15890
C         -4.58990        4.64220       -1.56230
C         -3.82010        5.47250       -2.38280
S         -2.64810        6.72120       -2.13560
C         -5.23680        1.52180        2.06120
C         -5.04370        0.22800        2.48280
C         -4.45910       -0.23090        3.80880
C         -5.48350       -0.32280        4.92520
C         -5.06910       -0.75780        6.17900
C         -5.97650       -0.88370        7.21190
C         -7.32030       -0.58530        7.02020
C         -8.29670       -0.67610        8.15740
C         -8.35520        0.65050        8.91750
C         -7.72790       -0.15560        5.76550
C         -6.82350       -0.02840        4.72570
C         -3.28770        0.65620        4.17870
C         -2.05460        0.47580        3.56610
C         -0.99020        1.30190        3.87210
C         -1.13110        2.33590        4.78800
C          0.01360        3.26040        5.08800
C         -0.01250        4.46510        4.14500
C         -2.37240        2.52820        5.37890
C         -3.43930        1.70210        5.07880
C         -4.05060       -1.63600        3.44950
C         -4.56940       -1.99190        2.21580
C         -5.17910       -0.85920        1.58740
C         -5.60860       -0.67520        0.27440
S         -4.03100       -3.54230        1.65560
C         -3.01400       -3.67940        3.05900
C         -3.17170       -2.59650        3.94140
S         -2.03780       -2.63140        5.26140
C         -1.27560       -4.03180        4.55230
C         -0.07020       -4.67480        4.80720
C          0.21620       -5.64690        3.86690
S         -1.09350       -5.83320        2.70580
C         -1.93220       -4.49400        3.40440
C          1.43740       -6.35740        3.62990
C          2.68210       -5.96440        4.16530
O          2.64220       -4.89730        5.00560
C          3.46420       -4.76290        6.15350
C          3.06900       -5.75110        7.24750
C          3.87770       -6.52290        3.65340
O          5.10230       -6.05450        4.10140
C          5.77420       -6.85200        5.07770
C          6.52420       -8.06700        4.54810
C          3.85860       -7.46630        2.62300
C          2.61540       -8.01410        2.21680
C          1.41640       -7.42880        2.69380
N          0.23490       -7.86020        2.23130
C          0.22080       -8.82190        1.34620
C          1.41270       -9.41500        0.89720
N          2.58410       -9.01200        1.31720
C          5.03350       -7.84660        1.88310
C          6.01970       -7.01650        1.46560
C          7.34080       -7.55650        1.04110
O          7.61390       -8.71180        0.80750
C          8.25160       -6.39370        1.04380
C          9.59950       -6.35850        0.82940
C         10.27550       -5.11880        0.88200
C         11.66370       -5.02780        0.65330
C         12.30660       -3.82220        0.69800
C         11.56340       -2.66570        0.97320
F         12.21660       -1.49120        1.00760
C         10.21640       -2.69660        1.20560
C          9.53880       -3.93160        1.16710
C          8.14510       -4.00010        1.39640
C          7.50870       -5.21060        1.32650
C          6.10030       -5.56840        1.45280
C          5.05390       -4.69760        1.30990
C          3.70920       -5.07730        1.11910
N          2.60900       -5.29040        0.86860
C          5.20680       -3.30390        1.19020
N          5.26570       -2.16150        1.08510
H          3.88860        8.46830       -3.63160
H          3.40270        2.42450       -2.52970
H          4.35050        0.53480       -1.25380
H          6.22680       -0.48760       -0.01780
H          8.63740        2.96670       -0.75460
H          7.70100        4.89170       -1.95960
H          3.00990        7.34430       -7.79670
H          3.61960        7.67240       -6.15830
H          5.17310        6.19920       -7.41250
H          3.86980        5.03120       -7.69060
H          4.47850        5.29590       -6.05940
H          0.93160        4.21440       -5.69770
H          0.56650        4.60830       -7.39750
H         -1.29340        3.12110       -5.46600
H         -1.68210        3.53540       -7.13850
H         -0.37580        2.39520       -6.79230
H          1.46530       10.39890       -0.87540
H         -1.02220        9.87480       -0.74350
H         -2.72230        5.45140       -5.55270
H         -8.07920        2.87650       -1.66120
H        -10.41560        2.41790       -2.23330
H        -11.61330       -0.77540       -3.63380
H        -12.00970        0.92860       -3.37010
H        -11.86010       -1.20750       -1.18800
H        -13.34560       -0.53350       -1.86810
H        -12.25610        0.49040       -0.92610
H         -9.45340       -1.68110       -2.90610
H         -7.11120       -1.22330       -2.34830
H         -3.43840        0.23290       -1.16440
H         -1.79030       -0.47250       -2.83170
H         -1.09610       -0.43400       -5.18200
H         -2.28480       -0.17330       -6.46680
H         -1.46800       -2.52230       -6.48110
H         -3.19000       -2.46930       -6.08840
H         -2.00340       -2.72810       -4.80980
H         -4.66800        0.09870       -5.92640
H         -6.32140        0.79980       -4.26280
H         -5.06630        2.36310        2.71590
H         -4.02700       -0.99110        6.34440
H         -5.63800       -1.22250        8.18070
H         -9.29080       -0.91520        7.77420
H         -7.99420       -1.47030        8.84300
H         -7.37510        0.90000        9.31800
H         -9.06190        0.58730        9.74170
H         -8.66700        1.45320        8.25280
H         -8.76870        0.08060        5.59470
H         -7.16580        0.30370        3.75660
H         -1.92340       -0.31590        2.84220
H         -0.03530        1.13960        3.39260
H         -0.05370        3.61020        6.12020
H          0.95990        2.72920        4.96760
H          0.81590        5.13610        4.36060
H          0.06510        4.13770        3.11070
H         -0.94420        5.01460        4.25890
H         -2.50690        3.33430        6.08640
H         -4.39600        1.86970        5.55190
H         -5.70280       -1.51670       -0.39420
H          0.57740       -4.41310        5.61920
H          4.52310       -4.84180        5.90500
H          3.26830       -3.73990        6.48770
H          3.72460       -5.63250        8.10560
H          3.13940       -6.77630        6.88740
H          2.04260       -5.57590        7.56100
H          6.48790       -6.16060        5.53650
H          5.06090       -7.18240        5.84260
H          7.02140       -8.55000        5.38620
H          5.84760       -8.78350        4.09020
H          7.27590       -7.77670        3.81960
H         -0.74840       -9.13980        0.98890
H          1.40850      -10.23040        0.18720
H          5.12720       -8.89420        1.62010
H         10.14410       -7.26570        0.61380
H         12.21430       -5.93150        0.43910
H         13.36750       -3.73510        0.52480
H          9.67770       -1.78280        1.40290
H          7.61540       -3.09060        1.63100
