276

C         -7.38780        4.55280       10.07010
C         -7.02820        3.97550       11.24520
C         -5.65340        4.03170       11.82250
O         -4.78980        4.85350       11.60340
C         -5.64050        3.00530       12.88510
C         -4.58860        2.55240       13.62710
C         -4.80850        1.54990       14.59790
C         -3.75380        1.03030       15.37620
C         -3.98050        0.05970       16.31170
C         -5.28600       -0.41840       16.49030
F         -5.48810       -1.37560       17.41440
C         -6.34410        0.05020       15.76310
C         -6.12880        1.05030       14.79410
C         -7.20280        1.55290       14.02430
C         -6.96280        2.51540       13.07880
C         -7.85620        3.18150       12.13380
C         -9.21700        3.03700       12.08740
C         -9.95740        2.22630       12.97330
N        -10.61500        1.58550       13.66240
C        -10.07170        3.68680       11.17140
N        -10.83100        4.17140       10.46000
C         -6.43610        4.95010        9.07550
C         -6.70640        5.95270        8.15400
F         -7.84890        6.64550        8.25840
C         -5.81360        6.29750        7.14000
F         -6.15770        7.29410        6.30470
C         -4.57850        5.67850        6.99600
C         -4.28770        4.61010        7.90120
N         -3.13780        3.93070        7.77590
C         -2.89670        2.89810        8.54210
C         -1.55070        2.25840        8.38910
C         -0.58420        2.81620        9.43650
C         -3.88560        2.43910        9.45670
N         -4.99920        3.10890        9.60710
C         -5.22110        4.22230        8.89240
C         -3.77240        1.15190       10.21640
C         -4.27660       -0.01180        9.35890
C         -3.65020        6.00600        5.95480
S         -4.22400        6.44370        4.35260
C         -2.62540        6.33750        3.74830
C         -1.97550        6.28570        2.49260
C         -0.63050        5.97960        2.69220
C         -0.30920        5.89100        4.16650
C         -1.69170        6.07210        4.75160
C         -2.27420        5.86720        5.99330
C          0.67040        6.99500        4.51410
C          0.27930        8.13570        5.19870
C          1.19880        9.13070        5.47860
C          2.52300        9.01410        5.07930
C          3.50580       10.11630        5.35060
C          3.47110       11.15240        4.22530
C          2.90520        7.87360        4.38360
C          1.99280        6.87510        4.10440
C          0.18620        4.52700        4.60810
C          0.91640        4.40340        5.78230
C          1.28980        3.15650        6.24720
C          0.92870        2.00240        5.56490
C          1.33710        0.64630        6.06540
C          2.58620        0.15440        5.33330
C          0.19960        2.13230        4.39010
C         -0.17120        3.37710        3.91780
C          0.01870        5.72150        1.48910
S          1.59170        5.12190        1.05220
C          1.03520        4.88920       -0.57350
C          1.51310        4.14280       -1.69480
C          2.68550        3.40990       -1.87150
C          2.71450        2.52340       -2.92110
C          3.77250        1.47650       -3.23060
C          4.28600        0.84260       -1.95740
C          3.53130       -0.11990       -1.30120
C          3.98030       -0.67720       -0.11790
C          5.19010       -0.28800        0.43990
C          5.67310       -0.86330        1.74060
C          5.52260        0.15570        2.87110
C          5.93380        0.68670       -0.21320
C          5.48710        1.25090       -1.39210
C          4.90330        2.01480       -4.09410
C          4.95120        3.33250       -4.52200
C          5.98380        3.76500       -5.33590
C          6.98690        2.89700       -5.74280
C          8.07870        3.35790       -6.66470
C          7.67190        3.14140       -8.12370
C          6.93020        1.57590       -5.31450
C          5.90320        1.13880       -4.50230
C          2.97830        0.54620       -4.11210
C          1.79240        1.15040       -4.49790
C          1.59530        2.36680       -3.77420
C          0.47860        3.19320       -3.67590
C          0.45090        4.08260       -2.62840
C         -0.71370        4.94980       -2.17860
C         -1.99630        4.14550       -2.23320
C         -2.35640        3.30590       -1.18820
C         -3.51220        2.55060       -1.25970
C         -4.32750        2.59870       -2.38230
C         -5.61330        1.82570       -2.43840
C         -6.76780        2.67830       -1.90800
C         -3.94910        3.42010       -3.43620
C         -2.79890        4.18260       -3.36610
C         -0.83320        6.25070       -2.95430
C         -1.88500        7.11020       -2.65860
C         -2.01220        8.31560       -3.31940
C         -1.09410        8.69590       -4.29100
C         -1.21070       10.02550       -4.97880
C         -0.45910       11.10130       -4.19220
C         -0.04160        7.83740       -4.57530
C          0.09210        6.62860       -3.91510
C         -0.27080        5.29800       -0.78130
C         -0.85130        5.79790        0.38180
S         -2.45980        6.28240        0.82920
S          0.76690        0.13900       -5.46050
C          1.90980       -1.15820       -5.28040
C          1.89240       -2.51980       -5.55520
C          3.01590       -3.16260       -5.03350
S          4.14230       -2.09420       -4.26090
C          3.06010       -0.76720       -4.56080
C          2.85970       -4.55600       -5.17290
S          3.68300       -5.98820       -4.70480
C          2.36500       -6.95420       -5.35040
C          1.35410       -6.16160       -5.89390
C          1.61840       -4.81230       -5.77190
C          0.89070       -3.52210       -6.07920
C         -0.36770       -3.30690       -5.25390
C         -0.57070       -3.97170       -4.05310
C         -1.66430       -3.66780       -3.26340
C         -2.57160       -2.68750       -3.64330
C         -3.70880       -2.30730       -2.73980
C         -3.25080       -1.25480       -1.72770
C         -2.36550       -2.02950       -4.84850
C         -1.27900       -2.33430       -5.64600
C          0.61310       -3.43870       -7.56430
C          1.39560       -2.67240       -8.41420
C          1.12990       -2.64510       -9.77180
C          0.08870       -3.38730      -10.31090
C         -0.22730       -3.32120      -11.77720
C         -1.25980       -2.22580      -12.05120
C         -0.68800       -4.15760       -9.45360
C         -0.43030       -4.18570       -8.09760
C          2.40260       -8.36660       -5.21710
C          1.46240       -9.24940       -5.75610
F          0.42780       -8.78940       -6.48500
C          1.55660      -10.62610       -5.59210
F          0.62940      -11.39470       -6.18400
C          2.59120      -11.24440       -4.89170
C          3.52870      -10.37430       -4.25710
N          4.42250      -10.86050       -3.38780
C          5.30550      -10.06630       -2.83350
C          6.22930      -10.70820       -1.84320
C          7.59380      -11.00190       -2.46890
C          5.33460       -8.68380       -3.16510
N          4.38230       -8.18860       -3.91770
C          3.45320       -8.97760       -4.45980
C          6.37320       -7.71180       -2.70030
C          7.30340       -7.35330       -3.86230
C          2.64810      -12.65690       -4.72480
C          3.80960      -13.36120       -4.58280
C          5.12920      -12.88640       -5.06500
O          5.38500      -11.86790       -5.66730
C          6.06430      -14.00760       -4.80100
C          5.35930      -15.09320       -4.25010
C          6.02750      -16.26530       -3.93220
C          7.39340      -16.33550       -4.16160
C          8.08400      -15.26540       -4.70940
Br         9.94680      -15.41970       -4.99210
C          7.42450      -14.08060       -5.05230
Cl         8.27350      -12.76870       -5.75860
C          3.95340      -14.71920       -4.11180
C          2.97440      -15.49760       -3.54920
C          3.17500      -16.81290       -3.08270
N          3.27370      -17.88770       -2.69070
C          1.64060      -15.08950       -3.33530
N          0.54680      -14.83040       -3.10140
H         -8.43130        4.66300        9.80520
H         -3.59610        2.94710       13.46720
H         -2.75700        1.41550       15.22170
H         -3.18530       -0.34750       16.91600
H         -7.33620       -0.33990       15.92810
H         -8.19000        1.15700       14.19990
H         -1.17320        2.49370        7.39300
H         -1.62430        1.17590        8.49250
H          0.38690        2.33780        9.33980
H         -0.46010        3.88670        9.29610
H         -0.95820        2.64470       10.44360
H         -4.39070        1.22790       11.11160
H         -2.74010        0.97290       10.51630
H         -4.20050       -0.94410        9.91280
H         -5.31770        0.14860        9.08980
H         -3.69590       -0.10190        8.44330
H         -1.74350        5.61650        6.89120
H         -0.74510        8.24810        5.52150
H          0.88060       10.01020        6.02000
H          4.51340        9.70330        5.42870
H          3.26200       10.60490        6.29620
H          2.47720       11.58620        4.14120
H          3.72200       10.68670        3.27480
H          4.18340       11.95060        4.42070
H          3.93040        7.76370        4.06000
H          2.30850        5.98920        3.57230
H          1.19320        5.28800        6.33670
H          1.86110        3.08010        7.16120
H          1.54190        0.69350        7.13670
H          0.52390       -0.06540        5.90470
H          2.88540       -0.82400        5.70200
H          3.40950        0.84940        5.48270
H          2.39050        0.07810        4.26620
H         -0.09230        1.24720        3.84290
H         -0.75250        3.45050        3.01020
H          3.49990        3.48170       -1.16640
H          2.58370       -0.43400       -1.71590
H          3.38080       -1.42840        0.37670
H          6.72480       -1.14540        1.64980
H          5.10060       -1.76060        1.98300
H          6.13300        1.03430        2.67710
H          5.83090       -0.27840        3.81930
H          4.48650        0.47430        2.95500
H          6.87720        1.00720        0.20500
H          6.07990        2.01100       -1.87980
H          4.18370        4.02860       -4.21730
H          6.00920        4.79680       -5.65690
H          8.99510        2.80040       -6.46080
H          8.27970        4.41850       -6.50080
H          6.76680        3.70050       -8.35090
H          8.46250        3.47270       -8.79280
H          7.47780        2.08740       -8.30970
H          7.70050        0.88230       -5.61970
H          5.87860        0.11050       -4.17110
H         -0.35920        3.07870       -4.34680
H         -1.72970        3.23830       -0.31040
H         -3.78180        1.91190       -0.43070
H         -5.52980        0.91930       -1.83640
H         -5.82560        1.53400       -3.46910
H         -6.57900        2.97080       -0.87750
H         -6.87650        3.58150       -2.50420
H         -7.70140        2.12190       -1.94640
H         -4.56330        3.46450       -4.32450
H         -2.52590        4.81810       -4.19620
H         -2.61280        6.82520       -1.91230
H         -2.83810        8.96990       -3.08010
H         -0.79450        9.95960       -5.98610
H         -2.26190       10.30880       -5.06070
H         -0.86750       11.19000       -3.18800
H         -0.54400       12.06510       -4.68860
H          0.59460       10.84360       -4.11070
H          0.68420        8.11450       -5.32680
H          0.91890        5.97640       -4.15580
H          0.45950       -6.56390       -6.32920
H          0.12890       -4.72810       -3.72850
H         -1.80980       -4.19680       -2.33210
H         -4.53480       -1.90470       -3.32890
H         -4.06690       -3.18920       -2.20450
H         -2.93590       -0.34640       -2.23740
H         -2.41110       -1.62960       -1.14640
H         -4.06030       -1.00860       -1.04430
H         -3.05870       -1.26320       -5.16430
H         -1.13410       -1.81120       -6.58000
H          2.21580       -2.09150       -8.01770
H          1.74580       -2.03940      -10.42130
H         -0.62400       -4.28120      -12.11330
H          0.68170       -3.10940      -12.34360
H         -0.87780       -1.25800      -11.73370
H         -2.17840       -2.42650      -11.50430
H         -1.49090       -2.17730      -13.11270
H         -1.50200       -4.74460       -9.85410
H         -1.04770       -4.78300       -7.44270
H          5.77010      -11.64750       -1.53030
H          6.34890      -10.06880       -0.96660
H          8.20330      -11.58130       -1.77980
H          8.12290      -10.08380       -2.70920
H          7.46440      -11.57330       -3.38350
H          5.86650       -6.80340       -2.36940
H          6.94800       -8.12060       -1.87080
H          6.72920       -6.89640       -4.66370
H          8.06360       -6.65100       -3.52980
H          7.79470       -8.24160       -4.25300
H          1.69820      -13.17580       -4.70260
H          5.51490      -17.11660       -3.51670
H          7.93360      -17.23660       -3.91550
