169

C          4.49290       -8.60390        5.65010
C          3.54250       -9.56690        5.71680
C          2.18430       -9.46950        5.10750
O          1.75890       -8.58790        4.39640
C          1.50960      -10.73500        5.44790
C          0.22870      -11.11540        5.16890
C         -0.22080      -12.38530        5.59250
C         -1.53560      -12.82610        5.33740
C         -1.95710      -14.05940        5.74960
C         -1.05920      -14.88850        6.43630
F         -1.49280      -16.09890        6.83330
C          0.22520      -14.51020        6.71100
C          0.67700      -13.24250        6.29350
C          2.00040      -12.82400        6.56150
C          2.41380      -11.58530        6.14490
C          3.69710      -10.90250        6.27330
C          4.83330      -11.43760        6.81850
C          6.08730      -10.79560        6.90450
N          7.14480      -10.35930        7.00540
C          4.91550      -12.74160        7.35280
N          5.05140      -13.79010        7.79970
C          4.30160       -7.25600        5.18770
C          3.20450       -6.46260        5.48020
F          2.26820       -6.88920        6.33690
C          3.08680       -5.16330        4.98140
F          2.00300       -4.45230        5.34490
C          4.04980       -4.57640        4.17240
C          5.20250       -5.36240        3.87100
N          6.13530       -4.89630        3.02360
C          7.19070       -5.62450        2.75530
C          8.14620       -5.04420        1.75730
C          9.47900       -4.62430        2.37810
C          7.36470       -6.90310        3.36760
N          6.42960       -7.39430        4.13950
C          5.33450       -6.66460        4.40500
C          8.57090       -7.76260        3.14540
C          8.35100       -9.20430        3.58860
C          3.87660       -3.26130        3.61330
C          4.83160       -2.28520        3.38590
C          6.18920       -2.27670        3.92410
C          6.45630       -2.76860        5.20050
C          7.72910       -2.66960        5.72670
C          8.74210       -2.06460        5.00150
C          8.49410       -1.56560        3.72880
C          9.56330       -0.85650        2.94890
C          9.41720        0.65750        3.11470
C          7.21780       -1.68340        3.20070
C          4.27800       -1.19410        2.68410
S          4.94430        0.31640        2.10640
C          3.38890        0.74800        1.48350
C          2.77200        1.80580        0.79040
C          3.20870        3.09020        0.39380
C          2.26450        4.00210       -0.20090
N          2.79980        5.18600       -0.45230
S          4.35210        5.15950        0.00540
N          4.40500        3.63500        0.54740
C          0.96170        3.54570       -0.50500
C         -0.11850        4.11350       -1.20580
S         -0.55680        5.61030       -1.95590
C         -2.07660        4.90010       -2.45000
C         -3.16930        5.38710       -3.19610
C         -3.20290        6.70400       -3.83150
C         -3.73040        6.87670       -5.11080
C         -3.80160        8.13770       -5.66800
C         -3.31900        9.23460       -4.97320
C         -2.74170        9.07640       -3.72050
C         -2.14340       10.24150       -2.98480
C         -0.63040       10.28620       -3.20670
C         -2.68700        7.80800       -3.16220
C         -4.15310        4.41870       -3.31690
S         -3.71480        2.90030       -2.56240
C         -2.21430        3.57080       -2.04390
C         -1.09420        3.11990       -1.33590
N         -0.67390        1.96020       -0.73250
C          0.57350        2.21720       -0.19360
C          1.42400        1.41070        0.59140
N          1.20410        0.18780        1.19870
C          2.40680       -0.21870        1.72300
C          2.91530       -1.32800        2.40820
S          2.29120       -2.81790        3.00690
C         -0.04230       -0.26430        1.78620
C         -0.08380        0.01860        3.28770
C         -1.16020        0.67710       -1.20070
C         -0.89810        0.49550       -2.69560
C         -5.43620        4.56110       -3.95340
C         -6.01720        3.55790       -4.71350
F         -5.42810        2.35040       -4.80290
C         -7.16670        3.78090       -5.47590
F         -7.62730        2.77680       -6.24160
C         -7.76720        5.02570       -5.55480
C         -7.27750        6.03580       -4.67880
N         -7.91600        7.21600       -4.60820
C         -7.48800        8.13210       -3.78110
C         -8.20830        9.44380       -3.74880
C         -9.32730        9.54110       -4.77650
C         -6.39840        7.85400       -2.89750
N         -5.77640        6.70600       -2.95080
C         -6.15810        5.78800       -3.85290
C         -5.93830        8.84150       -1.86920
C         -5.20510        8.17820       -0.71000
C         -8.83790        5.28990       -6.48450
C         -8.95160        6.44260       -7.18120
C         -7.92380        7.41440       -7.19090
N         -7.05630        8.15820       -7.29280
C        -10.10620        6.72340       -8.07600
O        -10.23720        7.73030       -8.72510
O        -10.99460        5.72410       -8.06800
C        -12.14420        5.89850       -8.89790
C        -12.98030        4.63530       -8.82290
H          5.51920       -8.83910        5.89700
H         -0.43460      -10.45110        4.63560
H         -2.20830      -12.16930        4.80670
H         -2.95880      -14.41250        5.56200
H          0.88890      -15.17460        7.24200
H          2.65440      -13.49710        7.09210
H          8.32580       -5.76960        0.95970
H          7.66070       -4.16670        1.32850
H         10.06000       -4.06630        1.64820
H          9.30430       -3.98620        3.23990
H         10.06360       -5.48380        2.69150
H          9.40150       -7.33710        3.71550
H          8.84620       -7.72890        2.08830
H          9.23990       -9.79550        3.38400
H          8.13820       -9.24840        4.65250
H          7.50940       -9.63890        3.05560
H          5.66170       -3.20840        5.78520
H          7.93120       -3.05360        6.71600
H          9.73170       -1.97840        5.42750
H          9.47800       -1.11020        1.89030
H         10.55000       -1.16710        3.29800
H          9.51100        0.93320        4.16270
H         10.18560        1.17830        2.54830
H          8.44180        0.98390        2.76120
H          7.02450       -1.31620        2.20400
H         -4.08570        6.02250       -5.66860
H         -4.24420        8.26690       -6.64380
H         -3.38500       10.21920       -5.41330
H         -2.58840       11.17420       -3.33770
H         -2.34500       10.14690       -1.91530
H         -0.40770       10.39830       -4.26530
H         -0.17000        9.36570       -2.85570
H         -0.19120       11.12290       -2.66840
H         -2.25320        7.68310       -2.18100
H         -0.14560       -1.33970        1.60930
H         -0.86840        0.26650        1.31630
H          0.68340       -0.54100        3.81450
H          0.06570        1.08010        3.47380
H         -1.05260       -0.27300        3.68330
H         -2.23500        0.61760       -1.00230
H         -0.64460       -0.11740       -0.66560
H         -1.22520       -0.49400       -3.00200
H          0.16510        0.59350       -2.90450
H         -1.43940        1.23200       -3.28200
H         -7.47510       10.23730       -3.91730
H         -8.61950        9.58940       -2.74450
H        -10.04190        8.73530       -4.63330
H         -8.92440        9.46530       -5.78150
H         -9.84300       10.49280       -4.67530
H         -5.26800        9.54500       -2.37340
H         -6.79080        9.41100       -1.49490
H         -4.37830        7.58560       -1.08530
H         -5.87790        7.51930       -0.16700
H         -4.82650        8.93280       -0.02530
H         -9.56770        4.50770       -6.64470
H        -12.70420        6.77170       -8.54440
H        -11.81300        6.10100       -9.92260
H        -12.40300        3.78240       -9.16980
H        -13.29110        4.45140       -7.79790
H        -13.86200        4.74470       -9.44720
