
  xtb     02052212093D
 energy: -301.230805949066 gnorm: 0.000505547540 xtb: 6.4.1 (unknown)
165183  0     0  0            999 V2000
    1.0217   -7.8633    8.5235 C   0  0  0  0  0  0  0  0  0  0  0  0
    1.8781   -7.2198    9.3581 C   0  0  0  0  0  0  0  0  0  0  0  0
    2.7612   -8.0075   10.2626 C   0  0  0  0  0  0  0  0  0  0  0  0
    2.6688   -9.1837   10.5261 O   0  0  0  0  0  0  0  0  0  0  0  0
    3.7975   -7.0562   10.7115 C   0  0  0  0  0  0  0  0  0  0  0  0
    4.9198   -7.2959   11.4500 C   0  0  0  0  0  0  0  0  0  0  0  0
    5.7990   -6.2270   11.7356 C   0  0  0  0  0  0  0  0  0  0  0  0
    6.9699   -6.4185   12.4973 C   0  0  0  0  0  0  0  0  0  0  0  0
    7.8170   -5.3782   12.7613 C   0  0  0  0  0  0  0  0  0  0  0  0
    7.5054   -4.1068   12.2607 C   0  0  0  0  0  0  0  0  0  0  0  0
    8.3521   -3.0953   12.5276 F   0  0  0  0  0  0  0  0  0  0  0  0
    6.3833   -3.8660   11.5180 C   0  0  0  0  0  0  0  0  0  0  0  0
    5.4975   -4.9253   11.2396 C   0  0  0  0  0  0  0  0  0  0  0  0
    4.3218   -4.7050   10.4850 C   0  0  0  0  0  0  0  0  0  0  0  0
    3.4794   -5.7533   10.2304 C   0  0  0  0  0  0  0  0  0  0  0  0
    2.2109   -5.8204    9.5103 C   0  0  0  0  0  0  0  0  0  0  0  0
    1.3939   -4.7482    9.2580 C   0  0  0  0  0  0  0  0  0  0  0  0
    1.7454   -3.4125    9.5330 C   0  0  0  0  0  0  0  0  0  0  0  0
    1.9900   -2.3044    9.7115 N   0  0  0  0  0  0  0  0  0  0  0  0
    0.0976   -4.8326    8.7173 C   0  0  0  0  0  0  0  0  0  0  0  0
   -0.9655   -4.8156    8.2816 N   0  0  0  0  0  0  0  0  0  0  0  0
    0.3980   -7.3440    7.3493 C   0  0  0  0  0  0  0  0  0  0  0  0
   -0.7967   -7.8797    6.8739 C   0  0  0  0  0  0  0  0  0  0  0  0
   -1.3442   -8.9179    7.5225 F   0  0  0  0  0  0  0  0  0  0  0  0
   -1.4901   -7.3539    5.7874 C   0  0  0  0  0  0  0  0  0  0  0  0
   -2.6167   -7.9816    5.4156 F   0  0  0  0  0  0  0  0  0  0  0  0
   -1.0227   -6.2444    5.0838 C   0  0  0  0  0  0  0  0  0  0  0  0
    0.3066   -5.8286    5.4107 C   0  0  0  0  0  0  0  0  0  0  0  0
    0.9065   -4.9430    4.6164 N   0  0  0  0  0  0  0  0  0  0  0  0
    2.1216   -4.5174    4.8720 C   0  0  0  0  0  0  0  0  0  0  0  0
    2.6791   -3.5384    3.8845 C   0  0  0  0  0  0  0  0  0  0  0  0
    1.9592   -2.1935    4.0071 C   0  0  0  0  0  0  0  0  0  0  0  0
    2.8095   -5.0150    6.0090 C   0  0  0  0  0  0  0  0  0  0  0  0
    2.2391   -5.9014    6.7943 N   0  0  0  0  0  0  0  0  0  0  0  0
    0.9961   -6.3333    6.5384 C   0  0  0  0  0  0  0  0  0  0  0  0
    4.2089   -4.6251    6.3811 C   0  0  0  0  0  0  0  0  0  0  0  0
    4.3098   -3.1862    6.8910 C   0  0  0  0  0  0  0  0  0  0  0  0
   -1.7364   -5.5372    4.0756 C   0  0  0  0  0  0  0  0  0  0  0  0
   -3.1117   -5.4502    3.8608 C   0  0  0  0  0  0  0  0  0  0  0  0
   -4.1486   -5.8828    4.7942 C   0  0  0  0  0  0  0  0  0  0  0  0
   -5.2990   -6.5118    4.3253 C   0  0  0  0  0  0  0  0  0  0  0  0
   -6.2825   -6.8927    5.2165 C   0  0  0  0  0  0  0  0  0  0  0  0
   -6.1325   -6.6456    6.5703 C   0  0  0  0  0  0  0  0  0  0  0  0
   -5.0007   -5.9998    7.0526 C   0  0  0  0  0  0  0  0  0  0  0  0
   -4.8138   -5.7517    8.5217 C   0  0  0  0  0  0  0  0  0  0  0  0
   -3.7338   -6.6716    9.0942 C   0  0  0  0  0  0  0  0  0  0  0  0
   -4.0167   -5.6159    6.1547 C   0  0  0  0  0  0  0  0  0  0  0  0
   -3.3956   -4.7317    2.6895 C   0  0  0  0  0  0  0  0  0  0  0  0
   -4.9018   -4.2592    1.9323 S   0  0  0  0  0  0  0  0  0  0  0  0
   -3.9992   -3.3738    0.7523 C   0  0  0  0  0  0  0  0  0  0  0  0
   -4.2258   -2.4888   -0.3129 C   0  0  0  0  0  0  0  0  0  0  0  0
   -5.4064   -1.8838   -0.8014 C   0  0  0  0  0  0  0  0  0  0  0  0
   -5.2991   -0.7931   -1.7323 C   0  0  0  0  0  0  0  0  0  0  0  0
   -6.4764   -0.2665   -2.0294 N   0  0  0  0  0  0  0  0  0  0  0  0
   -7.6214   -1.0754   -1.2202 S   0  0  0  0  0  0  0  0  0  0  0  0
   -6.6596   -2.1264   -0.4526 N   0  0  0  0  0  0  0  0  0  0  0  0
   -4.0269   -0.4462   -2.2394 C   0  0  0  0  0  0  0  0  0  0  0  0
   -3.6056    0.5215   -3.1695 C   0  0  0  0  0  0  0  0  0  0  0  0
   -4.2537    1.8485   -4.0718 S   0  0  0  0  0  0  0  0  0  0  0  0
   -2.6599    2.1652   -4.7157 C   0  0  0  0  0  0  0  0  0  0  0  0
   -2.1571    3.1466   -5.5993 C   0  0  0  0  0  0  0  0  0  0  0  0
   -3.0092    4.1327   -6.2636 C   0  0  0  0  0  0  0  0  0  0  0  0
   -4.0216    4.7640   -5.5475 C   0  0  0  0  0  0  0  0  0  0  0  0
   -4.8539    5.6663   -6.1815 C   0  0  0  0  0  0  0  0  0  0  0  0
   -4.6919    5.9355   -7.5276 C   0  0  0  0  0  0  0  0  0  0  0  0
   -3.6875    5.3127   -8.2608 C   0  0  0  0  0  0  0  0  0  0  0  0
   -3.5154    5.6319   -9.7179 C   0  0  0  0  0  0  0  0  0  0  0  0
   -2.8545    6.9983   -9.9045 C   0  0  0  0  0  0  0  0  0  0  0  0
   -2.8491    4.4165   -7.6181 C   0  0  0  0  0  0  0  0  0  0  0  0
   -0.8008    2.9826   -5.8008 C   0  0  0  0  0  0  0  0  0  0  0  0
   -0.1483    1.5934   -4.9413 S   0  0  0  0  0  0  0  0  0  0  0  0
   -1.6990    1.2593   -4.2644 C   0  0  0  0  0  0  0  0  0  0  0  0
   -2.2363    0.3268   -3.3709 C   0  0  0  0  0  0  0  0  0  0  0  0
   -1.7839   -0.7105   -2.5947 N   0  0  0  0  0  0  0  0  0  0  0  0
   -2.8657   -1.1725   -1.8619 C   0  0  0  0  0  0  0  0  0  0  0  0
   -2.9451   -2.0933   -0.7910 C   0  0  0  0  0  0  0  0  0  0  0  0
   -1.9738   -2.6903   -0.0121 N   0  0  0  0  0  0  0  0  0  0  0  0
   -2.6110   -3.4600    0.9264 C   0  0  0  0  0  0  0  0  0  0  0  0
   -2.2628   -4.2332    2.0368 C   0  0  0  0  0  0  0  0  0  0  0  0
   -0.8107   -4.6229    2.8988 S   0  0  0  0  0  0  0  0  0  0  0  0
   -0.5879   -2.3170    0.1697 C   0  0  0  0  0  0  0  0  0  0  0  0
    0.3709   -3.4528   -0.1849 C   0  0  0  0  0  0  0  0  0  0  0  0
   -0.6319   -1.4726   -3.0270 C   0  0  0  0  0  0  0  0  0  0  0  0
   -0.8548   -2.0733   -4.4150 C   0  0  0  0  0  0  0  0  0  0  0  0
    0.1419    3.8018   -6.5249 C   0  0  0  0  0  0  0  0  0  0  0  0
    1.2412    3.2218   -7.1706 C   0  0  0  0  0  0  0  0  0  0  0  0
    2.1858    3.9852   -7.8131 C   0  0  0  0  0  0  0  0  0  0  0  0
    2.0719    5.3773   -7.8782 C   0  0  0  0  0  0  0  0  0  0  0  0
    0.9971    5.9661   -7.2012 C   0  0  0  0  0  0  0  0  0  0  0  0
    0.9190    7.3026   -7.1030 F   0  0  0  0  0  0  0  0  0  0  0  0
    0.0623    5.2006   -6.5304 C   0  0  0  0  0  0  0  0  0  0  0  0
   -0.8857    5.8286   -5.8172 F   0  0  0  0  0  0  0  0  0  0  0  0
    3.0743    6.1715   -8.5550 C   0  0  0  0  0  0  0  0  0  0  0  0
    2.8030    7.2415   -9.3371 C   0  0  0  0  0  0  0  0  0  0  0  0
    1.4387    7.5688   -9.8475 C   0  0  0  0  0  0  0  0  0  0  0  0
    0.4406    6.8931   -9.7397 O   0  0  0  0  0  0  0  0  0  0  0  0
    1.5919    8.8111  -10.6189 C   0  0  0  0  0  0  0  0  0  0  0  0
    0.6246    9.5548  -11.2319 C   0  0  0  0  0  0  0  0  0  0  0  0
    0.9947   10.7297  -11.9219 C   0  0  0  0  0  0  0  0  0  0  0  0
    0.0366   11.5426  -12.5619 C   0  0  0  0  0  0  0  0  0  0  0  0
    0.4083   12.6763  -13.2290 C   0  0  0  0  0  0  0  0  0  0  0  0
    1.7655   13.0256  -13.2699 C   0  0  0  0  0  0  0  0  0  0  0  0
    2.1112   14.1438  -13.9318 F   0  0  0  0  0  0  0  0  0  0  0  0
    2.7346   12.2744  -12.6656 C   0  0  0  0  0  0  0  0  0  0  0  0
    2.3699   11.1032  -11.9726 C   0  0  0  0  0  0  0  0  0  0  0  0
    3.3496   10.3092  -11.3337 C   0  0  0  0  0  0  0  0  0  0  0  0
    2.9672    9.1780  -10.6607 C   0  0  0  0  0  0  0  0  0  0  0  0
    3.7415    8.1971   -9.9078 C   0  0  0  0  0  0  0  0  0  0  0  0
    5.0999    8.2068   -9.7439 C   0  0  0  0  0  0  0  0  0  0  0  0
    5.9608    9.1705  -10.3125 C   0  0  0  0  0  0  0  0  0  0  0  0
    6.7150    9.9175  -10.7486 N   0  0  0  0  0  0  0  0  0  0  0  0
    5.8366    7.2583   -9.0029 C   0  0  0  0  0  0  0  0  0  0  0  0
    6.5003    6.5226   -8.4227 N   0  0  0  0  0  0  0  0  0  0  0  0
    0.8385   -8.9094    8.7476 H   0  0  0  0  0  0  0  0  0  0  0  0
    5.1363   -8.2898   11.8121 H   0  0  0  0  0  0  0  0  0  0  0  0
    7.1887   -7.4071   12.8718 H   0  0  0  0  0  0  0  0  0  0  0  0
    8.7160   -5.5078   13.3427 H   0  0  0  0  0  0  0  0  0  0  0  0
    6.1724   -2.8726   11.1537 H   0  0  0  0  0  0  0  0  0  0  0  0
    4.1229   -3.7098   10.1210 H   0  0  0  0  0  0  0  0  0  0  0  0
    3.7512   -3.4110    4.0230 H   0  0  0  0  0  0  0  0  0  0  0  0
    2.4973   -3.9368    2.8841 H   0  0  0  0  0  0  0  0  0  0  0  0
    0.8954   -2.3337    3.8362 H   0  0  0  0  0  0  0  0  0  0  0  0
    2.3469   -1.4922    3.2725 H   0  0  0  0  0  0  0  0  0  0  0  0
    2.0944   -1.7689    4.9993 H   0  0  0  0  0  0  0  0  0  0  0  0
    4.5352   -5.3101    7.1659 H   0  0  0  0  0  0  0  0  0  0  0  0
    4.8657   -4.7545    5.5176 H   0  0  0  0  0  0  0  0  0  0  0  0
    3.5998   -3.0123    7.6949 H   0  0  0  0  0  0  0  0  0  0  0  0
    4.1087   -2.4687    6.1010 H   0  0  0  0  0  0  0  0  0  0  0  0
    5.3123   -3.0040    7.2704 H   0  0  0  0  0  0  0  0  0  0  0  0
   -5.4039   -6.7235    3.2721 H   0  0  0  0  0  0  0  0  0  0  0  0
   -7.1697   -7.3907    4.8544 H   0  0  0  0  0  0  0  0  0  0  0  0
   -6.9041   -6.9550    7.2607 H   0  0  0  0  0  0  0  0  0  0  0  0
   -4.5155   -4.7137    8.6851 H   0  0  0  0  0  0  0  0  0  0  0  0
   -5.7559   -5.9246    9.0456 H   0  0  0  0  0  0  0  0  0  0  0  0
   -3.9539   -7.7111    8.8602 H   0  0  0  0  0  0  0  0  0  0  0  0
   -3.6783   -6.5621   10.1750 H   0  0  0  0  0  0  0  0  0  0  0  0
   -2.7625   -6.4180    8.6766 H   0  0  0  0  0  0  0  0  0  0  0  0
   -3.1404   -5.0973    6.5176 H   0  0  0  0  0  0  0  0  0  0  0  0
   -4.1412    4.5637   -4.4940 H   0  0  0  0  0  0  0  0  0  0  0  0
   -5.6352    6.1585   -5.6216 H   0  0  0  0  0  0  0  0  0  0  0  0
   -5.3540    6.6329   -8.0205 H   0  0  0  0  0  0  0  0  0  0  0  0
   -2.9001    4.8682  -10.1968 H   0  0  0  0  0  0  0  0  0  0  0  0
   -4.4948    5.6366  -10.2038 H   0  0  0  0  0  0  0  0  0  0  0  0
   -2.7981    7.2441  -10.9630 H   0  0  0  0  0  0  0  0  0  0  0  0
   -1.8466    6.9874   -9.4992 H   0  0  0  0  0  0  0  0  0  0  0  0
   -3.4261    7.7719   -9.3961 H   0  0  0  0  0  0  0  0  0  0  0  0
   -2.0718    3.9159   -8.1795 H   0  0  0  0  0  0  0  0  0  0  0  0
   -0.3844   -1.4186   -0.4138 H   0  0  0  0  0  0  0  0  0  0  0  0
   -0.4468   -2.0673    1.2275 H   0  0  0  0  0  0  0  0  0  0  0  0
    0.2545   -4.2705    0.5205 H   0  0  0  0  0  0  0  0  0  0  0  0
    0.1860   -3.8418   -1.1837 H   0  0  0  0  0  0  0  0  0  0  0  0
    1.3951   -3.0942   -0.1334 H   0  0  0  0  0  0  0  0  0  0  0  0
   -0.4573   -2.2818   -2.3263 H   0  0  0  0  0  0  0  0  0  0  0  0
    0.2377   -0.8078   -3.0450 H   0  0  0  0  0  0  0  0  0  0  0  0
   -0.9908   -1.2944   -5.1602 H   0  0  0  0  0  0  0  0  0  0  0  0
   -1.7376   -2.7093   -4.4114 H   0  0  0  0  0  0  0  0  0  0  0  0
    0.0072   -2.6723   -4.6956 H   0  0  0  0  0  0  0  0  0  0  0  0
    1.3392    2.1467   -7.1545 H   0  0  0  0  0  0  0  0  0  0  0  0
    3.0191    3.5096   -8.3069 H   0  0  0  0  0  0  0  0  0  0  0  0
    4.0975    5.8553   -8.4004 H   0  0  0  0  0  0  0  0  0  0  0  0
   -0.4109    9.2533  -11.1807 H   0  0  0  0  0  0  0  0  0  0  0  0
   -1.0024   11.2529  -12.5157 H   0  0  0  0  0  0  0  0  0  0  0  0
   -0.3113   13.3090  -13.7240 H   0  0  0  0  0  0  0  0  0  0  0  0
    3.7696   12.5745  -12.7165 H   0  0  0  0  0  0  0  0  0  0  0  0
    4.3804   10.6197  -11.3919 H   0  0  0  0  0  0  0  0  0  0  0  0
  1  2  2  0  0  0  0
  2  3  1  0  0  0  0
  3  4  2  0  0  0  0
  3  5  1  0  0  0  0
  5  6  2  0  0  0  0
  6  7  1  0  0  0  0
  7  8  2  0  0  0  0
  8  9  1  0  0  0  0
  9 10  2  0  0  0  0
 10 11  1  0  0  0  0
 10 12  1  0  0  0  0
 12 13  2  0  0  0  0
 13 14  1  0  0  0  0
 14 15  2  0  0  0  0
 15 16  1  0  0  0  0
 16 17  2  0  0  0  0
 17 18  1  0  0  0  0
 18 19  3  0  0  0  0
 17 20  1  0  0  0  0
 20 21  3  0  0  0  0
  1 22  1  0  0  0  0
 22 23  2  0  0  0  0
 23 24  1  0  0  0  0
 23 25  1  0  0  0  0
 25 26  1  0  0  0  0
 25 27  2  0  0  0  0
 27 28  1  0  0  0  0
 28 29  2  0  0  0  0
 29 30  1  0  0  0  0
 30 31  1  0  0  0  0
 31 32  1  0  0  0  0
 30 33  2  0  0  0  0
 33 34  1  0  0  0  0
 34 35  2  0  0  0  0
 33 36  1  0  0  0  0
 36 37  1  0  0  0  0
 27 38  1  0  0  0  0
 38 39  2  0  0  0  0
 39 40  1  0  0  0  0
 40 41  2  0  0  0  0
 41 42  1  0  0  0  0
 42 43  2  0  0  0  0
 43 44  1  0  0  0  0
 44 45  1  0  0  0  0
 45 46  1  0  0  0  0
 44 47  2  0  0  0  0
 39 48  1  0  0  0  0
 48 49  1  0  0  0  0
 49 50  1  0  0  0  0
 50 51  1  0  0  0  0
 51 52  1  0  0  0  0
 52 53  1  0  0  0  0
 53 54  2  0  0  0  0
 54 55  1  0  0  0  0
 55 56  1  0  0  0  0
 53 57  1  0  0  0  0
 57 58  1  0  0  0  0
 58 59  1  0  0  0  0
 59 60  1  0  0  0  0
 60 61  1  0  0  0  0
 61 62  1  0  0  0  0
 62 63  2  0  0  0  0
 63 64  1  0  0  0  0
 64 65  2  0  0  0  0
 65 66  1  0  0  0  0
 66 67  1  0  0  0  0
 67 68  1  0  0  0  0
 66 69  2  0  0  0  0
 61 70  2  0  0  0  0
 70 71  1  0  0  0  0
 71 72  1  0  0  0  0
 72 73  1  0  0  0  0
 73 74  1  0  0  0  0
 74 75  1  0  0  0  0
 75 76  1  0  0  0  0
 76 77  1  0  0  0  0
 77 78  1  0  0  0  0
 78 79  1  0  0  0  0
 79 80  1  0  0  0  0
 77 81  1  0  0  0  0
 81 82  1  0  0  0  0
 74 83  1  0  0  0  0
 83 84  1  0  0  0  0
 70 85  1  0  0  0  0
 85 86  2  0  0  0  0
 86 87  1  0  0  0  0
 87 88  2  0  0  0  0
 88 89  1  0  0  0  0
 89 90  1  0  0  0  0
 89 91  2  0  0  0  0
 91 92  1  0  0  0  0
 88 93  1  0  0  0  0
 93 94  2  0  0  0  0
 94 95  1  0  0  0  0
 95 96  2  0  0  0  0
 95 97  1  0  0  0  0
 97 98  2  0  0  0  0
 98 99  1  0  0  0  0
 99100  2  0  0  0  0
100101  1  0  0  0  0
101102  2  0  0  0  0
102103  1  0  0  0  0
102104  1  0  0  0  0
104105  2  0  0  0  0
105106  1  0  0  0  0
106107  2  0  0  0  0
107108  1  0  0  0  0
108109  2  0  0  0  0
109110  1  0  0  0  0
110111  3  0  0  0  0
109112  1  0  0  0  0
112113  3  0  0  0  0
 16  2  1  0  0  0  0
 35 22  1  0  0  0  0
 80 38  1  0  0  0  0
 91 85  1  0  0  0  0
108 94  1  0  0  0  0
 15  5  1  0  0  0  0
 35 28  1  0  0  0  0
 47 40  1  0  0  0  0
 79 48  2  0  0  0  0
107 97  1  0  0  0  0
 13  7  1  0  0  0  0
 78 50  2  0  0  0  0
105 99  1  0  0  0  0
 76 51  2  0  0  0  0
 56 52  2  0  0  0  0
 75 57  2  0  0  0  0
 73 58  2  0  0  0  0
 72 60  2  0  0  0  0
 69 62  1  0  0  0  0
  1114  1  0  0  0  0
  6115  1  0  0  0  0
  8116  1  0  0  0  0
  9117  1  0  0  0  0
 12118  1  0  0  0  0
 14119  1  0  0  0  0
 31120  1  0  0  0  0
 31121  1  0  0  0  0
 32122  1  0  0  0  0
 32123  1  0  0  0  0
 32124  1  0  0  0  0
 36125  1  0  0  0  0
 36126  1  0  0  0  0
 37127  1  0  0  0  0
 37128  1  0  0  0  0
 37129  1  0  0  0  0
 41130  1  0  0  0  0
 42131  1  0  0  0  0
 43132  1  0  0  0  0
 45133  1  0  0  0  0
 45134  1  0  0  0  0
 46135  1  0  0  0  0
 46136  1  0  0  0  0
 46137  1  0  0  0  0
 47138  1  0  0  0  0
 63139  1  0  0  0  0
 64140  1  0  0  0  0
 65141  1  0  0  0  0
 67142  1  0  0  0  0
 67143  1  0  0  0  0
 68144  1  0  0  0  0
 68145  1  0  0  0  0
 68146  1  0  0  0  0
 69147  1  0  0  0  0
 81148  1  0  0  0  0
 81149  1  0  0  0  0
 82150  1  0  0  0  0
 82151  1  0  0  0  0
 82152  1  0  0  0  0
 83153  1  0  0  0  0
 83154  1  0  0  0  0
 84155  1  0  0  0  0
 84156  1  0  0  0  0
 84157  1  0  0  0  0
 86158  1  0  0  0  0
 87159  1  0  0  0  0
 93160  1  0  0  0  0
 98161  1  0  0  0  0
100162  1  0  0  0  0
101163  1  0  0  0  0
104164  1  0  0  0  0
106165  1  0  0  0  0
M  END
