
  xtb     02052218283D
 energy: -317.847717542935 gnorm: 0.000459637063 xtb: 6.4.1 (unknown)
175193  0     0  0            999 V2000
   -7.6782    5.1511   -5.5507 C   0  0  0  0  0  0  0  0  0  0  0  0
   -7.1788    6.0647   -6.4189 C   0  0  0  0  0  0  0  0  0  0  0  0
   -7.8737    7.3713   -6.5976 C   0  0  0  0  0  0  0  0  0  0  0  0
   -8.9791    7.6644   -6.2063 O   0  0  0  0  0  0  0  0  0  0  0  0
   -6.9015    8.2319   -7.2990 C   0  0  0  0  0  0  0  0  0  0  0  0
   -6.9941    9.5599   -7.6007 C   0  0  0  0  0  0  0  0  0  0  0  0
   -5.9194   10.1932   -8.2642 C   0  0  0  0  0  0  0  0  0  0  0  0
   -5.9646   11.5610   -8.6034 C   0  0  0  0  0  0  0  0  0  0  0  0
   -4.9161   12.1639   -9.2408 C   0  0  0  0  0  0  0  0  0  0  0  0
   -3.7845   11.3995   -9.5563 C   0  0  0  0  0  0  0  0  0  0  0  0
   -2.7610   12.0102  -10.1810 F   0  0  0  0  0  0  0  0  0  0  0  0
   -3.6893   10.0703   -9.2517 C   0  0  0  0  0  0  0  0  0  0  0  0
   -4.7614    9.4322   -8.5978 C   0  0  0  0  0  0  0  0  0  0  0  0
   -4.6976    8.0556   -8.2808 C   0  0  0  0  0  0  0  0  0  0  0  0
   -5.7545    7.4608   -7.6455 C   0  0  0  0  0  0  0  0  0  0  0  0
   -5.9761    6.0800   -7.2250 C   0  0  0  0  0  0  0  0  0  0  0  0
   -5.3036    4.9922   -7.7171 C   0  0  0  0  0  0  0  0  0  0  0  0
   -5.6345    3.6488   -7.4553 C   0  0  0  0  0  0  0  0  0  0  0  0
   -5.8422    2.5289   -7.3067 N   0  0  0  0  0  0  0  0  0  0  0  0
   -4.2067    5.0802   -8.5977 C   0  0  0  0  0  0  0  0  0  0  0  0
   -3.2978    5.0917   -9.2998 N   0  0  0  0  0  0  0  0  0  0  0  0
   -6.9988    4.0333   -4.9706 C   0  0  0  0  0  0  0  0  0  0  0  0
   -7.6984    2.8952   -4.5857 C   0  0  0  0  0  0  0  0  0  0  0  0
   -9.0273    2.8607   -4.7583 F   0  0  0  0  0  0  0  0  0  0  0  0
   -7.0752    1.7570   -4.0781 C   0  0  0  0  0  0  0  0  0  0  0  0
   -7.8576    0.7225   -3.7332 F   0  0  0  0  0  0  0  0  0  0  0  0
   -5.6985    1.6969   -3.8909 C   0  0  0  0  0  0  0  0  0  0  0  0
   -4.9832    2.9161   -4.0997 C   0  0  0  0  0  0  0  0  0  0  0  0
   -3.6936    2.9679   -3.7575 N   0  0  0  0  0  0  0  0  0  0  0  0
   -2.9962    4.0630   -3.9428 C   0  0  0  0  0  0  0  0  0  0  0  0
   -1.5805    4.0188   -3.4515 C   0  0  0  0  0  0  0  0  0  0  0  0
   -1.5577    3.9765   -1.9219 C   0  0  0  0  0  0  0  0  0  0  0  0
   -3.6194    5.2057   -4.5121 C   0  0  0  0  0  0  0  0  0  0  0  0
   -4.8876    5.1733   -4.8511 N   0  0  0  0  0  0  0  0  0  0  0  0
   -5.6055    4.0550   -4.6651 C   0  0  0  0  0  0  0  0  0  0  0  0
   -2.9076    6.5023   -4.7546 C   0  0  0  0  0  0  0  0  0  0  0  0
   -1.9976    6.4309   -5.9830 C   0  0  0  0  0  0  0  0  0  0  0  0
   -4.9848    0.5266   -3.4883 C   0  0  0  0  0  0  0  0  0  0  0  0
   -5.2821   -0.8087   -3.7381 C   0  0  0  0  0  0  0  0  0  0  0  0
   -6.3052   -1.2949   -4.6606 C   0  0  0  0  0  0  0  0  0  0  0  0
   -6.4927   -0.6827   -5.8989 C   0  0  0  0  0  0  0  0  0  0  0  0
   -7.4426   -1.1787   -6.7700 C   0  0  0  0  0  0  0  0  0  0  0  0
   -8.2051   -2.2804   -6.4222 C   0  0  0  0  0  0  0  0  0  0  0  0
   -8.0205   -2.9101   -5.1976 C   0  0  0  0  0  0  0  0  0  0  0  0
   -8.8761   -4.0764   -4.7954 C   0  0  0  0  0  0  0  0  0  0  0  0
  -10.1349   -3.5855   -4.0777 C   0  0  0  0  0  0  0  0  0  0  0  0
   -7.0656   -2.4109   -4.3263 C   0  0  0  0  0  0  0  0  0  0  0  0
   -4.3663   -1.6558   -3.0906 C   0  0  0  0  0  0  0  0  0  0  0  0
   -4.1751   -3.3946   -3.0684 S   0  0  0  0  0  0  0  0  0  0  0  0
   -2.7614   -3.2031   -2.0901 C   0  0  0  0  0  0  0  0  0  0  0  0
   -1.7589   -3.9926   -1.5010 C   0  0  0  0  0  0  0  0  0  0  0  0
   -1.4197   -5.3617   -1.6059 C   0  0  0  0  0  0  0  0  0  0  0  0
   -0.1852   -5.8262   -1.0259 C   0  0  0  0  0  0  0  0  0  0  0  0
    0.0408   -7.1043   -1.2824 N   0  0  0  0  0  0  0  0  0  0  0  0
   -1.1889   -7.6802   -2.1639 S   0  0  0  0  0  0  0  0  0  0  0  0
   -2.0593   -6.3191   -2.2574 N   0  0  0  0  0  0  0  0  0  0  0  0
    0.5730   -4.9447   -0.2206 C   0  0  0  0  0  0  0  0  0  0  0  0
    1.7050   -5.1177    0.5938 C   0  0  0  0  0  0  0  0  0  0  0  0
    2.8911   -6.3254    0.9505 S   0  0  0  0  0  0  0  0  0  0  0  0
    3.6321   -5.2268    2.0928 C   0  0  0  0  0  0  0  0  0  0  0  0
    4.7278   -5.3566    2.9611 C   0  0  0  0  0  0  0  0  0  0  0  0
    5.4605   -6.6098    3.1241 C   0  0  0  0  0  0  0  0  0  0  0  0
    5.7533   -7.1001    4.3954 C   0  0  0  0  0  0  0  0  0  0  0  0
    6.4009   -8.3117    4.5319 C   0  0  0  0  0  0  0  0  0  0  0  0
    6.7556   -9.0451    3.4123 C   0  0  0  0  0  0  0  0  0  0  0  0
    6.4671   -8.5737    2.1383 C   0  0  0  0  0  0  0  0  0  0  0  0
    6.7967   -9.3816    0.9170 C   0  0  0  0  0  0  0  0  0  0  0  0
    5.5653  -10.1610    0.4507 C   0  0  0  0  0  0  0  0  0  0  0  0
    5.8161   -7.3569    2.0069 C   0  0  0  0  0  0  0  0  0  0  0  0
    4.9040   -4.2012    3.7167 C   0  0  0  0  0  0  0  0  0  0  0  0
    3.6627   -2.9981    3.4174 S   0  0  0  0  0  0  0  0  0  0  0  0
    2.9741   -3.9946    2.1855 C   0  0  0  0  0  0  0  0  0  0  0  0
    1.8805   -3.9304    1.3179 C   0  0  0  0  0  0  0  0  0  0  0  0
    0.9244   -3.0130    0.9572 N   0  0  0  0  0  0  0  0  0  0  0  0
    0.1377   -3.6095   -0.0098 C   0  0  0  0  0  0  0  0  0  0  0  0
   -0.9154   -3.0952   -0.7943 C   0  0  0  0  0  0  0  0  0  0  0  0
   -1.3420   -1.7973   -1.0031 N   0  0  0  0  0  0  0  0  0  0  0  0
   -2.4647   -1.8662   -1.7901 C   0  0  0  0  0  0  0  0  0  0  0  0
   -3.3757   -0.9796   -2.3713 C   0  0  0  0  0  0  0  0  0  0  0  0
   -3.5280    0.7347   -2.5382 S   0  0  0  0  0  0  0  0  0  0  0  0
   -0.5157   -0.6072   -0.9962 C   0  0  0  0  0  0  0  0  0  0  0  0
   -0.0407   -0.2499   -2.4042 C   0  0  0  0  0  0  0  0  0  0  0  0
    0.5145   -1.9740    1.8798 C   0  0  0  0  0  0  0  0  0  0  0  0
    0.0378   -2.5670    3.2056 C   0  0  0  0  0  0  0  0  0  0  0  0
    5.9522   -3.8550    4.6227 C   0  0  0  0  0  0  0  0  0  0  0  0
    7.2704   -4.2949    4.5195 C   0  0  0  0  0  0  0  0  0  0  0  0
    7.6485   -5.0925    3.5090 F   0  0  0  0  0  0  0  0  0  0  0  0
    8.2668   -3.8557    5.3875 C   0  0  0  0  0  0  0  0  0  0  0  0
    9.5164   -4.2875    5.1712 F   0  0  0  0  0  0  0  0  0  0  0  0
    8.0420   -2.9342    6.4085 C   0  0  0  0  0  0  0  0  0  0  0  0
    6.6891   -2.5176    6.5858 C   0  0  0  0  0  0  0  0  0  0  0  0
    6.3374   -1.7743    7.6449 N   0  0  0  0  0  0  0  0  0  0  0  0
    5.1232   -1.2899    7.7392 C   0  0  0  0  0  0  0  0  0  0  0  0
    4.7893   -0.5571    9.0015 C   0  0  0  0  0  0  0  0  0  0  0  0
    4.0028   -1.4602    9.9551 C   0  0  0  0  0  0  0  0  0  0  0  0
    4.1871   -1.5061    6.6900 C   0  0  0  0  0  0  0  0  0  0  0  0
    4.4790   -2.3540    5.7361 N   0  0  0  0  0  0  0  0  0  0  0  0
    5.6913   -2.9122    5.6637 C   0  0  0  0  0  0  0  0  0  0  0  0
    2.8841   -0.7830    6.5688 C   0  0  0  0  0  0  0  0  0  0  0  0
    3.1132    0.5362    5.8241 C   0  0  0  0  0  0  0  0  0  0  0  0
    9.1169   -2.4762    7.2273 C   0  0  0  0  0  0  0  0  0  0  0  0
    9.2055   -1.3163    7.9323 C   0  0  0  0  0  0  0  0  0  0  0  0
   10.1849   -1.2105    9.0472 C   0  0  0  0  0  0  0  0  0  0  0  0
   11.1148   -1.9440    9.2802 O   0  0  0  0  0  0  0  0  0  0  0  0
    9.7302   -0.0449    9.8428 C   0  0  0  0  0  0  0  0  0  0  0  0
   10.2113    0.4186   11.0496 C   0  0  0  0  0  0  0  0  0  0  0  0
    9.5923    1.5198   11.6322 C   0  0  0  0  0  0  0  0  0  0  0  0
   10.1615    2.1217   13.1377 Cl  0  0  0  0  0  0  0  0  0  0  0  0
    8.5097    2.1281   10.9914 C   0  0  0  0  0  0  0  0  0  0  0  0
    7.6495    3.6073   11.7968 Br  0  0  0  0  0  0  0  0  0  0  0  0
    8.0350    1.6720    9.7679 C   0  0  0  0  0  0  0  0  0  0  0  0
    8.6506    0.5756    9.1882 C   0  0  0  0  0  0  0  0  0  0  0  0
    8.4047   -0.1113    7.9225 C   0  0  0  0  0  0  0  0  0  0  0  0
    7.7194    0.4194    6.8603 C   0  0  0  0  0  0  0  0  0  0  0  0
    7.7071   -0.1435    5.5688 C   0  0  0  0  0  0  0  0  0  0  0  0
    7.6695   -0.5404    4.4923 N   0  0  0  0  0  0  0  0  0  0  0  0
    6.9018    1.5619    6.9398 C   0  0  0  0  0  0  0  0  0  0  0  0
    6.1605    2.4391    6.9619 N   0  0  0  0  0  0  0  0  0  0  0  0
   -8.6974    5.3225   -5.2180 H   0  0  0  0  0  0  0  0  0  0  0  0
   -7.8777   10.1216   -7.3370 H   0  0  0  0  0  0  0  0  0  0  0  0
   -6.8471   12.1290   -8.3502 H   0  0  0  0  0  0  0  0  0  0  0  0
   -4.9349   13.2086   -9.5076 H   0  0  0  0  0  0  0  0  0  0  0  0
   -2.8047    9.5116   -9.5150 H   0  0  0  0  0  0  0  0  0  0  0  0
   -3.8074    7.5086   -8.5469 H   0  0  0  0  0  0  0  0  0  0  0  0
   -1.0133    4.8766   -3.8056 H   0  0  0  0  0  0  0  0  0  0  0  0
   -1.1188    3.1069   -3.8342 H   0  0  0  0  0  0  0  0  0  0  0  0
   -0.5332    3.9077   -1.5654 H   0  0  0  0  0  0  0  0  0  0  0  0
   -2.1146    3.1127   -1.5696 H   0  0  0  0  0  0  0  0  0  0  0  0
   -2.0096    4.8752   -1.5074 H   0  0  0  0  0  0  0  0  0  0  0  0
   -2.3201    6.7724   -3.8751 H   0  0  0  0  0  0  0  0  0  0  0  0
   -3.6668    7.2699   -4.9151 H   0  0  0  0  0  0  0  0  0  0  0  0
   -1.2075    5.6960   -5.8524 H   0  0  0  0  0  0  0  0  0  0  0  0
   -2.5687    6.1522   -6.8638 H   0  0  0  0  0  0  0  0  0  0  0  0
   -1.5410    7.4016   -6.1592 H   0  0  0  0  0  0  0  0  0  0  0  0
   -5.8925    0.1687   -6.1833 H   0  0  0  0  0  0  0  0  0  0  0  0
   -7.5861   -0.6995   -7.7268 H   0  0  0  0  0  0  0  0  0  0  0  0
   -8.9490   -2.6587   -7.1087 H   0  0  0  0  0  0  0  0  0  0  0  0
   -8.3141   -4.7350   -4.1303 H   0  0  0  0  0  0  0  0  0  0  0  0
   -9.1643   -4.6477   -5.6801 H   0  0  0  0  0  0  0  0  0  0  0  0
   -9.8657   -3.0201   -3.1886 H   0  0  0  0  0  0  0  0  0  0  0  0
  -10.7131   -2.9359   -4.7308 H   0  0  0  0  0  0  0  0  0  0  0  0
  -10.7581   -4.4264   -3.7818 H   0  0  0  0  0  0  0  0  0  0  0  0
   -6.9255   -2.8803   -3.3633 H   0  0  0  0  0  0  0  0  0  0  0  0
    5.4590   -6.5358    5.2695 H   0  0  0  0  0  0  0  0  0  0  0  0
    6.6279   -8.6898    5.5180 H   0  0  0  0  0  0  0  0  0  0  0  0
    7.2628   -9.9918    3.5297 H   0  0  0  0  0  0  0  0  0  0  0  0
    7.1269   -8.7183    0.1152 H   0  0  0  0  0  0  0  0  0  0  0  0
    7.6059  -10.0795    1.1391 H   0  0  0  0  0  0  0  0  0  0  0  0
    5.7975  -10.7414   -0.4391 H   0  0  0  0  0  0  0  0  0  0  0  0
    4.7502   -9.4791    0.2193 H   0  0  0  0  0  0  0  0  0  0  0  0
    5.2305  -10.8409    1.2311 H   0  0  0  0  0  0  0  0  0  0  0  0
    5.6040   -6.9707    1.0210 H   0  0  0  0  0  0  0  0  0  0  0  0
    0.3599   -0.7847   -0.3747 H   0  0  0  0  0  0  0  0  0  0  0  0
   -1.1005    0.2205   -0.5826 H   0  0  0  0  0  0  0  0  0  0  0  0
    0.6207    0.6106   -2.3540 H   0  0  0  0  0  0  0  0  0  0  0  0
   -0.8797   -0.0040   -3.0483 H   0  0  0  0  0  0  0  0  0  0  0  0
    0.5040   -1.0849   -2.8394 H   0  0  0  0  0  0  0  0  0  0  0  0
   -0.3073   -1.4110    1.4407 H   0  0  0  0  0  0  0  0  0  0  0  0
    1.3656   -1.3090    2.0578 H   0  0  0  0  0  0  0  0  0  0  0  0
   -0.3210   -1.7695    3.8504 H   0  0  0  0  0  0  0  0  0  0  0  0
    0.8464   -3.0854    3.7128 H   0  0  0  0  0  0  0  0  0  0  0  0
   -0.7752   -3.2686    3.0318 H   0  0  0  0  0  0  0  0  0  0  0  0
    4.2140    0.3413    8.7755 H   0  0  0  0  0  0  0  0  0  0  0  0
    5.7246   -0.2647    9.4809 H   0  0  0  0  0  0  0  0  0  0  0  0
    4.5945   -2.3355   10.2124 H   0  0  0  0  0  0  0  0  0  0  0  0
    3.0733   -1.7961    9.5010 H   0  0  0  0  0  0  0  0  0  0  0  0
    3.7679   -0.9199   10.8684 H   0  0  0  0  0  0  0  0  0  0  0  0
    2.2013   -1.4066    5.9910 H   0  0  0  0  0  0  0  0  0  0  0  0
    2.4499   -0.5864    7.5481 H   0  0  0  0  0  0  0  0  0  0  0  0
    3.8171    1.1715    6.3579 H   0  0  0  0  0  0  0  0  0  0  0  0
    3.5165    0.3366    4.8342 H   0  0  0  0  0  0  0  0  0  0  0  0
    2.1738    1.0724    5.7184 H   0  0  0  0  0  0  0  0  0  0  0  0
    9.9507   -3.1605    7.3503 H   0  0  0  0  0  0  0  0  0  0  0  0
   11.0473   -0.0642   11.5304 H   0  0  0  0  0  0  0  0  0  0  0  0
    7.1979    2.1698    9.3046 H   0  0  0  0  0  0  0  0  0  0  0  0
  1  2  2  0  0  0  0
  2  3  1  0  0  0  0
  3  4  2  0  0  0  0
  3  5  1  0  0  0  0
  5  6  2  0  0  0  0
  6  7  1  0  0  0  0
  7  8  2  0  0  0  0
  8  9  1  0  0  0  0
  9 10  2  0  0  0  0
 10 11  1  0  0  0  0
 10 12  1  0  0  0  0
 12 13  2  0  0  0  0
 13 14  1  0  0  0  0
 14 15  2  0  0  0  0
 15 16  1  0  0  0  0
 16 17  2  0  0  0  0
 17 18  1  0  0  0  0
 18 19  3  0  0  0  0
 17 20  1  0  0  0  0
 20 21  3  0  0  0  0
  1 22  1  0  0  0  0
 22 23  2  0  0  0  0
 23 24  1  0  0  0  0
 23 25  1  0  0  0  0
 25 26  1  0  0  0  0
 25 27  2  0  0  0  0
 27 28  1  0  0  0  0
 28 29  2  0  0  0  0
 29 30  1  0  0  0  0
 30 31  1  0  0  0  0
 31 32  1  0  0  0  0
 30 33  2  0  0  0  0
 33 34  1  0  0  0  0
 34 35  2  0  0  0  0
 33 36  1  0  0  0  0
 36 37  1  0  0  0  0
 27 38  1  0  0  0  0
 38 39  2  0  0  0  0
 39 40  1  0  0  0  0
 40 41  2  0  0  0  0
 41 42  1  0  0  0  0
 42 43  2  0  0  0  0
 43 44  1  0  0  0  0
 44 45  1  0  0  0  0
 45 46  1  0  0  0  0
 44 47  2  0  0  0  0
 39 48  1  0  0  0  0
 48 49  1  0  0  0  0
 49 50  1  0  0  0  0
 50 51  1  0  0  0  0
 51 52  1  0  0  0  0
 52 53  1  0  0  0  0
 53 54  2  0  0  0  0
 54 55  1  0  0  0  0
 55 56  1  0  0  0  0
 53 57  1  0  0  0  0
 57 58  1  0  0  0  0
 58 59  1  0  0  0  0
 59 60  1  0  0  0  0
 60 61  1  0  0  0  0
 61 62  1  0  0  0  0
 62 63  2  0  0  0  0
 63 64  1  0  0  0  0
 64 65  2  0  0  0  0
 65 66  1  0  0  0  0
 66 67  1  0  0  0  0
 67 68  1  0  0  0  0
 66 69  2  0  0  0  0
 61 70  2  0  0  0  0
 70 71  1  0  0  0  0
 71 72  1  0  0  0  0
 72 73  1  0  0  0  0
 73 74  1  0  0  0  0
 74 75  1  0  0  0  0
 75 76  1  0  0  0  0
 76 77  1  0  0  0  0
 77 78  1  0  0  0  0
 78 79  1  0  0  0  0
 79 80  1  0  0  0  0
 77 81  1  0  0  0  0
 81 82  1  0  0  0  0
 74 83  1  0  0  0  0
 83 84  1  0  0  0  0
 70 85  1  0  0  0  0
 85 86  2  0  0  0  0
 86 87  1  0  0  0  0
 86 88  1  0  0  0  0
 88 89  1  0  0  0  0
 88 90  2  0  0  0  0
 90 91  1  0  0  0  0
 91 92  2  0  0  0  0
 92 93  1  0  0  0  0
 93 94  1  0  0  0  0
 94 95  1  0  0  0  0
 93 96  2  0  0  0  0
 96 97  1  0  0  0  0
 97 98  2  0  0  0  0
 96 99  1  0  0  0  0
 99100  1  0  0  0  0
 90101  1  0  0  0  0
101102  2  0  0  0  0
102103  1  0  0  0  0
103104  2  0  0  0  0
103105  1  0  0  0  0
105106  2  0  0  0  0
106107  1  0  0  0  0
107108  1  0  0  0  0
107109  2  0  0  0  0
109110  1  0  0  0  0
109111  1  0  0  0  0
111112  2  0  0  0  0
112113  1  0  0  0  0
113114  2  0  0  0  0
114115  1  0  0  0  0
115116  3  0  0  0  0
114117  1  0  0  0  0
117118  3  0  0  0  0
 16  2  1  0  0  0  0
 35 22  1  0  0  0  0
 80 38  1  0  0  0  0
 98 85  1  0  0  0  0
113102  1  0  0  0  0
 15  5  1  0  0  0  0
 35 28  1  0  0  0  0
 47 40  1  0  0  0  0
 79 48  2  0  0  0  0
 98 91  1  0  0  0  0
112105  1  0  0  0  0
 13  7  1  0  0  0  0
 78 50  2  0  0  0  0
 76 51  2  0  0  0  0
 56 52  2  0  0  0  0
 75 57  2  0  0  0  0
 73 58  2  0  0  0  0
 72 60  2  0  0  0  0
 69 62  1  0  0  0  0
  1119  1  0  0  0  0
  6120  1  0  0  0  0
  8121  1  0  0  0  0
  9122  1  0  0  0  0
 12123  1  0  0  0  0
 14124  1  0  0  0  0
 31125  1  0  0  0  0
 31126  1  0  0  0  0
 32127  1  0  0  0  0
 32128  1  0  0  0  0
 32129  1  0  0  0  0
 36130  1  0  0  0  0
 36131  1  0  0  0  0
 37132  1  0  0  0  0
 37133  1  0  0  0  0
 37134  1  0  0  0  0
 41135  1  0  0  0  0
 42136  1  0  0  0  0
 43137  1  0  0  0  0
 45138  1  0  0  0  0
 45139  1  0  0  0  0
 46140  1  0  0  0  0
 46141  1  0  0  0  0
 46142  1  0  0  0  0
 47143  1  0  0  0  0
 63144  1  0  0  0  0
 64145  1  0  0  0  0
 65146  1  0  0  0  0
 67147  1  0  0  0  0
 67148  1  0  0  0  0
 68149  1  0  0  0  0
 68150  1  0  0  0  0
 68151  1  0  0  0  0
 69152  1  0  0  0  0
 81153  1  0  0  0  0
 81154  1  0  0  0  0
 82155  1  0  0  0  0
 82156  1  0  0  0  0
 82157  1  0  0  0  0
 83158  1  0  0  0  0
 83159  1  0  0  0  0
 84160  1  0  0  0  0
 84161  1  0  0  0  0
 84162  1  0  0  0  0
 94163  1  0  0  0  0
 94164  1  0  0  0  0
 95165  1  0  0  0  0
 95166  1  0  0  0  0
 95167  1  0  0  0  0
 99168  1  0  0  0  0
 99169  1  0  0  0  0
100170  1  0  0  0  0
100171  1  0  0  0  0
100172  1  0  0  0  0
101173  1  0  0  0  0
106174  1  0  0  0  0
111175  1  0  0  0  0
M  END
