
  xtb     02052202423D
 energy: -323.698533173331 gnorm: 0.000277581226 xtb: 6.4.1 (unknown)
183202  0     0  0            999 V2000
    6.2709   -2.6216   -8.6418 C   0  0  0  0  0  0  0  0  0  0  0  0
    7.2199   -3.3240   -7.9740 C   0  0  0  0  0  0  0  0  0  0  0  0
    7.1759   -3.5891   -6.5074 C   0  0  0  0  0  0  0  0  0  0  0  0
    6.3847   -3.1661   -5.6934 O   0  0  0  0  0  0  0  0  0  0  0  0
    8.2161   -4.6070   -6.2657 C   0  0  0  0  0  0  0  0  0  0  0  0
    8.5424   -5.2226   -5.0916 C   0  0  0  0  0  0  0  0  0  0  0  0
    9.5455   -6.2170   -5.0890 C   0  0  0  0  0  0  0  0  0  0  0  0
    9.9166   -6.8874   -3.9054 C   0  0  0  0  0  0  0  0  0  0  0  0
   10.8782   -7.8589   -3.9181 C   0  0  0  0  0  0  0  0  0  0  0  0
   11.4995   -8.1821   -5.1323 C   0  0  0  0  0  0  0  0  0  0  0  0
   12.4433   -9.1405   -5.1245 F   0  0  0  0  0  0  0  0  0  0  0  0
   11.1793   -7.5620   -6.3078 C   0  0  0  0  0  0  0  0  0  0  0  0
   10.1894   -6.5598   -6.3138 C   0  0  0  0  0  0  0  0  0  0  0  0
    9.8314   -5.9046   -7.5148 C   0  0  0  0  0  0  0  0  0  0  0  0
    8.8600   -4.9388   -7.4912 C   0  0  0  0  0  0  0  0  0  0  0  0
    8.2919   -4.1142   -8.5505 C   0  0  0  0  0  0  0  0  0  0  0  0
    8.7597   -4.0140   -9.8330 C   0  0  0  0  0  0  0  0  0  0  0  0
    9.8387   -4.7673  -10.3406 C   0  0  0  0  0  0  0  0  0  0  0  0
   10.7068   -5.3575  -10.8050 N   0  0  0  0  0  0  0  0  0  0  0  0
    8.2578   -3.1105  -10.7943 C   0  0  0  0  0  0  0  0  0  0  0  0
    7.9201   -2.3810  -11.6136 N   0  0  0  0  0  0  0  0  0  0  0  0
    5.3835   -1.6965   -7.9905 C   0  0  0  0  0  0  0  0  0  0  0  0
    4.0394   -1.6103   -8.3052 C   0  0  0  0  0  0  0  0  0  0  0  0
    3.5240   -2.4387   -9.2271 F   0  0  0  0  0  0  0  0  0  0  0  0
    3.1794   -0.7279   -7.6459 C   0  0  0  0  0  0  0  0  0  0  0  0
    1.8776   -0.7384   -7.9874 F   0  0  0  0  0  0  0  0  0  0  0  0
    3.6292    0.1563   -6.6797 C   0  0  0  0  0  0  0  0  0  0  0  0
    5.0170    0.1148   -6.3526 C   0  0  0  0  0  0  0  0  0  0  0  0
    5.4884    0.8759   -5.3537 N   0  0  0  0  0  0  0  0  0  0  0  0
    6.7532    0.8067   -5.0225 C   0  0  0  0  0  0  0  0  0  0  0  0
    7.1674    1.6398   -3.8480 C   0  0  0  0  0  0  0  0  0  0  0  0
    7.9260    2.8986   -4.2714 C   0  0  0  0  0  0  0  0  0  0  0  0
    7.6478   -0.0132   -5.7699 C   0  0  0  0  0  0  0  0  0  0  0  0
    7.1932   -0.7785   -6.7291 N   0  0  0  0  0  0  0  0  0  0  0  0
    5.8840   -0.7891   -7.0111 C   0  0  0  0  0  0  0  0  0  0  0  0
    9.1294   -0.0787   -5.5479 C   0  0  0  0  0  0  0  0  0  0  0  0
    9.8762    0.5931   -6.7016 C   0  0  0  0  0  0  0  0  0  0  0  0
    2.7338    1.0303   -5.9598 C   0  0  0  0  0  0  0  0  0  0  0  0
    2.9109    2.3646   -5.6447 C   0  0  0  0  0  0  0  0  0  0  0  0
    3.9927    3.1954   -6.1653 C   0  0  0  0  0  0  0  0  0  0  0  0
    4.5212    4.2294   -5.3966 C   0  0  0  0  0  0  0  0  0  0  0  0
    5.5418    5.0136   -5.9001 C   0  0  0  0  0  0  0  0  0  0  0  0
    6.0596    4.7678   -7.1605 C   0  0  0  0  0  0  0  0  0  0  0  0
    5.5422    3.7438   -7.9441 C   0  0  0  0  0  0  0  0  0  0  0  0
    6.1328    3.4207   -9.2864 C   0  0  0  0  0  0  0  0  0  0  0  0
    7.2082    2.3421   -9.1386 C   0  0  0  0  0  0  0  0  0  0  0  0
    4.5004    2.9799   -7.4437 C   0  0  0  0  0  0  0  0  0  0  0  0
    1.8685    2.8267   -4.8133 C   0  0  0  0  0  0  0  0  0  0  0  0
    1.5099    4.3849   -4.1062 S   0  0  0  0  0  0  0  0  0  0  0  0
    0.1194    3.6964   -3.3423 C   0  0  0  0  0  0  0  0  0  0  0  0
   -0.9191    4.0806   -2.4813 C   0  0  0  0  0  0  0  0  0  0  0  0
   -1.2751    5.3493   -1.9756 C   0  0  0  0  0  0  0  0  0  0  0  0
   -2.4390    5.4618   -1.1459 C   0  0  0  0  0  0  0  0  0  0  0  0
   -2.6780    6.7098   -0.7751 N   0  0  0  0  0  0  0  0  0  0  0  0
   -1.5353    7.6621   -1.4163 S   0  0  0  0  0  0  0  0  0  0  0  0
   -0.6887    6.5168   -2.1884 N   0  0  0  0  0  0  0  0  0  0  0  0
   -3.1226    4.2849   -0.7710 C   0  0  0  0  0  0  0  0  0  0  0  0
   -4.1331    4.0842    0.1817 C   0  0  0  0  0  0  0  0  0  0  0  0
   -5.0811    4.9946    1.3099 S   0  0  0  0  0  0  0  0  0  0  0  0
   -5.6797    3.4944    1.9877 C   0  0  0  0  0  0  0  0  0  0  0  0
   -6.5246    3.2020    3.0795 C   0  0  0  0  0  0  0  0  0  0  0  0
   -7.2838    4.2157    3.8068 C   0  0  0  0  0  0  0  0  0  0  0  0
   -8.6126    3.9801    4.1545 C   0  0  0  0  0  0  0  0  0  0  0  0
   -9.3355    4.9541    4.8126 C   0  0  0  0  0  0  0  0  0  0  0  0
   -8.7482    6.1676    5.1290 C   0  0  0  0  0  0  0  0  0  0  0  0
   -7.4294    6.4241    4.7787 C   0  0  0  0  0  0  0  0  0  0  0  0
   -6.7661    7.7188    5.1536 C   0  0  0  0  0  0  0  0  0  0  0  0
   -5.9640    7.5527    6.4457 C   0  0  0  0  0  0  0  0  0  0  0  0
   -6.7092    5.4434    4.1145 C   0  0  0  0  0  0  0  0  0  0  0  0
   -6.6185    1.8343    3.2812 C   0  0  0  0  0  0  0  0  0  0  0  0
   -5.7893    0.9088    2.0443 S   0  0  0  0  0  0  0  0  0  0  0  0
   -5.1820    2.3636    1.3380 C   0  0  0  0  0  0  0  0  0  0  0  0
   -4.3126    2.7047    0.2942 C   0  0  0  0  0  0  0  0  0  0  0  0
   -3.4838    2.0523   -0.5744 N   0  0  0  0  0  0  0  0  0  0  0  0
   -2.7374    2.9980   -1.2524 C   0  0  0  0  0  0  0  0  0  0  0  0
   -1.6873    2.9118   -2.2084 C   0  0  0  0  0  0  0  0  0  0  0  0
   -1.1564    1.8686   -2.9482 N   0  0  0  0  0  0  0  0  0  0  0  0
   -0.0608    2.3403   -3.6209 C   0  0  0  0  0  0  0  0  0  0  0  0
    0.9249    1.8486   -4.4870 C   0  0  0  0  0  0  0  0  0  0  0  0
    1.2833    0.3485   -5.2595 S   0  0  0  0  0  0  0  0  0  0  0  0
   -1.6960    0.5717   -3.2869 C   0  0  0  0  0  0  0  0  0  0  0  0
   -0.8877   -0.5740   -2.6752 C   0  0  0  0  0  0  0  0  0  0  0  0
   -3.4150    0.6126   -0.5144 C   0  0  0  0  0  0  0  0  0  0  0  0
   -4.6008   -0.0423   -1.2224 C   0  0  0  0  0  0  0  0  0  0  0  0
   -7.1079    1.0873    4.4094 C   0  0  0  0  0  0  0  0  0  0  0  0
   -7.0409    1.5676    5.7130 C   0  0  0  0  0  0  0  0  0  0  0  0
   -6.6488    2.8497    5.9209 O   0  0  0  0  0  0  0  0  0  0  0  0
   -5.5253    3.0821    6.7646 C   0  0  0  0  0  0  0  0  0  0  0  0
   -4.2293    2.6683    6.0785 C   0  0  0  0  0  0  0  0  0  0  0  0
   -7.4205    0.7469    6.8186 C   0  0  0  0  0  0  0  0  0  0  0  0
   -7.5192    1.4080    7.9858 O   0  0  0  0  0  0  0  0  0  0  0  0
   -8.3810    0.9857    9.0341 C   0  0  0  0  0  0  0  0  0  0  0  0
   -7.6311    0.9439   10.3575 C   0  0  0  0  0  0  0  0  0  0  0  0
   -7.7058   -0.6069    6.6305 C   0  0  0  0  0  0  0  0  0  0  0  0
   -7.8706   -1.0887    5.2998 C   0  0  0  0  0  0  0  0  0  0  0  0
   -7.5663   -0.2493    4.1982 C   0  0  0  0  0  0  0  0  0  0  0  0
   -7.6560   -0.7176    2.9472 N   0  0  0  0  0  0  0  0  0  0  0  0
   -8.0427   -1.9580    2.7731 C   0  0  0  0  0  0  0  0  0  0  0  0
   -8.3465   -2.7849    3.8626 C   0  0  0  0  0  0  0  0  0  0  0  0
   -8.2452   -2.3639    5.0996 N   0  0  0  0  0  0  0  0  0  0  0  0
   -7.7365   -1.5960    7.6733 C   0  0  0  0  0  0  0  0  0  0  0  0
   -6.7508   -1.7389    8.6031 C   0  0  0  0  0  0  0  0  0  0  0  0
   -5.4310   -1.0660    8.5196 C   0  0  0  0  0  0  0  0  0  0  0  0
   -5.1106   -0.1235    7.8256 O   0  0  0  0  0  0  0  0  0  0  0  0
   -4.5456   -1.8423    9.4097 C   0  0  0  0  0  0  0  0  0  0  0  0
   -3.2068   -1.6850    9.6236 C   0  0  0  0  0  0  0  0  0  0  0  0
   -2.5439   -2.5608   10.5122 C   0  0  0  0  0  0  0  0  0  0  0  0
   -1.1621   -2.4442   10.7662 C   0  0  0  0  0  0  0  0  0  0  0  0
   -0.5275   -3.3048   11.6182 C   0  0  0  0  0  0  0  0  0  0  0  0
   -1.2740   -4.3126   12.2436 C   0  0  0  0  0  0  0  0  0  0  0  0
   -0.6318   -5.1510   13.0769 F   0  0  0  0  0  0  0  0  0  0  0  0
   -2.6164   -4.4676   12.0352 C   0  0  0  0  0  0  0  0  0  0  0  0
   -3.2865   -3.5901   11.1609 C   0  0  0  0  0  0  0  0  0  0  0  0
   -4.6750   -3.7245   10.9253 C   0  0  0  0  0  0  0  0  0  0  0  0
   -5.2963   -2.8604   10.0642 C   0  0  0  0  0  0  0  0  0  0  0  0
   -6.6853   -2.7523    9.6362 C   0  0  0  0  0  0  0  0  0  0  0  0
   -7.7614   -3.4007   10.1812 C   0  0  0  0  0  0  0  0  0  0  0  0
   -9.0961   -3.1081    9.8309 C   0  0  0  0  0  0  0  0  0  0  0  0
  -10.1978   -2.8657    9.6175 N   0  0  0  0  0  0  0  0  0  0  0  0
   -7.6628   -4.3727   11.1965 C   0  0  0  0  0  0  0  0  0  0  0  0
   -7.6278   -5.1749   12.0169 N   0  0  0  0  0  0  0  0  0  0  0  0
    6.1495   -2.7392   -9.7112 H   0  0  0  0  0  0  0  0  0  0  0  0
    8.0367   -4.9560   -4.1754 H   0  0  0  0  0  0  0  0  0  0  0  0
    9.4226   -6.6218   -2.9828 H   0  0  0  0  0  0  0  0  0  0  0  0
   11.1709   -8.3839   -3.0226 H   0  0  0  0  0  0  0  0  0  0  0  0
   11.6788   -7.8363   -7.2238 H   0  0  0  0  0  0  0  0  0  0  0  0
   10.3276   -6.1931   -8.4277 H   0  0  0  0  0  0  0  0  0  0  0  0
    7.7817    1.0435   -3.1698 H   0  0  0  0  0  0  0  0  0  0  0  0
    6.2560    1.9349   -3.3268 H   0  0  0  0  0  0  0  0  0  0  0  0
    7.3268    3.4723   -4.9737 H   0  0  0  0  0  0  0  0  0  0  0  0
    8.8739    2.6531   -4.7417 H   0  0  0  0  0  0  0  0  0  0  0  0
    8.1258    3.5167   -3.3995 H   0  0  0  0  0  0  0  0  0  0  0  0
    9.4125   -1.1335   -5.5171 H   0  0  0  0  0  0  0  0  0  0  0  0
    9.4036    0.3819   -4.6004 H   0  0  0  0  0  0  0  0  0  0  0  0
   10.9499    0.4914   -6.5645 H   0  0  0  0  0  0  0  0  0  0  0  0
    9.5953    0.1288   -7.6434 H   0  0  0  0  0  0  0  0  0  0  0  0
    9.6315    1.6517   -6.7546 H   0  0  0  0  0  0  0  0  0  0  0  0
    4.1459    4.4074   -4.4014 H   0  0  0  0  0  0  0  0  0  0  0  0
    5.9422    5.8191   -5.3015 H   0  0  0  0  0  0  0  0  0  0  0  0
    6.8667    5.3771   -7.5416 H   0  0  0  0  0  0  0  0  0  0  0  0
    6.5776    4.3153   -9.7258 H   0  0  0  0  0  0  0  0  0  0  0  0
    5.3522    3.0598   -9.9587 H   0  0  0  0  0  0  0  0  0  0  0  0
    6.7878    1.4417   -8.6941 H   0  0  0  0  0  0  0  0  0  0  0  0
    7.6280    2.0840  -10.1076 H   0  0  0  0  0  0  0  0  0  0  0  0
    8.0111    2.6962   -8.4954 H   0  0  0  0  0  0  0  0  0  0  0  0
    4.0679    2.2109   -8.0675 H   0  0  0  0  0  0  0  0  0  0  0  0
   -9.0729    3.0372    3.8976 H   0  0  0  0  0  0  0  0  0  0  0  0
  -10.3659    4.7693    5.0804 H   0  0  0  0  0  0  0  0  0  0  0  0
   -9.3205    6.9235    5.6479 H   0  0  0  0  0  0  0  0  0  0  0  0
   -7.5202    8.4954    5.2943 H   0  0  0  0  0  0  0  0  0  0  0  0
   -6.0950    8.0341    4.3520 H   0  0  0  0  0  0  0  0  0  0  0  0
   -5.4928    8.4921    6.7259 H   0  0  0  0  0  0  0  0  0  0  0  0
   -5.1883    6.8013    6.3145 H   0  0  0  0  0  0  0  0  0  0  0  0
   -6.6157    7.2348    7.2568 H   0  0  0  0  0  0  0  0  0  0  0  0
   -5.6784    5.6312    3.8518 H   0  0  0  0  0  0  0  0  0  0  0  0
   -1.6610    0.4742   -4.3779 H   0  0  0  0  0  0  0  0  0  0  0  0
   -2.7402    0.5332   -2.9868 H   0  0  0  0  0  0  0  0  0  0  0  0
   -1.4208   -1.5109   -2.8104 H   0  0  0  0  0  0  0  0  0  0  0  0
    0.0787   -0.6571   -3.1635 H   0  0  0  0  0  0  0  0  0  0  0  0
   -0.7094   -0.4188   -1.6132 H   0  0  0  0  0  0  0  0  0  0  0  0
   -3.4468    0.3298    0.5436 H   0  0  0  0  0  0  0  0  0  0  0  0
   -2.4668    0.2765   -0.9205 H   0  0  0  0  0  0  0  0  0  0  0  0
   -4.4740   -1.1211   -1.2308 H   0  0  0  0  0  0  0  0  0  0  0  0
   -5.5221    0.1922   -0.6960 H   0  0  0  0  0  0  0  0  0  0  0  0
   -4.6981    0.3091   -2.2476 H   0  0  0  0  0  0  0  0  0  0  0  0
   -5.6288    2.5538    7.7150 H   0  0  0  0  0  0  0  0  0  0  0  0
   -5.5495    4.1602    6.9390 H   0  0  0  0  0  0  0  0  0  0  0  0
   -3.3812    2.9754    6.6839 H   0  0  0  0  0  0  0  0  0  0  0  0
   -4.2030    1.5872    5.9627 H   0  0  0  0  0  0  0  0  0  0  0  0
   -4.1557    3.1345    5.0984 H   0  0  0  0  0  0  0  0  0  0  0  0
   -9.1771    1.7398    9.0924 H   0  0  0  0  0  0  0  0  0  0  0  0
   -8.8376    0.0163    8.8119 H   0  0  0  0  0  0  0  0  0  0  0  0
   -6.8267    0.2135   10.3278 H   0  0  0  0  0  0  0  0  0  0  0  0
   -8.3196    0.6791   11.1551 H   0  0  0  0  0  0  0  0  0  0  0  0
   -7.1995    1.9189   10.5670 H   0  0  0  0  0  0  0  0  0  0  0  0
   -8.1073   -2.3070    1.7522 H   0  0  0  0  0  0  0  0  0  0  0  0
   -8.6681   -3.8085    3.7280 H   0  0  0  0  0  0  0  0  0  0  0  0
   -8.4888   -2.3688    7.5706 H   0  0  0  0  0  0  0  0  0  0  0  0
   -2.6591   -0.9029    9.1193 H   0  0  0  0  0  0  0  0  0  0  0  0
   -0.6084   -1.6603   10.2717 H   0  0  0  0  0  0  0  0  0  0  0  0
    0.5290   -3.2308   11.8215 H   0  0  0  0  0  0  0  0  0  0  0  0
   -3.1594   -5.2539   12.5358 H   0  0  0  0  0  0  0  0  0  0  0  0
   -5.2119   -4.5153   11.4248 H   0  0  0  0  0  0  0  0  0  0  0  0
  1  2  2  0  0  0  0
  2  3  1  0  0  0  0
  3  4  2  0  0  0  0
  3  5  1  0  0  0  0
  5  6  2  0  0  0  0
  6  7  1  0  0  0  0
  7  8  2  0  0  0  0
  8  9  1  0  0  0  0
  9 10  2  0  0  0  0
 10 11  1  0  0  0  0
 10 12  1  0  0  0  0
 12 13  2  0  0  0  0
 13 14  1  0  0  0  0
 14 15  2  0  0  0  0
 15 16  1  0  0  0  0
 16 17  2  0  0  0  0
 17 18  1  0  0  0  0
 18 19  3  0  0  0  0
 17 20  1  0  0  0  0
 20 21  3  0  0  0  0
  1 22  1  0  0  0  0
 22 23  2  0  0  0  0
 23 24  1  0  0  0  0
 23 25  1  0  0  0  0
 25 26  1  0  0  0  0
 25 27  2  0  0  0  0
 27 28  1  0  0  0  0
 28 29  2  0  0  0  0
 29 30  1  0  0  0  0
 30 31  1  0  0  0  0
 31 32  1  0  0  0  0
 30 33  2  0  0  0  0
 33 34  1  0  0  0  0
 34 35  2  0  0  0  0
 33 36  1  0  0  0  0
 36 37  1  0  0  0  0
 27 38  1  0  0  0  0
 38 39  2  0  0  0  0
 39 40  1  0  0  0  0
 40 41  2  0  0  0  0
 41 42  1  0  0  0  0
 42 43  2  0  0  0  0
 43 44  1  0  0  0  0
 44 45  1  0  0  0  0
 45 46  1  0  0  0  0
 44 47  2  0  0  0  0
 39 48  1  0  0  0  0
 48 49  1  0  0  0  0
 49 50  1  0  0  0  0
 50 51  1  0  0  0  0
 51 52  1  0  0  0  0
 52 53  1  0  0  0  0
 53 54  2  0  0  0  0
 54 55  1  0  0  0  0
 55 56  1  0  0  0  0
 53 57  1  0  0  0  0
 57 58  1  0  0  0  0
 58 59  1  0  0  0  0
 59 60  1  0  0  0  0
 60 61  1  0  0  0  0
 61 62  1  0  0  0  0
 62 63  2  0  0  0  0
 63 64  1  0  0  0  0
 64 65  2  0  0  0  0
 65 66  1  0  0  0  0
 66 67  1  0  0  0  0
 67 68  1  0  0  0  0
 66 69  2  0  0  0  0
 61 70  2  0  0  0  0
 70 71  1  0  0  0  0
 71 72  1  0  0  0  0
 72 73  1  0  0  0  0
 73 74  1  0  0  0  0
 74 75  1  0  0  0  0
 75 76  1  0  0  0  0
 76 77  1  0  0  0  0
 77 78  1  0  0  0  0
 78 79  1  0  0  0  0
 79 80  1  0  0  0  0
 77 81  1  0  0  0  0
 81 82  1  0  0  0  0
 74 83  1  0  0  0  0
 83 84  1  0  0  0  0
 70 85  1  0  0  0  0
 85 86  2  0  0  0  0
 86 87  1  0  0  0  0
 87 88  1  0  0  0  0
 88 89  1  0  0  0  0
 86 90  1  0  0  0  0
 90 91  1  0  0  0  0
 91 92  1  0  0  0  0
 92 93  1  0  0  0  0
 90 94  2  0  0  0  0
 94 95  1  0  0  0  0
 95 96  2  0  0  0  0
 96 97  1  0  0  0  0
 97 98  2  0  0  0  0
 98 99  1  0  0  0  0
 99100  2  0  0  0  0
 94101  1  0  0  0  0
101102  2  0  0  0  0
102103  1  0  0  0  0
103104  2  0  0  0  0
103105  1  0  0  0  0
105106  2  0  0  0  0
106107  1  0  0  0  0
107108  2  0  0  0  0
108109  1  0  0  0  0
109110  2  0  0  0  0
110111  1  0  0  0  0
110112  1  0  0  0  0
112113  2  0  0  0  0
113114  1  0  0  0  0
114115  2  0  0  0  0
115116  1  0  0  0  0
116117  2  0  0  0  0
117118  1  0  0  0  0
118119  3  0  0  0  0
117120  1  0  0  0  0
120121  3  0  0  0  0
 16  2  1  0  0  0  0
 35 22  1  0  0  0  0
 80 38  1  0  0  0  0
 96 85  1  0  0  0  0
116102  1  0  0  0  0
 15  5  1  0  0  0  0
 35 28  1  0  0  0  0
 47 40  1  0  0  0  0
 79 48  2  0  0  0  0
100 95  1  0  0  0  0
115105  1  0  0  0  0
 13  7  1  0  0  0  0
 78 50  2  0  0  0  0
113107  1  0  0  0  0
 76 51  2  0  0  0  0
 56 52  2  0  0  0  0
 75 57  2  0  0  0  0
 73 58  2  0  0  0  0
 72 60  2  0  0  0  0
 69 62  1  0  0  0  0
  1122  1  0  0  0  0
  6123  1  0  0  0  0
  8124  1  0  0  0  0
  9125  1  0  0  0  0
 12126  1  0  0  0  0
 14127  1  0  0  0  0
 31128  1  0  0  0  0
 31129  1  0  0  0  0
 32130  1  0  0  0  0
 32131  1  0  0  0  0
 32132  1  0  0  0  0
 36133  1  0  0  0  0
 36134  1  0  0  0  0
 37135  1  0  0  0  0
 37136  1  0  0  0  0
 37137  1  0  0  0  0
 41138  1  0  0  0  0
 42139  1  0  0  0  0
 43140  1  0  0  0  0
 45141  1  0  0  0  0
 45142  1  0  0  0  0
 46143  1  0  0  0  0
 46144  1  0  0  0  0
 46145  1  0  0  0  0
 47146  1  0  0  0  0
 63147  1  0  0  0  0
 64148  1  0  0  0  0
 65149  1  0  0  0  0
 67150  1  0  0  0  0
 67151  1  0  0  0  0
 68152  1  0  0  0  0
 68153  1  0  0  0  0
 68154  1  0  0  0  0
 69155  1  0  0  0  0
 81156  1  0  0  0  0
 81157  1  0  0  0  0
 82158  1  0  0  0  0
 82159  1  0  0  0  0
 82160  1  0  0  0  0
 83161  1  0  0  0  0
 83162  1  0  0  0  0
 84163  1  0  0  0  0
 84164  1  0  0  0  0
 84165  1  0  0  0  0
 88166  1  0  0  0  0
 88167  1  0  0  0  0
 89168  1  0  0  0  0
 89169  1  0  0  0  0
 89170  1  0  0  0  0
 92171  1  0  0  0  0
 92172  1  0  0  0  0
 93173  1  0  0  0  0
 93174  1  0  0  0  0
 93175  1  0  0  0  0
 98176  1  0  0  0  0
 99177  1  0  0  0  0
101178  1  0  0  0  0
106179  1  0  0  0  0
108180  1  0  0  0  0
109181  1  0  0  0  0
112182  1  0  0  0  0
114183  1  0  0  0  0
M  END
