175

C          5.45100       -0.76520       -9.26470
C          4.63960       -1.37210      -10.16760
C          3.25070       -1.82160       -9.86280
O          2.64910       -1.73140       -8.81480
C          2.68920       -2.25900      -11.15410
C          1.44240       -2.75140      -11.41240
C          1.09050       -3.07710      -12.74070
C         -0.18250       -3.59100      -13.06240
C         -0.51470       -3.89200      -14.35380
C          0.43450       -3.68380      -15.36410
F          0.08940       -3.98720      -16.62840
C          1.68270       -3.18900      -15.10720
C          2.04210       -2.87260      -13.78230
C          3.32490       -2.35690      -13.48520
C          3.64740       -2.05830      -12.18740
C          4.87120       -1.53430      -11.59130
C          6.05830       -1.33350      -12.24330
C          7.25900       -0.92950      -11.62100
N          8.27740       -0.63630      -11.18010
C          6.24580       -1.54030      -13.62620
N          6.45630       -1.68800      -14.74490
C          5.25290       -0.87720       -7.84590
C          5.45050        0.18500       -6.98160
F          5.80980        1.37940       -7.47590
C          5.22490        0.07290       -5.60740
F          5.40920        1.16700       -4.84530
C          4.83610       -1.11820       -5.01580
C          4.65520       -2.24290       -5.87500
N          4.17380       -3.39240       -5.37900
C          3.96990       -4.41270       -6.17350
C          3.34320       -5.61950       -5.54430
C          4.35430       -6.74020       -5.29740
C          4.34460       -4.33820       -7.54670
N          4.78060       -3.21090       -8.04690
C          4.88700       -2.12810       -7.26630
C          4.28260       -5.48480       -8.51110
C          5.68930       -5.98970       -8.83820
C          4.53290       -1.21090       -3.60820
C          4.86340       -2.22630       -2.72840
C          5.79710       -3.30540       -3.03650
C          5.63940       -4.56720       -2.46900
C          6.54320       -5.57220       -2.75780
C          7.59930       -5.34050       -3.62340
C          7.77800       -4.08590       -4.19210
C          8.88460       -3.82340       -5.17290
C          8.35550       -3.92470       -6.60510
C          6.88340       -3.07610       -3.87660
C          4.25860       -2.01730       -1.47080
S          4.25880       -2.91980        0.02720
C          3.20240       -1.73860        0.72380
C          2.50580       -1.50240        1.92340
C          2.50230       -2.14520        3.18160
C          1.69390       -1.60240        4.24200
N          1.83400       -2.27260        5.37450
S          2.88220       -3.48220        5.13250
N          3.20020       -3.20020        3.57030
C          0.81510       -0.53120        3.96070
C         -0.23660        0.04600        4.69320
S         -0.96000       -0.05700        6.26230
C         -2.18490        1.08570        5.75740
C         -3.32300        1.62720        6.39430
C         -3.78980        1.21150        7.71400
C         -2.87770        0.87600        8.71150
C         -3.32750        0.41820        9.93550
C         -4.68450        0.30470       10.18660
C         -5.61060        0.64490        9.20790
C         -7.08440        0.49670        9.45680
C         -7.56690       -0.88870        9.02320
C         -5.15140        1.07690        7.97430
C         -4.00280        2.48050        5.54310
S         -3.26900        2.59380        3.95700
C         -2.01890        1.50990        4.43700
C         -0.90280        0.92120        3.83050
N         -0.28930        0.94320        2.60440
C          0.77950        0.06410        2.67140
C          1.73950       -0.32640        1.71020
N          2.02340        0.18420        0.45710
C          2.88980       -0.69100       -0.14840
C          3.49580       -0.84900       -1.39980
S          3.51690        0.01890       -2.88820
C          1.98570        1.58100        0.07840
C          3.38580        2.19240        0.04240
C         -1.04450        1.34750        1.43340
C         -1.45420        0.14740        0.58540
C         -5.15970        3.29860        5.81060
C         -6.19470        3.41230        4.89470
F         -6.16910        2.67680        3.76900
C         -7.30850        4.22560        5.11370
F         -8.30660        4.16930        4.22400
C         -7.43770        4.99010        6.26240
C         -6.40260        4.88010        7.23450
N         -6.48950        5.62040        8.35220
C         -5.51210        5.58390        9.22420
C         -5.65810        6.50390       10.39770
C         -5.11190        7.88910       10.03910
C         -4.36160        4.77640        8.98960
N         -4.26850        4.04440        7.90680
C         -5.26900        4.06270        7.01070
C         -3.20960        4.70230        9.94380
C         -3.51970        3.76390       11.11230
C         -8.56700        5.84020        6.52750
C         -9.17290        6.63520        5.61130
C         -8.56340        7.01320        4.30080
O         -7.49570        6.66300        3.86080
C         -9.48710        8.01340        3.72450
C         -9.42080        8.69940        2.52450
F         -8.41400        8.49800        1.67080
C        -10.41520        9.60950        2.18840
C        -11.46300        9.83240        3.06550
C        -11.54850        9.16160        4.27860
C        -10.55870        8.24810        4.60670
C        -10.39190        7.40280        5.78710
C        -11.26760        7.30580        6.83390
C        -12.45740        8.05620        6.95170
N        -13.43170        8.64090        7.11270
C        -11.12010        6.43590        7.93670
N        -11.08700        5.75530        8.86040
H          6.29740       -0.17480       -9.59080
H          0.73270       -2.89010      -10.61030
H         -0.89700       -3.74100      -12.26690
H         -1.48460       -4.28310      -14.61720
H          2.38790       -3.04190      -15.91020
H          4.01850       -2.20370      -14.29630
H          2.92670       -5.30240       -4.58750
H          2.53050       -5.98340       -6.17680
H          4.74830       -7.13480       -6.22960
H          3.87490       -7.55300       -4.75730
H          5.18150       -6.36660       -4.69980
H          3.82190       -5.11820       -9.43150
H          3.67230       -6.29510       -8.11590
H          5.64130       -6.77830       -9.58510
H          6.29340       -5.17350       -9.22620
H          6.17440       -6.38430       -7.94790
H          4.80260       -4.76470       -1.81780
H          6.42010       -6.54730       -2.30900
H          8.29310       -6.13640       -3.85400
H          9.68880       -4.54790       -5.03320
H          9.29250       -2.82340       -5.01170
H          7.55440       -3.20610       -6.76900
H          9.14890       -3.72520       -7.32110
H          7.96140       -4.92120       -6.79220
H          7.04500       -2.08760       -4.28220
H         -1.81960        0.98790        8.53420
H         -2.61440        0.15350       10.70260
H         -5.02880       -0.04650       11.14870
H         -7.29510        0.63540       10.51910
H         -7.63120        1.26010        8.89880
H         -8.63440       -0.99180        9.20240
H         -7.37590       -1.04150        7.96340
H         -7.04360       -1.66290        9.57980
H         -5.86780        1.29850        7.19620
H          1.40530        2.11740        0.82600
H          1.51100        1.67640       -0.90360
H          3.30820        3.25710       -0.15960
H          3.99540        1.74180       -0.73470
H          3.88070        2.05390        1.00140
H         -1.93780        1.85600        1.80340
H         -0.49060        2.06380        0.82540
H         -2.08270        0.47970       -0.23600
H         -2.01540       -0.56400        1.18700
H         -0.58250       -0.35650        0.17610
H         -5.13550        6.11660       11.27010
H         -6.72050        6.59240       10.62800
H         -5.65070        8.29150        9.18510
H         -4.05510        7.83730        9.78530
H         -5.23380        8.56660       10.88030
H         -2.96850        5.69710       10.32090
H         -2.35090        4.31240        9.39640
H         -2.66610        3.71750       11.78390
H         -3.72490        2.76460       10.73950
H         -4.38540        4.10220       11.67670
H         -8.88950        5.85250        7.56010
H        -10.35440       10.13020        1.24580
H        -12.23010       10.54370        2.80110
H        -12.37290        9.35980        4.94280
