175

C         -5.74250        9.40620        2.08610
C         -7.07670        9.27580        2.34700
C         -7.72130        8.19350        3.11180
O         -7.18120        7.24110        3.64500
C         -9.15180        8.53790        3.17930
C        -10.17110        7.83580        3.75330
C        -11.48380        8.35480        3.69440
C        -12.57520        7.67040        4.26640
C        -13.84080        8.18370        4.20180
C        -14.04260        9.40900        3.55260
F        -15.29610        9.89720        3.49700
C        -13.01970       10.11360        2.98180
C        -11.70930        9.60060        3.04060
C        -10.63030       10.30890        2.46150
C         -9.36630        9.78600        2.52990
C         -8.08340       10.27620        2.03210
C         -7.89410       11.45690        1.36250
C         -6.67130       11.94550        0.85360
N         -5.73700       12.43600        0.39910
C         -8.92700       12.37660        1.08190
N         -9.71720       13.16970        0.82690
C         -4.67490        8.47380        2.20190
C         -3.37700        9.03050        2.32630
N         -3.15560       10.36990        2.33080
C         -1.91640       10.67340        2.38180
C         -1.38210       12.05530        2.35880
C         -2.50000       13.09100        2.34060
S         -0.82130        9.28890        2.47560
C         -2.21160        8.24390        2.42840
C         -2.25400        6.84610        2.38100
C         -3.52760        6.29520        2.14320
C         -4.70550        7.07750        2.08150
S         -6.04020        6.05200        1.69510
C         -4.93770        4.67800        1.66460
C         -5.43500        3.31440        1.36050
C         -5.99820        3.23450       -0.05860
N         -3.71980        4.96690        1.92620
C         -1.11080        5.98330        2.46050
C          0.07240        6.14780        3.16300
C          0.32090        7.15560        4.19180
C         -0.66670        7.47740        5.12160
C         -0.40690        8.41160        6.10460
C          0.83320        9.02370        6.17770
C          1.83290        8.70470        5.26810
C          3.20120        9.31300        5.37220
C          4.13800        8.37210        6.13250
C          1.56660        7.76690        4.28250
C          0.98790        5.12100        2.86150
S          2.61330        4.77970        3.41150
C          2.62460        3.35830        2.42360
C          3.49840        2.32310        2.05060
C          4.86460        2.10620        2.33420
C          5.54940        1.02810        1.67740
N          6.83640        0.98530        1.98390
S          7.15860        2.19160        3.01520
N          5.66860        2.81810        3.10820
C          4.80740        0.13970        0.86860
C          5.16590       -1.05920        0.23070
S          6.56940       -2.03930       -0.03190
C          5.56720       -3.21370       -0.85220
C          5.85040       -4.46350       -1.43690
C          7.17910       -5.07960       -1.39610
C          7.34110       -6.38530       -0.93780
C          8.60350       -6.94270       -0.87980
C          9.71020       -6.20840       -1.27190
C          9.56880       -4.89920       -1.71330
C         10.76070       -4.10870       -2.17020
C         10.98640       -4.30200       -3.67120
C          8.29810       -4.34460       -1.76950
C          4.70690       -5.03720       -1.96840
S          3.27750       -4.05140       -1.70830
C          4.22050       -2.84700       -0.90680
C          3.99350       -1.60850       -0.29450
N          2.93050       -0.78820       -0.02570
C          3.40840        0.30810        0.66810
C          2.77930        1.48160        1.15660
N          1.51440        2.01790        0.96410
C          1.43340        3.15650        1.72420
C          0.49650        4.16930        1.96530
S         -1.12980        4.51720        1.49990
C          0.64500        1.90280       -0.18730
C          1.32070        2.46340       -1.43700
C          1.58330       -1.30000       -0.13510
C          1.07060       -1.28290       -1.57430
C          4.57020       -6.23390       -2.72620
S          2.98090       -6.97140       -2.88620
C          3.64880       -8.22560       -3.86440
C          3.28660       -9.38150       -4.54970
C          4.48540       -9.88400       -5.13340
N          5.53660       -9.05320       -4.83230
C          6.92640       -9.26220       -5.14680
C          7.68920       -9.84570       -3.95920
C          5.03940       -8.04920       -4.04700
C          5.55390       -6.91920       -3.41060
C          4.28680      -11.04470       -5.85060
C          2.94540      -11.45280       -5.83750
S          1.91740      -10.35940       -4.90580
C          2.53560      -12.60650       -6.51130
C          1.29220      -13.18140       -6.64000
C          0.04980      -12.67020       -6.05570
O         -0.09530      -11.67520       -5.36630
C         -1.01260      -13.60470       -6.46790
C         -2.34560      -13.56470       -6.18180
C         -3.18920      -14.57730       -6.69190
C         -4.57340      -14.58840       -6.42670
C         -5.37900      -15.57330       -6.92780
C         -4.80700      -16.58020       -7.71610
F         -5.61590      -17.54100       -8.20190
C         -3.47070      -16.61700       -8.00300
C         -2.62630      -15.61150       -7.49390
C         -1.23870      -15.62530       -7.77190
C         -0.44030      -14.63590       -7.26450
C          0.99690      -14.39000       -7.37770
C          1.87800      -15.18790       -8.06660
C          1.50890      -16.36010       -8.75730
N          1.28130      -17.32480       -9.33780
C          3.26490      -14.97380       -8.19330
N          4.40050      -14.88010       -8.34670
H         -5.39170       10.38230        1.77410
H         -9.97900        6.89280        4.24290
H        -12.39440        6.72790        4.76120
H        -14.68630        7.67350        4.63550
H        -13.21200       11.05450        2.49020
H        -10.83600       11.25000        1.97770
H         -0.73750       12.19680        3.23170
H         -0.74880       12.16530        1.47320
H         -3.14810       12.93440        1.48320
H         -3.10480       13.00660        3.23900
H         -2.07990       14.09190        2.29090
H         -6.21900        3.05370        2.07560
H         -4.60390        2.61780        1.48010
H         -6.35410        2.22820       -0.26280
H         -5.22900        3.48620       -0.78490
H         -6.82750        3.92830       -0.17620
H         -1.62920        6.98890        5.07260
H         -1.17510        8.66190        6.82160
H          1.02680        9.75410        6.95020
H          3.14580       10.27050        5.89360
H          3.60360        9.48920        4.37250
H          4.20670        7.41410        5.62240
H          5.13430        8.80210        6.20300
H          3.76250        8.19770        7.13840
H          2.33040        7.52460        3.55840
H          6.47720       -6.95130       -0.62190
H          8.72760       -7.95420       -0.52070
H         10.69410       -6.65230       -1.22410
H         11.65020       -4.43390       -1.62770
H         10.60100       -3.04910       -1.96290
H         11.84750       -3.72720       -4.00310
H         10.11340       -3.97320       -4.23100
H         11.16260       -5.35180       -3.89620
H          8.17350       -3.32890       -2.11600
H         -0.25090        2.48580        0.04020
H          0.33830        0.87390       -0.35140
H          2.23660        1.91750       -1.65480
H          0.65090        2.38690       -2.28920
H          1.57420        3.51050       -1.28810
H          0.93920       -0.73570        0.54030
H          1.59470       -2.33840        0.21600
H          1.16360       -0.29680       -2.01990
H          1.64090       -1.98250       -2.17920
H          0.02740       -1.58600       -1.59630
H          6.98000       -9.93980       -6.00160
H          7.36480       -8.30160       -5.43480
H          7.64430       -9.16540       -3.11170
H          7.25690      -10.79900       -3.66470
H          8.73040      -10.00140       -4.22690
H          6.57680       -6.59550       -3.44850
H          5.04410      -11.60220       -6.37230
H          3.35240      -13.11370       -7.01040
H         -2.75240      -12.77050       -5.57390
H         -4.99080      -13.80090       -5.81730
H         -6.43970      -15.59660       -6.73400
H         -3.06470      -17.40860       -8.61330
H         -0.84640      -16.42280       -8.38170
