
  xtb     02042214083D
 energy: -286.200672677165 gnorm: 0.000411254776 xtb: 6.4.1 (unknown)
158175  0     0  0            999 V2000
   -8.2974    0.0258    1.6396 C   0  0  0  0  0  0  0  0  0  0  0  0
   -8.3322    0.8616    0.5731 C   0  0  0  0  0  0  0  0  0  0  0  0
   -7.1181    1.3571   -0.1444 C   0  0  0  0  0  0  0  0  0  0  0  0
   -5.9546    1.1638    0.1390 O   0  0  0  0  0  0  0  0  0  0  0  0
   -7.6190    2.2597   -1.1905 C   0  0  0  0  0  0  0  0  0  0  0  0
   -6.9056    2.9277   -2.1447 C   0  0  0  0  0  0  0  0  0  0  0  0
   -7.5876    3.7720   -3.0469 C   0  0  0  0  0  0  0  0  0  0  0  0
   -6.8990    4.4753   -4.0566 C   0  0  0  0  0  0  0  0  0  0  0  0
   -7.5671    5.3026   -4.9157 C   0  0  0  0  0  0  0  0  0  0  0  0
   -8.9556    5.4425   -4.7808 C   0  0  0  0  0  0  0  0  0  0  0  0
   -9.5947    6.2633   -5.6339 F   0  0  0  0  0  0  0  0  0  0  0  0
   -9.6715    4.7788   -3.8236 C   0  0  0  0  0  0  0  0  0  0  0  0
   -9.0004    3.9212   -2.9299 C   0  0  0  0  0  0  0  0  0  0  0  0
   -9.7122    3.2149   -1.9327 C   0  0  0  0  0  0  0  0  0  0  0  0
   -9.0326    2.3874   -1.0771 C   0  0  0  0  0  0  0  0  0  0  0  0
   -9.4943    1.5320    0.0105 C   0  0  0  0  0  0  0  0  0  0  0  0
  -10.7988    1.3435    0.3781 C   0  0  0  0  0  0  0  0  0  0  0  0
  -11.2416    0.4631    1.3890 C   0  0  0  0  0  0  0  0  0  0  0  0
  -11.6848   -0.2376    2.1829 N   0  0  0  0  0  0  0  0  0  0  0  0
  -11.8941    2.0016   -0.2216 C   0  0  0  0  0  0  0  0  0  0  0  0
  -12.8260    2.5062   -0.6626 N   0  0  0  0  0  0  0  0  0  0  0  0
   -7.1234   -0.7334    1.9836 C   0  0  0  0  0  0  0  0  0  0  0  0
   -6.3386   -1.3504    0.9708 C   0  0  0  0  0  0  0  0  0  0  0  0
   -6.8080   -1.3965   -0.2942 N   0  0  0  0  0  0  0  0  0  0  0  0
   -6.0552   -1.9047   -1.2170 C   0  0  0  0  0  0  0  0  0  0  0  0
   -4.7486   -2.3964   -0.9242 C   0  0  0  0  0  0  0  0  0  0  0  0
   -4.0344   -2.8725   -1.9372 O   0  0  0  0  0  0  0  0  0  0  0  0
   -2.7188   -3.3523   -1.6710 C   0  0  0  0  0  0  0  0  0  0  0  0
   -1.6940   -2.2319   -1.7783 C   0  0  0  0  0  0  0  0  0  0  0  0
   -4.3077   -2.4294    0.3100 N   0  0  0  0  0  0  0  0  0  0  0  0
   -5.0917   -1.9330    1.2868 C   0  0  0  0  0  0  0  0  0  0  0  0
   -4.6279   -1.9924    2.6349 C   0  0  0  0  0  0  0  0  0  0  0  0
   -5.4735   -1.4821    3.6111 C   0  0  0  0  0  0  0  0  0  0  0  0
   -6.6938   -0.8817    3.2918 C   0  0  0  0  0  0  0  0  0  0  0  0
   -7.4076   -0.3307    4.2853 F   0  0  0  0  0  0  0  0  0  0  0  0
   -5.0867   -1.4517    4.8962 F   0  0  0  0  0  0  0  0  0  0  0  0
   -3.2817   -2.4234    2.9036 C   0  0  0  0  0  0  0  0  0  0  0  0
   -2.7322   -3.0427    4.0143 C   0  0  0  0  0  0  0  0  0  0  0  0
   -3.5007   -3.6917    5.0730 C   0  0  0  0  0  0  0  0  0  0  0  0
   -4.6617   -4.3992    4.7662 C   0  0  0  0  0  0  0  0  0  0  0  0
   -5.3672   -5.0331    5.7697 C   0  0  0  0  0  0  0  0  0  0  0  0
   -4.9252   -4.9712    7.0799 C   0  0  0  0  0  0  0  0  0  0  0  0
   -3.7649   -4.2788    7.4024 C   0  0  0  0  0  0  0  0  0  0  0  0
   -3.3066   -4.1680    8.8275 C   0  0  0  0  0  0  0  0  0  0  0  0
   -3.9199   -2.9296    9.4842 C   0  0  0  0  0  0  0  0  0  0  0  0
   -3.0602   -3.6447    6.3913 C   0  0  0  0  0  0  0  0  0  0  0  0
   -1.3223   -3.0637    3.9334 C   0  0  0  0  0  0  0  0  0  0  0  0
   -0.0542   -3.6616    4.9833 S   0  0  0  0  0  0  0  0  0  0  0  0
    1.1374   -3.1119    3.8478 C   0  0  0  0  0  0  0  0  0  0  0  0
    2.5378   -3.0165    3.7027 C   0  0  0  0  0  0  0  0  0  0  0  0
    3.6446   -3.2667    4.5496 C   0  0  0  0  0  0  0  0  0  0  0  0
    4.9670   -2.8501    4.1400 C   0  0  0  0  0  0  0  0  0  0  0  0
    5.8729   -3.0724    5.0779 N   0  0  0  0  0  0  0  0  0  0  0  0
    5.1464   -3.7514    6.3545 S   0  0  0  0  0  0  0  0  0  0  0  0
    3.6398   -3.7861    5.7662 N   0  0  0  0  0  0  0  0  0  0  0  0
    5.1680   -2.3337    2.8370 C   0  0  0  0  0  0  0  0  0  0  0  0
    6.2898   -1.9091    2.0963 C   0  0  0  0  0  0  0  0  0  0  0  0
    7.9834   -1.5645    2.2896 S   0  0  0  0  0  0  0  0  0  0  0  0
    8.0619   -1.0242    0.6187 C   0  0  0  0  0  0  0  0  0  0  0  0
    9.0435   -0.4071   -0.1689 C   0  0  0  0  0  0  0  0  0  0  0  0
   10.3837   -0.0878    0.3126 C   0  0  0  0  0  0  0  0  0  0  0  0
   11.0883   -1.0230    1.0689 C   0  0  0  0  0  0  0  0  0  0  0  0
   12.3519   -0.7208    1.5372 C   0  0  0  0  0  0  0  0  0  0  0  0
   12.9194    0.5134    1.2709 C   0  0  0  0  0  0  0  0  0  0  0  0
   12.2255    1.4659    0.5345 C   0  0  0  0  0  0  0  0  0  0  0  0
   12.8075    2.8312    0.3058 C   0  0  0  0  0  0  0  0  0  0  0  0
   12.4213    3.7704    1.4503 C   0  0  0  0  0  0  0  0  0  0  0  0
   10.9595    1.1557    0.0618 C   0  0  0  0  0  0  0  0  0  0  0  0
    8.5487   -0.0838   -1.4434 C   0  0  0  0  0  0  0  0  0  0  0  0
    6.8716   -0.5663   -1.6433 S   0  0  0  0  0  0  0  0  0  0  0  0
    6.8335   -1.1609   -0.0404 C   0  0  0  0  0  0  0  0  0  0  0  0
    5.8356   -1.6446    0.7981 C   0  0  0  0  0  0  0  0  0  0  0  0
    4.4883   -1.8594    0.6985 N   0  0  0  0  0  0  0  0  0  0  0  0
    4.0603   -2.2370    1.9520 C   0  0  0  0  0  0  0  0  0  0  0  0
    2.7544   -2.4076    2.4418 C   0  0  0  0  0  0  0  0  0  0  0  0
    1.5463   -2.0787    1.8578 N   0  0  0  0  0  0  0  0  0  0  0  0
    0.5702   -2.5162    2.7160 C   0  0  0  0  0  0  0  0  0  0  0  0
   -0.8243   -2.4839    2.7657 C   0  0  0  0  0  0  0  0  0  0  0  0
   -2.0827   -1.9477    1.7201 S   0  0  0  0  0  0  0  0  0  0  0  0
    1.3029   -0.9316    1.0052 C   0  0  0  0  0  0  0  0  0  0  0  0
    0.8647    0.2844    1.8221 C   0  0  0  0  0  0  0  0  0  0  0  0
    3.8924   -2.1937   -0.5805 C   0  0  0  0  0  0  0  0  0  0  0  0
    4.5501   -3.4347   -1.1832 C   0  0  0  0  0  0  0  0  0  0  0  0
    9.2711    0.4766   -2.5148 C   0  0  0  0  0  0  0  0  0  0  0  0
    8.7863    0.9652   -3.7027 C   0  0  0  0  0  0  0  0  0  0  0  0
    7.4392    1.1641   -4.0543 C   0  0  0  0  0  0  0  0  0  0  0  0
    7.0530    1.5660   -5.3084 C   0  0  0  0  0  0  0  0  0  0  0  0
    5.7621    1.8509   -5.7803 C   0  0  0  0  0  0  0  0  0  0  0  0
    4.4917    1.7660   -5.2380 C   0  0  0  0  0  0  0  0  0  0  0  0
    4.0422    1.1937   -3.9571 C   0  0  0  0  0  0  0  0  0  0  0  0
    4.6809    0.6050   -3.1004 O   0  0  0  0  0  0  0  0  0  0  0  0
    2.5827    1.4197   -3.8923 C   0  0  0  0  0  0  0  0  0  0  0  0
    1.7169    1.1110   -2.8832 C   0  0  0  0  0  0  0  0  0  0  0  0
    0.3498    1.4439   -3.0184 C   0  0  0  0  0  0  0  0  0  0  0  0
   -0.5889    1.1690   -2.0032 C   0  0  0  0  0  0  0  0  0  0  0  0
   -1.9062    1.5109   -2.1433 C   0  0  0  0  0  0  0  0  0  0  0  0
   -2.3135    2.1441   -3.3242 C   0  0  0  0  0  0  0  0  0  0  0  0
   -3.6127    2.4877   -3.4472 F   0  0  0  0  0  0  0  0  0  0  0  0
   -1.4479    2.4295   -4.3425 C   0  0  0  0  0  0  0  0  0  0  0  0
   -0.0882    2.0860   -4.2117 C   0  0  0  0  0  0  0  0  0  0  0  0
    0.8321    2.3826   -5.2443 C   0  0  0  0  0  0  0  0  0  0  0  0
    2.1523    2.0552   -5.0868 C   0  0  0  0  0  0  0  0  0  0  0  0
    3.3186    2.2456   -5.9485 C   0  0  0  0  0  0  0  0  0  0  0  0
    3.2533    2.7914   -7.2079 C   0  0  0  0  0  0  0  0  0  0  0  0
    4.3179    3.0155   -8.1059 C   0  0  0  0  0  0  0  0  0  0  0  0
    5.0952    3.2480   -8.9207 N   0  0  0  0  0  0  0  0  0  0  0  0
    2.0555    3.2139   -7.8217 C   0  0  0  0  0  0  0  0  0  0  0  0
    1.1252    3.5770   -8.3896 N   0  0  0  0  0  0  0  0  0  0  0  0
   -9.1577   -0.0894    2.2854 H   0  0  0  0  0  0  0  0  0  0  0  0
   -5.8358    2.8092   -2.2180 H   0  0  0  0  0  0  0  0  0  0  0  0
   -5.8306    4.3448   -4.1373 H   0  0  0  0  0  0  0  0  0  0  0  0
   -7.0582    5.8504   -5.6929 H   0  0  0  0  0  0  0  0  0  0  0  0
  -10.7402    4.9086   -3.7523 H   0  0  0  0  0  0  0  0  0  0  0  0
  -10.7801    3.3498   -1.8711 H   0  0  0  0  0  0  0  0  0  0  0  0
   -6.4492   -1.9627   -2.2209 H   0  0  0  0  0  0  0  0  0  0  0  0
   -2.6909   -3.8018   -0.6744 H   0  0  0  0  0  0  0  0  0  0  0  0
   -2.5386   -4.1156   -2.4318 H   0  0  0  0  0  0  0  0  0  0  0  0
   -1.8982   -1.4738   -1.0272 H   0  0  0  0  0  0  0  0  0  0  0  0
   -0.6983   -2.6361   -1.6189 H   0  0  0  0  0  0  0  0  0  0  0  0
   -1.7368   -1.7724   -2.7628 H   0  0  0  0  0  0  0  0  0  0  0  0
   -4.9969   -4.4626    3.7405 H   0  0  0  0  0  0  0  0  0  0  0  0
   -6.2661   -5.5815    5.5287 H   0  0  0  0  0  0  0  0  0  0  0  0
   -5.4841   -5.4684    7.8595 H   0  0  0  0  0  0  0  0  0  0  0  0
   -3.6066   -5.0580    9.3841 H   0  0  0  0  0  0  0  0  0  0  0  0
   -2.2180   -4.0930    8.8606 H   0  0  0  0  0  0  0  0  0  0  0  0
   -3.6298   -2.0325    8.9423 H   0  0  0  0  0  0  0  0  0  0  0  0
   -5.0055   -2.9953    9.4757 H   0  0  0  0  0  0  0  0  0  0  0  0
   -3.5843   -2.8393   10.5146 H   0  0  0  0  0  0  0  0  0  0  0  0
   -2.1664   -3.0891    6.6339 H   0  0  0  0  0  0  0  0  0  0  0  0
   10.6489   -1.9882    1.2698 H   0  0  0  0  0  0  0  0  0  0  0  0
   12.8980   -1.4517    2.1147 H   0  0  0  0  0  0  0  0  0  0  0  0
   13.9072    0.7439    1.6428 H   0  0  0  0  0  0  0  0  0  0  0  0
   13.8955    2.7647    0.2463 H   0  0  0  0  0  0  0  0  0  0  0  0
   12.4372    3.2409   -0.6362 H   0  0  0  0  0  0  0  0  0  0  0  0
   12.8407    4.7604    1.2879 H   0  0  0  0  0  0  0  0  0  0  0  0
   12.7932    3.3859    2.3972 H   0  0  0  0  0  0  0  0  0  0  0  0
   11.3392    3.8580    1.5189 H   0  0  0  0  0  0  0  0  0  0  0  0
   10.3970    1.9019   -0.4815 H   0  0  0  0  0  0  0  0  0  0  0  0
    2.2219   -0.6766    0.4815 H   0  0  0  0  0  0  0  0  0  0  0  0
    0.5254   -1.2009    0.2829 H   0  0  0  0  0  0  0  0  0  0  0  0
    0.7770    1.1522    1.1734 H   0  0  0  0  0  0  0  0  0  0  0  0
   -0.0954    0.1111    2.2992 H   0  0  0  0  0  0  0  0  0  0  0  0
    1.6029    0.5015    2.5911 H   0  0  0  0  0  0  0  0  0  0  0  0
    2.8332   -2.4025   -0.4385 H   0  0  0  0  0  0  0  0  0  0  0  0
    4.0212   -1.3442   -1.2601 H   0  0  0  0  0  0  0  0  0  0  0  0
    5.6032   -3.2594   -1.3832 H   0  0  0  0  0  0  0  0  0  0  0  0
    4.0605   -3.6840   -2.1204 H   0  0  0  0  0  0  0  0  0  0  0  0
    4.4581   -4.2791   -0.5030 H   0  0  0  0  0  0  0  0  0  0  0  0
   10.3457    0.4905   -2.3753 H   0  0  0  0  0  0  0  0  0  0  0  0
    9.5236    1.2551   -4.4422 H   0  0  0  0  0  0  0  0  0  0  0  0
    6.6699    1.0320   -3.3125 H   0  0  0  0  0  0  0  0  0  0  0  0
    7.8376    1.7038   -6.0447 H   0  0  0  0  0  0  0  0  0  0  0  0
    5.7730    2.2343   -6.7934 H   0  0  0  0  0  0  0  0  0  0  0  0
    2.0701    0.6279   -1.9839 H   0  0  0  0  0  0  0  0  0  0  0  0
   -0.2489    0.6846   -1.1006 H   0  0  0  0  0  0  0  0  0  0  0  0
   -2.6352    1.3120   -1.3730 H   0  0  0  0  0  0  0  0  0  0  0  0
   -1.7980    2.9180   -5.2385 H   0  0  0  0  0  0  0  0  0  0  0  0
    0.4623    2.8697   -6.1312 H   0  0  0  0  0  0  0  0  0  0  0  0
  1  2  2  0  0  0  0
  2  3  1  0  0  0  0
  3  4  2  0  0  0  0
  3  5  1  0  0  0  0
  5  6  2  0  0  0  0
  6  7  1  0  0  0  0
  7  8  2  0  0  0  0
  8  9  1  0  0  0  0
  9 10  2  0  0  0  0
 10 11  1  0  0  0  0
 10 12  1  0  0  0  0
 12 13  2  0  0  0  0
 13 14  1  0  0  0  0
 14 15  2  0  0  0  0
 15 16  1  0  0  0  0
 16 17  2  0  0  0  0
 17 18  1  0  0  0  0
 18 19  3  0  0  0  0
 17 20  1  0  0  0  0
 20 21  3  0  0  0  0
  1 22  1  0  0  0  0
 22 23  1  0  0  0  0
 23 24  2  0  0  0  0
 24 25  1  0  0  0  0
 25 26  2  0  0  0  0
 26 27  1  0  0  0  0
 27 28  1  0  0  0  0
 28 29  1  0  0  0  0
 26 30  1  0  0  0  0
 30 31  2  0  0  0  0
 31 32  1  0  0  0  0
 32 33  2  0  0  0  0
 33 34  1  0  0  0  0
 34 35  1  0  0  0  0
 33 36  1  0  0  0  0
 32 37  1  0  0  0  0
 37 38  2  0  0  0  0
 38 39  1  0  0  0  0
 39 40  2  0  0  0  0
 40 41  1  0  0  0  0
 41 42  2  0  0  0  0
 42 43  1  0  0  0  0
 43 44  1  0  0  0  0
 44 45  1  0  0  0  0
 43 46  2  0  0  0  0
 38 47  1  0  0  0  0
 47 48  1  0  0  0  0
 48 49  1  0  0  0  0
 49 50  1  0  0  0  0
 50 51  1  0  0  0  0
 51 52  1  0  0  0  0
 52 53  2  0  0  0  0
 53 54  1  0  0  0  0
 54 55  1  0  0  0  0
 52 56  1  0  0  0  0
 56 57  1  0  0  0  0
 57 58  1  0  0  0  0
 58 59  1  0  0  0  0
 59 60  1  0  0  0  0
 60 61  1  0  0  0  0
 61 62  2  0  0  0  0
 62 63  1  0  0  0  0
 63 64  2  0  0  0  0
 64 65  1  0  0  0  0
 65 66  1  0  0  0  0
 66 67  1  0  0  0  0
 65 68  2  0  0  0  0
 60 69  2  0  0  0  0
 69 70  1  0  0  0  0
 70 71  1  0  0  0  0
 71 72  1  0  0  0  0
 72 73  1  0  0  0  0
 73 74  1  0  0  0  0
 74 75  1  0  0  0  0
 75 76  1  0  0  0  0
 76 77  1  0  0  0  0
 77 78  1  0  0  0  0
 78 79  1  0  0  0  0
 76 80  1  0  0  0  0
 80 81  1  0  0  0  0
 73 82  1  0  0  0  0
 82 83  1  0  0  0  0
 69 84  1  0  0  0  0
 84 85  2  0  0  0  0
 85 86  1  0  0  0  0
 86 87  2  0  0  0  0
 87 88  1  0  0  0  0
 88 89  2  0  0  0  0
 89 90  1  0  0  0  0
 90 91  2  0  0  0  0
 90 92  1  0  0  0  0
 92 93  2  0  0  0  0
 93 94  1  0  0  0  0
 94 95  2  0  0  0  0
 95 96  1  0  0  0  0
 96 97  2  0  0  0  0
 97 98  1  0  0  0  0
 97 99  1  0  0  0  0
 99100  2  0  0  0  0
100101  1  0  0  0  0
101102  2  0  0  0  0
102103  1  0  0  0  0
103104  2  0  0  0  0
104105  1  0  0  0  0
105106  3  0  0  0  0
104107  1  0  0  0  0
107108  3  0  0  0  0
 16  2  1  0  0  0  0
 34 22  2  0  0  0  0
 79 37  1  0  0  0  0
103 89  1  0  0  0  0
 15  5  1  0  0  0  0
 31 23  1  0  0  0  0
 46 39  1  0  0  0  0
 78 47  2  0  0  0  0
102 92  1  0  0  0  0
 13  7  1  0  0  0  0
 77 49  2  0  0  0  0
100 94  1  0  0  0  0
 75 50  2  0  0  0  0
 55 51  2  0  0  0  0
 74 56  2  0  0  0  0
 72 57  2  0  0  0  0
 71 59  2  0  0  0  0
 68 61  1  0  0  0  0
  1109  1  0  0  0  0
  6110  1  0  0  0  0
  8111  1  0  0  0  0
  9112  1  0  0  0  0
 12113  1  0  0  0  0
 14114  1  0  0  0  0
 25115  1  0  0  0  0
 28116  1  0  0  0  0
 28117  1  0  0  0  0
 29118  1  0  0  0  0
 29119  1  0  0  0  0
 29120  1  0  0  0  0
 40121  1  0  0  0  0
 41122  1  0  0  0  0
 42123  1  0  0  0  0
 44124  1  0  0  0  0
 44125  1  0  0  0  0
 45126  1  0  0  0  0
 45127  1  0  0  0  0
 45128  1  0  0  0  0
 46129  1  0  0  0  0
 62130  1  0  0  0  0
 63131  1  0  0  0  0
 64132  1  0  0  0  0
 66133  1  0  0  0  0
 66134  1  0  0  0  0
 67135  1  0  0  0  0
 67136  1  0  0  0  0
 67137  1  0  0  0  0
 68138  1  0  0  0  0
 80139  1  0  0  0  0
 80140  1  0  0  0  0
 81141  1  0  0  0  0
 81142  1  0  0  0  0
 81143  1  0  0  0  0
 82144  1  0  0  0  0
 82145  1  0  0  0  0
 83146  1  0  0  0  0
 83147  1  0  0  0  0
 83148  1  0  0  0  0
 84149  1  0  0  0  0
 85150  1  0  0  0  0
 86151  1  0  0  0  0
 87152  1  0  0  0  0
 88153  1  0  0  0  0
 93154  1  0  0  0  0
 95155  1  0  0  0  0
 96156  1  0  0  0  0
 99157  1  0  0  0  0
101158  1  0  0  0  0
M  END
