
  xtb     02042219363D
 energy: -303.914616305946 gnorm: 0.000551663760 xtb: 6.4.1 (unknown)
174193  0     0  0            999 V2000
   -6.5003   -4.5257    8.6368 C   0  0  0  0  0  0  0  0  0  0  0  0
   -7.1054   -3.5587    9.3775 C   0  0  0  0  0  0  0  0  0  0  0  0
   -7.7349   -3.9327   10.6740 C   0  0  0  0  0  0  0  0  0  0  0  0
   -7.9425   -5.0542   11.0800 O   0  0  0  0  0  0  0  0  0  0  0  0
   -8.0008   -2.6546   11.3616 C   0  0  0  0  0  0  0  0  0  0  0  0
   -8.4645   -2.4381   12.6266 C   0  0  0  0  0  0  0  0  0  0  0  0
   -8.6130   -1.1108   13.0889 C   0  0  0  0  0  0  0  0  0  0  0  0
   -9.0861   -0.8312   14.3870 C   0  0  0  0  0  0  0  0  0  0  0  0
   -9.2204    0.4567   14.8263 C   0  0  0  0  0  0  0  0  0  0  0  0
   -8.8791    1.5060   13.9626 C   0  0  0  0  0  0  0  0  0  0  0  0
   -9.0170    2.7674   14.4125 F   0  0  0  0  0  0  0  0  0  0  0  0
   -8.4161    1.2908   12.6946 C   0  0  0  0  0  0  0  0  0  0  0  0
   -8.2729   -0.0293   12.2252 C   0  0  0  0  0  0  0  0  0  0  0  0
   -7.8030   -0.2839   10.9156 C   0  0  0  0  0  0  0  0  0  0  0  0
   -7.6735   -1.5775   10.4885 C   0  0  0  0  0  0  0  0  0  0  0  0
   -7.2442   -2.1311    9.2083 C   0  0  0  0  0  0  0  0  0  0  0  0
   -7.1683   -1.4376    8.0273 C   0  0  0  0  0  0  0  0  0  0  0  0
   -7.0054   -2.0444    6.7661 C   0  0  0  0  0  0  0  0  0  0  0  0
   -6.9241   -2.4873    5.7098 N   0  0  0  0  0  0  0  0  0  0  0  0
   -7.3264   -0.0417    7.9212 C   0  0  0  0  0  0  0  0  0  0  0  0
   -7.4192    1.0937    7.7775 N   0  0  0  0  0  0  0  0  0  0  0  0
   -5.5595   -4.4255    7.5650 C   0  0  0  0  0  0  0  0  0  0  0  0
   -5.5586   -5.4093    6.5490 C   0  0  0  0  0  0  0  0  0  0  0  0
   -6.4679   -6.4883    6.3825 C   0  0  0  0  0  0  0  0  0  0  0  0
   -6.2589   -7.2074    5.2533 C   0  0  0  0  0  0  0  0  0  0  0  0
   -7.0270   -8.3823    4.7586 C   0  0  0  0  0  0  0  0  0  0  0  0
   -7.8524   -8.0208    3.5222 C   0  0  0  0  0  0  0  0  0  0  0  0
   -4.9341   -6.5868    4.3102 S   0  0  0  0  0  0  0  0  0  0  0  0
   -4.6385   -5.3386    5.4837 C   0  0  0  0  0  0  0  0  0  0  0  0
   -3.6498   -4.3612    5.3980 C   0  0  0  0  0  0  0  0  0  0  0  0
   -3.6141   -3.4078    6.4294 C   0  0  0  0  0  0  0  0  0  0  0  0
   -4.5690   -3.4397    7.4679 C   0  0  0  0  0  0  0  0  0  0  0  0
   -4.2540   -2.1826    8.6273 S   0  0  0  0  0  0  0  0  0  0  0  0
   -2.8548   -1.6354    7.7334 C   0  0  0  0  0  0  0  0  0  0  0  0
   -2.0574   -0.4899    8.2501 C   0  0  0  0  0  0  0  0  0  0  0  0
   -1.3640   -0.8377    9.5681 C   0  0  0  0  0  0  0  0  0  0  0  0
   -2.6548   -2.3690    6.6187 C   0  0  0  0  0  0  0  0  0  0  0  0
   -2.7138   -4.3177    4.2927 C   0  0  0  0  0  0  0  0  0  0  0  0
   -1.9487   -5.3423    3.7778 C   0  0  0  0  0  0  0  0  0  0  0  0
   -1.8613   -6.6740    4.3755 C   0  0  0  0  0  0  0  0  0  0  0  0
   -1.7932   -7.8062    3.5680 C   0  0  0  0  0  0  0  0  0  0  0  0
   -1.7745   -9.0615    4.1443 C   0  0  0  0  0  0  0  0  0  0  0  0
   -1.8307   -9.2023    5.5203 C   0  0  0  0  0  0  0  0  0  0  0  0
   -1.8735   -8.0833    6.3419 C   0  0  0  0  0  0  0  0  0  0  0  0
   -1.9815   -8.2137    7.8343 C   0  0  0  0  0  0  0  0  0  0  0  0
   -3.4216   -7.9616    8.2862 C   0  0  0  0  0  0  0  0  0  0  0  0
   -1.8729   -6.8262    5.7586 C   0  0  0  0  0  0  0  0  0  0  0  0
   -1.2205   -4.9148    2.6440 C   0  0  0  0  0  0  0  0  0  0  0  0
   -0.0609   -5.7050    1.6018 S   0  0  0  0  0  0  0  0  0  0  0  0
    0.1406   -4.2205    0.7327 C   0  0  0  0  0  0  0  0  0  0  0  0
    0.9184   -3.6890   -0.3110 C   0  0  0  0  0  0  0  0  0  0  0  0
    1.9858   -4.2430   -1.0505 C   0  0  0  0  0  0  0  0  0  0  0  0
    2.7286   -3.3950   -1.9398 C   0  0  0  0  0  0  0  0  0  0  0  0
    3.7410   -4.0266   -2.5131 N   0  0  0  0  0  0  0  0  0  0  0  0
    3.7555   -5.5574   -1.9847 S   0  0  0  0  0  0  0  0  0  0  0  0
    2.4716   -5.4734   -1.0019 N   0  0  0  0  0  0  0  0  0  0  0  0
    2.2901   -2.0687   -2.1435 C   0  0  0  0  0  0  0  0  0  0  0  0
    2.7363   -1.0662   -3.0197 C   0  0  0  0  0  0  0  0  0  0  0  0
    4.0090   -0.7965   -4.1618 S   0  0  0  0  0  0  0  0  0  0  0  0
    3.3197    0.7699   -4.5165 C   0  0  0  0  0  0  0  0  0  0  0  0
    3.7304    1.8176   -5.3594 C   0  0  0  0  0  0  0  0  0  0  0  0
    4.9805    1.7801   -6.1272 C   0  0  0  0  0  0  0  0  0  0  0  0
    5.9235    2.7976   -5.9958 C   0  0  0  0  0  0  0  0  0  0  0  0
    7.0868    2.7532   -6.7396 C   0  0  0  0  0  0  0  0  0  0  0  0
    7.3200    1.7032   -7.6124 C   0  0  0  0  0  0  0  0  0  0  0  0
    6.4003    0.6694   -7.7360 C   0  0  0  0  0  0  0  0  0  0  0  0
    6.6272   -0.4477   -8.7136 C   0  0  0  0  0  0  0  0  0  0  0  0
    6.0369   -0.0857  -10.0783 C   0  0  0  0  0  0  0  0  0  0  0  0
    5.2354    0.7149   -6.9834 C   0  0  0  0  0  0  0  0  0  0  0  0
    2.8558    2.8899   -5.2939 C   0  0  0  0  0  0  0  0  0  0  0  0
    1.5474    2.6143   -4.1609 S   0  0  0  0  0  0  0  0  0  0  0  0
    2.1608    1.0473   -3.7860 C   0  0  0  0  0  0  0  0  0  0  0  0
    1.8371   -0.0017   -2.9156 C   0  0  0  0  0  0  0  0  0  0  0  0
    0.8685   -0.2975   -1.9931 N   0  0  0  0  0  0  0  0  0  0  0  0
    1.1418   -1.5520   -1.4802 C   0  0  0  0  0  0  0  0  0  0  0  0
    0.5330   -2.3280   -0.4596 C   0  0  0  0  0  0  0  0  0  0  0  0
   -0.4354   -2.0370    0.4912 N   0  0  0  0  0  0  0  0  0  0  0  0
   -0.6538   -3.1808    1.2149 C   0  0  0  0  0  0  0  0  0  0  0  0
   -1.4268   -3.5758    2.3152 C   0  0  0  0  0  0  0  0  0  0  0  0
   -2.5406   -2.8214    3.3984 S   0  0  0  0  0  0  0  0  0  0  0  0
   -0.7498   -0.7689    1.1130 C   0  0  0  0  0  0  0  0  0  0  0  0
    0.4392   -0.2467    1.9170 C   0  0  0  0  0  0  0  0  0  0  0  0
   -0.3565    0.4692   -1.9635 C   0  0  0  0  0  0  0  0  0  0  0  0
   -0.2027    1.7862   -1.2037 C   0  0  0  0  0  0  0  0  0  0  0  0
    2.9285    4.1168   -6.0436 C   0  0  0  0  0  0  0  0  0  0  0  0
    3.5662    4.1470   -7.2873 C   0  0  0  0  0  0  0  0  0  0  0  0
    3.8183    5.3262   -7.9633 C   0  0  0  0  0  0  0  0  0  0  0  0
    4.4784    5.3948   -9.1414 O   0  0  0  0  0  0  0  0  0  0  0  0
    4.9520    4.2191   -9.7779 C   0  0  0  0  0  0  0  0  0  0  0  0
    3.8538    3.4673  -10.5207 C   0  0  0  0  0  0  0  0  0  0  0  0
    3.3579    6.5561   -7.4227 C   0  0  0  0  0  0  0  0  0  0  0  0
    2.5820    6.5061   -6.2580 C   0  0  0  0  0  0  0  0  0  0  0  0
    2.3968    5.3288   -5.5811 C   0  0  0  0  0  0  0  0  0  0  0  0
    1.7026    5.3581   -4.4227 F   0  0  0  0  0  0  0  0  0  0  0  0
    3.5950    7.8359   -8.0194 C   0  0  0  0  0  0  0  0  0  0  0  0
    4.6231    8.2919   -8.7827 C   0  0  0  0  0  0  0  0  0  0  0  0
    4.4397    9.5512   -9.5581 C   0  0  0  0  0  0  0  0  0  0  0  0
    3.5380   10.3494   -9.4411 O   0  0  0  0  0  0  0  0  0  0  0  0
    5.5585    9.5839  -10.5204 C   0  0  0  0  0  0  0  0  0  0  0  0
    5.8038   10.4761  -11.5234 C   0  0  0  0  0  0  0  0  0  0  0  0
    6.9428   10.2990  -12.3410 C   0  0  0  0  0  0  0  0  0  0  0  0
    7.2452   11.1944  -13.3871 C   0  0  0  0  0  0  0  0  0  0  0  0
    8.3493   11.0133  -14.1728 C   0  0  0  0  0  0  0  0  0  0  0  0
    9.1850    9.9163  -13.9242 C   0  0  0  0  0  0  0  0  0  0  0  0
   10.2671    9.7536  -14.7081 F   0  0  0  0  0  0  0  0  0  0  0  0
    8.9381    9.0181  -12.9239 C   0  0  0  0  0  0  0  0  0  0  0  0
    7.8065    9.1905  -12.1031 C   0  0  0  0  0  0  0  0  0  0  0  0
    7.5309    8.2855  -11.0515 C   0  0  0  0  0  0  0  0  0  0  0  0
    6.4258    8.4820  -10.2681 C   0  0  0  0  0  0  0  0  0  0  0  0
    5.9249    7.7556   -9.1058 C   0  0  0  0  0  0  0  0  0  0  0  0
    6.6503    6.8723   -8.3489 C   0  0  0  0  0  0  0  0  0  0  0  0
    7.9005    6.3448   -8.7250 C   0  0  0  0  0  0  0  0  0  0  0  0
    8.8972    5.8436   -8.9983 N   0  0  0  0  0  0  0  0  0  0  0  0
    6.2592    6.4319   -7.0703 C   0  0  0  0  0  0  0  0  0  0  0  0
    6.0184    6.0790   -6.0046 N   0  0  0  0  0  0  0  0  0  0  0  0
   -6.7345   -5.5376    8.9549 H   0  0  0  0  0  0  0  0  0  0  0  0
   -8.7138   -3.2689   13.2696 H   0  0  0  0  0  0  0  0  0  0  0  0
   -9.3425   -1.6564   15.0343 H   0  0  0  0  0  0  0  0  0  0  0  0
   -9.5804    0.6874   15.8164 H   0  0  0  0  0  0  0  0  0  0  0  0
   -8.1657    2.1233   12.0556 H   0  0  0  0  0  0  0  0  0  0  0  0
   -7.5471    0.5529   10.2853 H   0  0  0  0  0  0  0  0  0  0  0  0
   -7.2545   -6.7158    7.0791 H   0  0  0  0  0  0  0  0  0  0  0  0
   -6.3330   -9.1873    4.5031 H   0  0  0  0  0  0  0  0  0  0  0  0
   -7.6865   -8.7346    5.5542 H   0  0  0  0  0  0  0  0  0  0  0  0
   -8.5521   -7.2219    3.7559 H   0  0  0  0  0  0  0  0  0  0  0  0
   -7.1997   -7.6852    2.7198 H   0  0  0  0  0  0  0  0  0  0  0  0
   -8.4125   -8.8863    3.1779 H   0  0  0  0  0  0  0  0  0  0  0  0
   -2.7171    0.3677    8.4080 H   0  0  0  0  0  0  0  0  0  0  0  0
   -1.3137   -0.2151    7.4994 H   0  0  0  0  0  0  0  0  0  0  0  0
   -0.7881    0.0119    9.9253 H   0  0  0  0  0  0  0  0  0  0  0  0
   -2.1004   -1.1012   10.3242 H   0  0  0  0  0  0  0  0  0  0  0  0
   -0.6912   -1.6815    9.4313 H   0  0  0  0  0  0  0  0  0  0  0  0
   -1.8376   -2.1918    5.9434 H   0  0  0  0  0  0  0  0  0  0  0  0
   -1.7800   -7.6996    2.4944 H   0  0  0  0  0  0  0  0  0  0  0  0
   -1.7276   -9.9381    3.5152 H   0  0  0  0  0  0  0  0  0  0  0  0
   -1.8346  -10.1887    5.9615 H   0  0  0  0  0  0  0  0  0  0  0  0
   -1.6741   -9.2140    8.1441 H   0  0  0  0  0  0  0  0  0  0  0  0
   -1.3229   -7.4886    8.3178 H   0  0  0  0  0  0  0  0  0  0  0  0
   -3.7336   -6.9543    8.0180 H   0  0  0  0  0  0  0  0  0  0  0  0
   -4.0979   -8.6658    7.8058 H   0  0  0  0  0  0  0  0  0  0  0  0
   -3.5091   -8.0755    9.3641 H   0  0  0  0  0  0  0  0  0  0  0  0
   -1.8819   -5.9495    6.3910 H   0  0  0  0  0  0  0  0  0  0  0  0
    5.7403    3.6220   -5.3241 H   0  0  0  0  0  0  0  0  0  0  0  0
    7.8136    3.5458   -6.6416 H   0  0  0  0  0  0  0  0  0  0  0  0
    8.2280    1.6837   -8.1974 H   0  0  0  0  0  0  0  0  0  0  0  0
    7.6972   -0.6326   -8.8222 H   0  0  0  0  0  0  0  0  0  0  0  0
    6.1562   -1.3614   -8.3471 H   0  0  0  0  0  0  0  0  0  0  0  0
    4.9661    0.0888   -9.9931 H   0  0  0  0  0  0  0  0  0  0  0  0
    6.2006   -0.8913  -10.7900 H   0  0  0  0  0  0  0  0  0  0  0  0
    6.5037    0.8186  -10.4641 H   0  0  0  0  0  0  0  0  0  0  0  0
    4.5070   -0.0785   -7.0747 H   0  0  0  0  0  0  0  0  0  0  0  0
   -1.0600   -0.0339    0.3774 H   0  0  0  0  0  0  0  0  0  0  0  0
   -1.5960   -0.9486    1.7810 H   0  0  0  0  0  0  0  0  0  0  0  0
    0.1804    0.6935    2.3964 H   0  0  0  0  0  0  0  0  0  0  0  0
    0.7172   -0.9641    2.6858 H   0  0  0  0  0  0  0  0  0  0  0  0
    1.2994   -0.0898    1.2692 H   0  0  0  0  0  0  0  0  0  0  0  0
   -0.6286    0.6972   -3.0007 H   0  0  0  0  0  0  0  0  0  0  0  0
   -1.1492   -0.1565   -1.5506 H   0  0  0  0  0  0  0  0  0  0  0  0
    0.4523    2.4585   -1.7502 H   0  0  0  0  0  0  0  0  0  0  0  0
   -1.1719    2.2663   -1.1006 H   0  0  0  0  0  0  0  0  0  0  0  0
    0.2227    1.6302   -0.2167 H   0  0  0  0  0  0  0  0  0  0  0  0
    3.8977    3.2102   -7.6983 H   0  0  0  0  0  0  0  0  0  0  0  0
    5.6936    4.5874  -10.4935 H   0  0  0  0  0  0  0  0  0  0  0  0
    5.4636    3.5696   -9.0574 H   0  0  0  0  0  0  0  0  0  0  0  0
    4.2882    2.6221  -11.0467 H   0  0  0  0  0  0  0  0  0  0  0  0
    3.3789    4.1269  -11.2426 H   0  0  0  0  0  0  0  0  0  0  0  0
    3.0930    3.1028   -9.8355 H   0  0  0  0  0  0  0  0  0  0  0  0
    2.1811    7.4174   -5.8425 H   0  0  0  0  0  0  0  0  0  0  0  0
    2.8066    8.5676   -7.8623 H   0  0  0  0  0  0  0  0  0  0  0  0
    5.1383   11.3097  -11.6910 H   0  0  0  0  0  0  0  0  0  0  0  0
    6.5862   12.0321  -13.5590 H   0  0  0  0  0  0  0  0  0  0  0  0
    8.5950   11.6894  -14.9763 H   0  0  0  0  0  0  0  0  0  0  0  0
    9.6057    8.1868  -12.7593 H   0  0  0  0  0  0  0  0  0  0  0  0
    8.2003    7.4541  -10.8951 H   0  0  0  0  0  0  0  0  0  0  0  0
  1  2  2  0  0  0  0
  2  3  1  0  0  0  0
  3  4  2  0  0  0  0
  3  5  1  0  0  0  0
  5  6  2  0  0  0  0
  6  7  1  0  0  0  0
  7  8  2  0  0  0  0
  8  9  1  0  0  0  0
  9 10  2  0  0  0  0
 10 11  1  0  0  0  0
 10 12  1  0  0  0  0
 12 13  2  0  0  0  0
 13 14  1  0  0  0  0
 14 15  2  0  0  0  0
 15 16  1  0  0  0  0
 16 17  2  0  0  0  0
 17 18  1  0  0  0  0
 18 19  3  0  0  0  0
 17 20  1  0  0  0  0
 20 21  3  0  0  0  0
  1 22  1  0  0  0  0
 22 23  2  0  0  0  0
 23 24  1  0  0  0  0
 24 25  2  0  0  0  0
 25 26  1  0  0  0  0
 26 27  1  0  0  0  0
 25 28  1  0  0  0  0
 28 29  1  0  0  0  0
 29 30  2  0  0  0  0
 30 31  1  0  0  0  0
 31 32  2  0  0  0  0
 32 33  1  0  0  0  0
 33 34  1  0  0  0  0
 34 35  1  0  0  0  0
 35 36  1  0  0  0  0
 34 37  2  0  0  0  0
 30 38  1  0  0  0  0
 38 39  2  0  0  0  0
 39 40  1  0  0  0  0
 40 41  2  0  0  0  0
 41 42  1  0  0  0  0
 42 43  2  0  0  0  0
 43 44  1  0  0  0  0
 44 45  1  0  0  0  0
 45 46  1  0  0  0  0
 44 47  2  0  0  0  0
 39 48  1  0  0  0  0
 48 49  1  0  0  0  0
 49 50  1  0  0  0  0
 50 51  1  0  0  0  0
 51 52  1  0  0  0  0
 52 53  1  0  0  0  0
 53 54  2  0  0  0  0
 54 55  1  0  0  0  0
 55 56  1  0  0  0  0
 53 57  1  0  0  0  0
 57 58  1  0  0  0  0
 58 59  1  0  0  0  0
 59 60  1  0  0  0  0
 60 61  1  0  0  0  0
 61 62  1  0  0  0  0
 62 63  2  0  0  0  0
 63 64  1  0  0  0  0
 64 65  2  0  0  0  0
 65 66  1  0  0  0  0
 66 67  1  0  0  0  0
 67 68  1  0  0  0  0
 66 69  2  0  0  0  0
 61 70  2  0  0  0  0
 70 71  1  0  0  0  0
 71 72  1  0  0  0  0
 72 73  1  0  0  0  0
 73 74  1  0  0  0  0
 74 75  1  0  0  0  0
 75 76  1  0  0  0  0
 76 77  1  0  0  0  0
 77 78  1  0  0  0  0
 78 79  1  0  0  0  0
 79 80  1  0  0  0  0
 77 81  1  0  0  0  0
 81 82  1  0  0  0  0
 74 83  1  0  0  0  0
 83 84  1  0  0  0  0
 70 85  1  0  0  0  0
 85 86  2  0  0  0  0
 86 87  1  0  0  0  0
 87 88  1  0  0  0  0
 88 89  1  0  0  0  0
 89 90  1  0  0  0  0
 87 91  2  0  0  0  0
 91 92  1  0  0  0  0
 92 93  2  0  0  0  0
 93 94  1  0  0  0  0
 91 95  1  0  0  0  0
 95 96  2  0  0  0  0
 96 97  1  0  0  0  0
 97 98  2  0  0  0  0
 97 99  1  0  0  0  0
 99100  2  0  0  0  0
100101  1  0  0  0  0
101102  2  0  0  0  0
102103  1  0  0  0  0
103104  2  0  0  0  0
104105  1  0  0  0  0
104106  1  0  0  0  0
106107  2  0  0  0  0
107108  1  0  0  0  0
108109  2  0  0  0  0
109110  1  0  0  0  0
110111  2  0  0  0  0
111112  1  0  0  0  0
112113  3  0  0  0  0
111114  1  0  0  0  0
114115  3  0  0  0  0
 16  2  1  0  0  0  0
 32 22  1  0  0  0  0
 80 38  1  0  0  0  0
 93 85  1  0  0  0  0
110 96  1  0  0  0  0
 15  5  1  0  0  0  0
 29 23  1  0  0  0  0
 37 31  1  0  0  0  0
 47 40  1  0  0  0  0
 79 48  2  0  0  0  0
109 99  1  0  0  0  0
 13  7  1  0  0  0  0
 78 50  2  0  0  0  0
107101  1  0  0  0  0
 76 51  2  0  0  0  0
 56 52  2  0  0  0  0
 75 57  2  0  0  0  0
 73 58  2  0  0  0  0
 72 60  2  0  0  0  0
 69 62  1  0  0  0  0
  1116  1  0  0  0  0
  6117  1  0  0  0  0
  8118  1  0  0  0  0
  9119  1  0  0  0  0
 12120  1  0  0  0  0
 14121  1  0  0  0  0
 24122  1  0  0  0  0
 26123  1  0  0  0  0
 26124  1  0  0  0  0
 27125  1  0  0  0  0
 27126  1  0  0  0  0
 27127  1  0  0  0  0
 35128  1  0  0  0  0
 35129  1  0  0  0  0
 36130  1  0  0  0  0
 36131  1  0  0  0  0
 36132  1  0  0  0  0
 37133  1  0  0  0  0
 41134  1  0  0  0  0
 42135  1  0  0  0  0
 43136  1  0  0  0  0
 45137  1  0  0  0  0
 45138  1  0  0  0  0
 46139  1  0  0  0  0
 46140  1  0  0  0  0
 46141  1  0  0  0  0
 47142  1  0  0  0  0
 63143  1  0  0  0  0
 64144  1  0  0  0  0
 65145  1  0  0  0  0
 67146  1  0  0  0  0
 67147  1  0  0  0  0
 68148  1  0  0  0  0
 68149  1  0  0  0  0
 68150  1  0  0  0  0
 69151  1  0  0  0  0
 81152  1  0  0  0  0
 81153  1  0  0  0  0
 82154  1  0  0  0  0
 82155  1  0  0  0  0
 82156  1  0  0  0  0
 83157  1  0  0  0  0
 83158  1  0  0  0  0
 84159  1  0  0  0  0
 84160  1  0  0  0  0
 84161  1  0  0  0  0
 86162  1  0  0  0  0
 89163  1  0  0  0  0
 89164  1  0  0  0  0
 90165  1  0  0  0  0
 90166  1  0  0  0  0
 90167  1  0  0  0  0
 92168  1  0  0  0  0
 95169  1  0  0  0  0
100170  1  0  0  0  0
102171  1  0  0  0  0
103172  1  0  0  0  0
106173  1  0  0  0  0
108174  1  0  0  0  0
M  END
