
  xtb     02052201213D
 energy: -395.356105849230 gnorm: 0.000931114873 xtb: 6.4.1 (unknown)
205226  0     0  0            999 V2000
   -6.7831    6.9187    4.2915 C   0  0  0  0  0  0  0  0  0  0  0  0
   -7.7639    7.2783    5.1429 C   0  0  0  0  0  0  0  0  0  0  0  0
   -9.0480    6.5440    5.3589 C   0  0  0  0  0  0  0  0  0  0  0  0
   -9.3205    5.4265    4.9882 O   0  0  0  0  0  0  0  0  0  0  0  0
   -9.8662    7.4366    6.1982 C   0  0  0  0  0  0  0  0  0  0  0  0
  -11.1658    7.2837    6.5887 C   0  0  0  0  0  0  0  0  0  0  0  0
  -11.7682    8.2815    7.3855 C   0  0  0  0  0  0  0  0  0  0  0  0
  -13.1096    8.1780    7.8081 C   0  0  0  0  0  0  0  0  0  0  0  0
  -13.6833    9.1528    8.5756 C   0  0  0  0  0  0  0  0  0  0  0  0
  -12.9160   10.2677    8.9418 C   0  0  0  0  0  0  0  0  0  0  0  0
  -13.4986   11.2165    9.6960 F   0  0  0  0  0  0  0  0  0  0  0  0
  -11.6120   10.4177    8.5603 C   0  0  0  0  0  0  0  0  0  0  0  0
  -11.0041    9.4228    7.7693 C   0  0  0  0  0  0  0  0  0  0  0  0
   -9.6570    9.5491    7.3607 C   0  0  0  0  0  0  0  0  0  0  0  0
   -9.0927    8.5684    6.5870 C   0  0  0  0  0  0  0  0  0  0  0  0
   -7.7497    8.4317    6.0361 C   0  0  0  0  0  0  0  0  0  0  0  0
   -6.6667    9.2020    6.3549 C   0  0  0  0  0  0  0  0  0  0  0  0
   -5.3453    8.9994    5.8966 C   0  0  0  0  0  0  0  0  0  0  0  0
   -4.2415    8.9008    5.5967 N   0  0  0  0  0  0  0  0  0  0  0  0
   -6.7197   10.3012    7.2407 C   0  0  0  0  0  0  0  0  0  0  0  0
   -6.7032   11.2097    7.9413 N   0  0  0  0  0  0  0  0  0  0  0  0
   -6.8019    5.8006    3.3759 C   0  0  0  0  0  0  0  0  0  0  0  0
   -5.6141    5.0212    3.3032 C   0  0  0  0  0  0  0  0  0  0  0  0
   -4.5594    5.3393    4.0634 N   0  0  0  0  0  0  0  0  0  0  0  0
   -3.5030    4.5591    4.0764 C   0  0  0  0  0  0  0  0  0  0  0  0
   -2.3982    4.9868    4.9403 C   0  0  0  0  0  0  0  0  0  0  0  0
   -2.6646    5.5654    6.1816 C   0  0  0  0  0  0  0  0  0  0  0  0
   -1.6513    5.9834    7.0345 C   0  0  0  0  0  0  0  0  0  0  0  0
   -0.3009    5.8640    6.6836 C   0  0  0  0  0  0  0  0  0  0  0  0
    0.7702    6.2226    7.3894 O   0  0  0  0  0  0  0  0  0  0  0  0
    0.6459    6.8386    8.6707 C   0  0  0  0  0  0  0  0  0  0  0  0
    2.0548    7.1290    9.1574 C   0  0  0  0  0  0  0  0  0  0  0  0
   -0.0428    5.2920    5.4235 C   0  0  0  0  0  0  0  0  0  0  0  0
   -1.0541    4.8689    4.5841 C   0  0  0  0  0  0  0  0  0  0  0  0
   -0.7192    4.3669    3.3843 F   0  0  0  0  0  0  0  0  0  0  0  0
    1.2338    5.1616    5.0355 F   0  0  0  0  0  0  0  0  0  0  0  0
   -2.0183    6.5048    8.2211 F   0  0  0  0  0  0  0  0  0  0  0  0
   -3.9212    5.6884    6.6076 F   0  0  0  0  0  0  0  0  0  0  0  0
   -3.4897    3.3623    3.3021 C   0  0  0  0  0  0  0  0  0  0  0  0
   -2.4750    2.2944    3.3338 C   0  0  0  0  0  0  0  0  0  0  0  0
   -2.0284    1.7372    2.1394 C   0  0  0  0  0  0  0  0  0  0  0  0
   -2.3048    2.3268    0.9741 F   0  0  0  0  0  0  0  0  0  0  0  0
   -1.2566    0.5858    2.1043 C   0  0  0  0  0  0  0  0  0  0  0  0
   -0.8546    0.1552    0.8892 F   0  0  0  0  0  0  0  0  0  0  0  0
   -0.9043   -0.1023    3.2698 C   0  0  0  0  0  0  0  0  0  0  0  0
   -0.2480   -1.2602    3.3564 O   0  0  0  0  0  0  0  0  0  0  0  0
   -0.0806   -2.0814    2.1982 C   0  0  0  0  0  0  0  0  0  0  0  0
    0.3680   -3.4534    2.6672 C   0  0  0  0  0  0  0  0  0  0  0  0
   -1.2934    0.5101    4.4766 C   0  0  0  0  0  0  0  0  0  0  0  0
   -0.9417   -0.0748    5.6283 F   0  0  0  0  0  0  0  0  0  0  0  0
   -2.0497    1.6695    4.5052 C   0  0  0  0  0  0  0  0  0  0  0  0
   -2.4228    2.1708    5.6923 F   0  0  0  0  0  0  0  0  0  0  0  0
   -4.4912    3.0827    2.5045 N   0  0  0  0  0  0  0  0  0  0  0  0
   -5.5569    3.8891    2.4593 C   0  0  0  0  0  0  0  0  0  0  0  0
   -6.6631    3.5140    1.6431 C   0  0  0  0  0  0  0  0  0  0  0  0
   -7.7879    4.3048    1.7086 C   0  0  0  0  0  0  0  0  0  0  0  0
   -7.8513    5.4315    2.5533 C   0  0  0  0  0  0  0  0  0  0  0  0
   -8.9459    6.1953    2.4825 F   0  0  0  0  0  0  0  0  0  0  0  0
   -8.8557    4.0166    0.9553 F   0  0  0  0  0  0  0  0  0  0  0  0
   -6.4531    2.2893    0.8849 C   0  0  0  0  0  0  0  0  0  0  0  0
   -6.8689    1.0147    1.2029 C   0  0  0  0  0  0  0  0  0  0  0  0
   -7.9751    0.6755    2.0984 C   0  0  0  0  0  0  0  0  0  0  0  0
   -8.2186    1.3768    3.2757 C   0  0  0  0  0  0  0  0  0  0  0  0
   -9.2886    1.0295    4.0784 C   0  0  0  0  0  0  0  0  0  0  0  0
  -10.1157   -0.0216    3.7248 C   0  0  0  0  0  0  0  0  0  0  0  0
   -9.8746   -0.7497    2.5662 C   0  0  0  0  0  0  0  0  0  0  0  0
  -10.7841   -1.8737    2.1607 C   0  0  0  0  0  0  0  0  0  0  0  0
  -11.9305   -1.3466    1.2955 C   0  0  0  0  0  0  0  0  0  0  0  0
   -8.8053   -0.3905    1.7614 C   0  0  0  0  0  0  0  0  0  0  0  0
   -6.0368    0.0505    0.5847 C   0  0  0  0  0  0  0  0  0  0  0  0
   -5.8602   -1.6746    0.8233 S   0  0  0  0  0  0  0  0  0  0  0  0
   -4.3763   -1.6282   -0.0745 C   0  0  0  0  0  0  0  0  0  0  0  0
   -3.2960   -2.4655   -0.4050 C   0  0  0  0  0  0  0  0  0  0  0  0
   -3.0656   -3.8373   -0.1650 C   0  0  0  0  0  0  0  0  0  0  0  0
   -1.8382   -4.4255   -0.6232 C   0  0  0  0  0  0  0  0  0  0  0  0
   -1.7643   -5.7187   -0.3493 N   0  0  0  0  0  0  0  0  0  0  0  0
   -3.1214   -6.1600    0.4183 S   0  0  0  0  0  0  0  0  0  0  0  0
   -3.8533   -4.7149    0.4364 N   0  0  0  0  0  0  0  0  0  0  0  0
   -0.8574   -3.5955   -1.2083 C   0  0  0  0  0  0  0  0  0  0  0  0
    0.4731   -3.8583   -1.5701 C   0  0  0  0  0  0  0  0  0  0  0  0
    1.5757   -5.1914   -1.6559 S   0  0  0  0  0  0  0  0  0  0  0  0
    2.8323   -4.0894   -2.1719 C   0  0  0  0  0  0  0  0  0  0  0  0
    4.1927   -4.2726   -2.4931 C   0  0  0  0  0  0  0  0  0  0  0  0
    4.8778   -5.5614   -2.4046 C   0  0  0  0  0  0  0  0  0  0  0  0
    6.1404   -5.6609   -1.8238 C   0  0  0  0  0  0  0  0  0  0  0  0
    6.7693   -6.8877   -1.7476 C   0  0  0  0  0  0  0  0  0  0  0  0
    6.1470   -8.0246   -2.2354 C   0  0  0  0  0  0  0  0  0  0  0  0
    4.8809   -7.9466   -2.8002 C   0  0  0  0  0  0  0  0  0  0  0  0
    4.1692   -9.1781   -3.2824 C   0  0  0  0  0  0  0  0  0  0  0  0
    3.2006   -9.6844   -2.2119 C   0  0  0  0  0  0  0  0  0  0  0  0
    4.2546   -6.7119   -2.8734 C   0  0  0  0  0  0  0  0  0  0  0  0
    4.7953   -3.0725   -2.8210 C   0  0  0  0  0  0  0  0  0  0  0  0
    3.7054   -1.7123   -2.6808 S   0  0  0  0  0  0  0  0  0  0  0  0
    2.4037   -2.7640   -2.2525 C   0  0  0  0  0  0  0  0  0  0  0  0
    1.0467   -2.6354   -1.9243 C   0  0  0  0  0  0  0  0  0  0  0  0
    0.1190   -1.6355   -1.8194 N   0  0  0  0  0  0  0  0  0  0  0  0
   -1.0709   -2.1998   -1.4005 C   0  0  0  0  0  0  0  0  0  0  0  0
   -2.3504   -1.6593   -1.1031 C   0  0  0  0  0  0  0  0  0  0  0  0
   -2.8791   -0.3905   -1.2446 N   0  0  0  0  0  0  0  0  0  0  0  0
   -4.0804   -0.3649   -0.5892 C   0  0  0  0  0  0  0  0  0  0  0  0
   -5.0187    0.5976   -0.1945 C   0  0  0  0  0  0  0  0  0  0  0  0
   -5.1048    2.3170   -0.2328 S   0  0  0  0  0  0  0  0  0  0  0  0
   -2.5854    0.6256   -2.2300 C   0  0  0  0  0  0  0  0  0  0  0  0
   -3.7023    0.7289   -3.2690 C   0  0  0  0  0  0  0  0  0  0  0  0
    0.5520   -0.2601   -1.9198 C   0  0  0  0  0  0  0  0  0  0  0  0
    0.7725    0.1647   -3.3722 C   0  0  0  0  0  0  0  0  0  0  0  0
    6.1286   -2.8645   -3.3320 C   0  0  0  0  0  0  0  0  0  0  0  0
    6.8409   -1.6997   -3.0262 C   0  0  0  0  0  0  0  0  0  0  0  0
    6.1717   -0.8482   -2.2217 O   0  0  0  0  0  0  0  0  0  0  0  0
    6.6399    0.4353   -1.8380 C   0  0  0  0  0  0  0  0  0  0  0  0
    5.5731    1.0282   -0.9300 C   0  0  0  0  0  0  0  0  0  0  0  0
    8.1539   -1.5078   -3.5349 C   0  0  0  0  0  0  0  0  0  0  0  0
    8.7886   -0.3375   -3.2254 O   0  0  0  0  0  0  0  0  0  0  0  0
    9.4710    0.3696   -4.2568 C   0  0  0  0  0  0  0  0  0  0  0  0
    8.5912    0.6427   -5.4693 C   0  0  0  0  0  0  0  0  0  0  0  0
    8.7591   -2.4847   -4.3147 C   0  0  0  0  0  0  0  0  0  0  0  0
    8.0212   -3.6422   -4.6903 C   0  0  0  0  0  0  0  0  0  0  0  0
    6.6890   -3.8070   -4.2322 C   0  0  0  0  0  0  0  0  0  0  0  0
    5.9411   -4.8189   -4.7006 N   0  0  0  0  0  0  0  0  0  0  0  0
    6.4974   -5.6834   -5.5039 C   0  0  0  0  0  0  0  0  0  0  0  0
    7.8576   -5.5966   -5.8466 C   0  0  0  0  0  0  0  0  0  0  0  0
    8.5880   -4.5851   -5.4607 N   0  0  0  0  0  0  0  0  0  0  0  0
   10.1551   -2.4462   -4.7016 C   0  0  0  0  0  0  0  0  0  0  0  0
   10.5523   -2.7983   -5.9457 C   0  0  0  0  0  0  0  0  0  0  0  0
    9.6033   -2.9707   -7.0826 C   0  0  0  0  0  0  0  0  0  0  0  0
    8.5154   -2.4509   -7.2163 O   0  0  0  0  0  0  0  0  0  0  0  0
   10.3517   -3.7435   -8.0913 C   0  0  0  0  0  0  0  0  0  0  0  0
    9.9077   -4.2837   -9.2627 C   0  0  0  0  0  0  0  0  0  0  0  0
   10.8204   -4.9647  -10.0988 C   0  0  0  0  0  0  0  0  0  0  0  0
   10.4136   -5.5421  -11.3191 C   0  0  0  0  0  0  0  0  0  0  0  0
   11.3074   -6.1914  -12.1242 C   0  0  0  0  0  0  0  0  0  0  0  0
   12.6463   -6.2792  -11.7183 C   0  0  0  0  0  0  0  0  0  0  0  0
   13.5110   -6.9220  -12.5244 F   0  0  0  0  0  0  0  0  0  0  0  0
   13.0935   -5.7392  -10.5451 C   0  0  0  0  0  0  0  0  0  0  0  0
   12.1864   -5.0650   -9.7036 C   0  0  0  0  0  0  0  0  0  0  0  0
   12.6202   -4.4897   -8.4873 C   0  0  0  0  0  0  0  0  0  0  0  0
   11.7159   -3.8368   -7.6912 C   0  0  0  0  0  0  0  0  0  0  0  0
   11.8799   -3.1576   -6.4102 C   0  0  0  0  0  0  0  0  0  0  0  0
   13.0652   -2.8843   -5.7837 C   0  0  0  0  0  0  0  0  0  0  0  0
   14.3299   -3.2671   -6.2767 C   0  0  0  0  0  0  0  0  0  0  0  0
   15.3831   -3.5546   -6.6309 N   0  0  0  0  0  0  0  0  0  0  0  0
   13.1672   -2.1361   -4.5921 C   0  0  0  0  0  0  0  0  0  0  0  0
   13.3009   -1.5087   -3.6400 N   0  0  0  0  0  0  0  0  0  0  0  0
   -5.8374    7.4442    4.3100 H   0  0  0  0  0  0  0  0  0  0  0  0
  -11.7290    6.4143    6.2846 H   0  0  0  0  0  0  0  0  0  0  0  0
  -13.6801    7.3102    7.5131 H   0  0  0  0  0  0  0  0  0  0  0  0
  -14.7076    9.0893    8.9069 H   0  0  0  0  0  0  0  0  0  0  0  0
  -11.0512   11.2885    8.8622 H   0  0  0  0  0  0  0  0  0  0  0  0
   -9.1058   10.4244    7.6649 H   0  0  0  0  0  0  0  0  0  0  0  0
    0.0693    7.7658    8.5846 H   0  0  0  0  0  0  0  0  0  0  0  0
    0.1324    6.1618    9.3621 H   0  0  0  0  0  0  0  0  0  0  0  0
    2.6223    6.2055    9.2297 H   0  0  0  0  0  0  0  0  0  0  0  0
    2.5605    7.7927    8.4619 H   0  0  0  0  0  0  0  0  0  0  0  0
    2.0127    7.6001   10.1346 H   0  0  0  0  0  0  0  0  0  0  0  0
   -1.0309   -2.1600    1.6582 H   0  0  0  0  0  0  0  0  0  0  0  0
    0.6710   -1.6402    1.5342 H   0  0  0  0  0  0  0  0  0  0  0  0
    1.3143   -3.3801    3.1951 H   0  0  0  0  0  0  0  0  0  0  0  0
    0.4859   -4.1066    1.8071 H   0  0  0  0  0  0  0  0  0  0  0  0
   -0.3729   -3.8794    3.3378 H   0  0  0  0  0  0  0  0  0  0  0  0
   -7.5599    2.1763    3.5790 H   0  0  0  0  0  0  0  0  0  0  0  0
   -9.4746    1.5852    4.9853 H   0  0  0  0  0  0  0  0  0  0  0  0
  -10.9506   -0.2866    4.3575 H   0  0  0  0  0  0  0  0  0  0  0  0
  -10.2199   -2.6195    1.5976 H   0  0  0  0  0  0  0  0  0  0  0  0
  -11.1957   -2.3552    3.0500 H   0  0  0  0  0  0  0  0  0  0  0  0
  -12.5891   -2.1599    0.9994 H   0  0  0  0  0  0  0  0  0  0  0  0
  -11.5396   -0.8710    0.3989 H   0  0  0  0  0  0  0  0  0  0  0  0
  -12.5123   -0.6104    1.8457 H   0  0  0  0  0  0  0  0  0  0  0  0
   -8.6188   -0.9393    0.8496 H   0  0  0  0  0  0  0  0  0  0  0  0
    6.6221   -4.7761   -1.4331 H   0  0  0  0  0  0  0  0  0  0  0  0
    7.7510   -6.9608   -1.3019 H   0  0  0  0  0  0  0  0  0  0  0  0
    6.6483   -8.9801   -2.1739 H   0  0  0  0  0  0  0  0  0  0  0  0
    4.8942   -9.9607   -3.5152 H   0  0  0  0  0  0  0  0  0  0  0  0
    3.6090   -8.9482   -4.1913 H   0  0  0  0  0  0  0  0  0  0  0  0
    3.7415   -9.9350   -1.3021 H   0  0  0  0  0  0  0  0  0  0  0  0
    2.6775  -10.5717   -2.5608 H   0  0  0  0  0  0  0  0  0  0  0  0
    2.4672   -8.9178   -1.9732 H   0  0  0  0  0  0  0  0  0  0  0  0
    3.2780   -6.6377   -3.3279 H   0  0  0  0  0  0  0  0  0  0  0  0
   -1.6702    0.3616   -2.7455 H   0  0  0  0  0  0  0  0  0  0  0  0
   -2.4629    1.5868   -1.7200 H   0  0  0  0  0  0  0  0  0  0  0  0
   -3.8663   -0.2368   -3.7430 H   0  0  0  0  0  0  0  0  0  0  0  0
   -3.4182    1.4487   -4.0318 H   0  0  0  0  0  0  0  0  0  0  0  0
   -4.6331    1.0584   -2.8175 H   0  0  0  0  0  0  0  0  0  0  0  0
   -0.1604    0.3835   -1.4089 H   0  0  0  0  0  0  0  0  0  0  0  0
    1.5079   -0.1825   -1.3903 H   0  0  0  0  0  0  0  0  0  0  0  0
   -0.0999   -0.0405   -3.9891 H   0  0  0  0  0  0  0  0  0  0  0  0
    1.6145   -0.3764   -3.7948 H   0  0  0  0  0  0  0  0  0  0  0  0
    0.9889    1.2283   -3.4141 H   0  0  0  0  0  0  0  0  0  0  0  0
    6.7785    1.0683   -2.7208 H   0  0  0  0  0  0  0  0  0  0  0  0
    7.5940    0.3495   -1.3092 H   0  0  0  0  0  0  0  0  0  0  0  0
    4.6312    1.1067   -1.4661 H   0  0  0  0  0  0  0  0  0  0  0  0
    5.4259    0.3901   -0.0631 H   0  0  0  0  0  0  0  0  0  0  0  0
    5.8810    2.0151   -0.5978 H   0  0  0  0  0  0  0  0  0  0  0  0
   10.3786   -0.1618   -4.5630 H   0  0  0  0  0  0  0  0  0  0  0  0
    9.7640    1.3034   -3.7698 H   0  0  0  0  0  0  0  0  0  0  0  0
    8.3288   -0.2844   -5.9757 H   0  0  0  0  0  0  0  0  0  0  0  0
    9.1297    1.2784   -6.1665 H   0  0  0  0  0  0  0  0  0  0  0  0
    7.6754    1.1491   -5.1711 H   0  0  0  0  0  0  0  0  0  0  0  0
    5.8632   -6.4723   -5.8827 H   0  0  0  0  0  0  0  0  0  0  0  0
    8.3475   -6.3476   -6.4514 H   0  0  0  0  0  0  0  0  0  0  0  0
   10.8726   -2.2777   -3.9085 H   0  0  0  0  0  0  0  0  0  0  0  0
    8.8702   -4.1941   -9.5485 H   0  0  0  0  0  0  0  0  0  0  0  0
    9.3773   -5.4601  -11.6111 H   0  0  0  0  0  0  0  0  0  0  0  0
   11.0128   -6.6363  -13.0614 H   0  0  0  0  0  0  0  0  0  0  0  0
   14.1319   -5.8243  -10.2652 H   0  0  0  0  0  0  0  0  0  0  0  0
   13.6594   -4.5820   -8.2142 H   0  0  0  0  0  0  0  0  0  0  0  0
  1  2  2  0  0  0  0
  2  3  1  0  0  0  0
  3  4  2  0  0  0  0
  3  5  1  0  0  0  0
  5  6  2  0  0  0  0
  6  7  1  0  0  0  0
  7  8  2  0  0  0  0
  8  9  1  0  0  0  0
  9 10  2  0  0  0  0
 10 11  1  0  0  0  0
 10 12  1  0  0  0  0
 12 13  2  0  0  0  0
 13 14  1  0  0  0  0
 14 15  2  0  0  0  0
 15 16  1  0  0  0  0
 16 17  2  0  0  0  0
 17 18  1  0  0  0  0
 18 19  3  0  0  0  0
 17 20  1  0  0  0  0
 20 21  3  0  0  0  0
  1 22  1  0  0  0  0
 22 23  1  0  0  0  0
 23 24  2  0  0  0  0
 24 25  1  0  0  0  0
 25 26  1  0  0  0  0
 26 27  2  0  0  0  0
 27 28  1  0  0  0  0
 28 29  2  0  0  0  0
 29 30  1  0  0  0  0
 30 31  1  0  0  0  0
 31 32  1  0  0  0  0
 29 33  1  0  0  0  0
 33 34  2  0  0  0  0
 34 35  1  0  0  0  0
 33 36  1  0  0  0  0
 28 37  1  0  0  0  0
 27 38  1  0  0  0  0
 25 39  2  0  0  0  0
 39 40  1  0  0  0  0
 40 41  2  0  0  0  0
 41 42  1  0  0  0  0
 41 43  1  0  0  0  0
 43 44  1  0  0  0  0
 43 45  2  0  0  0  0
 45 46  1  0  0  0  0
 46 47  1  0  0  0  0
 47 48  1  0  0  0  0
 45 49  1  0  0  0  0
 49 50  1  0  0  0  0
 49 51  2  0  0  0  0
 51 52  1  0  0  0  0
 39 53  1  0  0  0  0
 53 54  2  0  0  0  0
 54 55  1  0  0  0  0
 55 56  2  0  0  0  0
 56 57  1  0  0  0  0
 57 58  1  0  0  0  0
 56 59  1  0  0  0  0
 55 60  1  0  0  0  0
 60 61  2  0  0  0  0
 61 62  1  0  0  0  0
 62 63  2  0  0  0  0
 63 64  1  0  0  0  0
 64 65  2  0  0  0  0
 65 66  1  0  0  0  0
 66 67  1  0  0  0  0
 67 68  1  0  0  0  0
 66 69  2  0  0  0  0
 61 70  1  0  0  0  0
 70 71  1  0  0  0  0
 71 72  1  0  0  0  0
 72 73  1  0  0  0  0
 73 74  1  0  0  0  0
 74 75  1  0  0  0  0
 75 76  2  0  0  0  0
 76 77  1  0  0  0  0
 77 78  1  0  0  0  0
 75 79  1  0  0  0  0
 79 80  1  0  0  0  0
 80 81  1  0  0  0  0
 81 82  1  0  0  0  0
 82 83  1  0  0  0  0
 83 84  1  0  0  0  0
 84 85  2  0  0  0  0
 85 86  1  0  0  0  0
 86 87  2  0  0  0  0
 87 88  1  0  0  0  0
 88 89  1  0  0  0  0
 89 90  1  0  0  0  0
 88 91  2  0  0  0  0
 83 92  2  0  0  0  0
 92 93  1  0  0  0  0
 93 94  1  0  0  0  0
 94 95  1  0  0  0  0
 95 96  1  0  0  0  0
 96 97  1  0  0  0  0
 97 98  1  0  0  0  0
 98 99  1  0  0  0  0
 99100  1  0  0  0  0
100101  1  0  0  0  0
101102  1  0  0  0  0
 99103  1  0  0  0  0
103104  1  0  0  0  0
 96105  1  0  0  0  0
105106  1  0  0  0  0
 92107  1  0  0  0  0
107108  2  0  0  0  0
108109  1  0  0  0  0
109110  1  0  0  0  0
110111  1  0  0  0  0
108112  1  0  0  0  0
112113  1  0  0  0  0
113114  1  0  0  0  0
114115  1  0  0  0  0
112116  2  0  0  0  0
116117  1  0  0  0  0
117118  2  0  0  0  0
118119  1  0  0  0  0
119120  2  0  0  0  0
120121  1  0  0  0  0
121122  2  0  0  0  0
116123  1  0  0  0  0
123124  2  0  0  0  0
124125  1  0  0  0  0
125126  2  0  0  0  0
125127  1  0  0  0  0
127128  2  0  0  0  0
128129  1  0  0  0  0
129130  2  0  0  0  0
130131  1  0  0  0  0
131132  2  0  0  0  0
132133  1  0  0  0  0
132134  1  0  0  0  0
134135  2  0  0  0  0
135136  1  0  0  0  0
136137  2  0  0  0  0
137138  1  0  0  0  0
138139  2  0  0  0  0
139140  1  0  0  0  0
140141  3  0  0  0  0
139142  1  0  0  0  0
142143  3  0  0  0  0
 16  2  1  0  0  0  0
 57 22  2  0  0  0  0
102 60  1  0  0  0  0
118107  1  0  0  0  0
138124  1  0  0  0  0
 15  5  1  0  0  0  0
 54 23  1  0  0  0  0
 69 62  1  0  0  0  0
101 70  2  0  0  0  0
122117  1  0  0  0  0
137127  1  0  0  0  0
 13  7  1  0  0  0  0
 34 26  1  0  0  0  0
 51 40  1  0  0  0  0
100 72  2  0  0  0  0
135129  1  0  0  0  0
 98 73  2  0  0  0  0
 78 74  2  0  0  0  0
 97 79  2  0  0  0  0
 95 80  2  0  0  0  0
 94 82  2  0  0  0  0
 91 84  1  0  0  0  0
  1144  1  0  0  0  0
  6145  1  0  0  0  0
  8146  1  0  0  0  0
  9147  1  0  0  0  0
 12148  1  0  0  0  0
 14149  1  0  0  0  0
 31150  1  0  0  0  0
 31151  1  0  0  0  0
 32152  1  0  0  0  0
 32153  1  0  0  0  0
 32154  1  0  0  0  0
 47155  1  0  0  0  0
 47156  1  0  0  0  0
 48157  1  0  0  0  0
 48158  1  0  0  0  0
 48159  1  0  0  0  0
 63160  1  0  0  0  0
 64161  1  0  0  0  0
 65162  1  0  0  0  0
 67163  1  0  0  0  0
 67164  1  0  0  0  0
 68165  1  0  0  0  0
 68166  1  0  0  0  0
 68167  1  0  0  0  0
 69168  1  0  0  0  0
 85169  1  0  0  0  0
 86170  1  0  0  0  0
 87171  1  0  0  0  0
 89172  1  0  0  0  0
 89173  1  0  0  0  0
 90174  1  0  0  0  0
 90175  1  0  0  0  0
 90176  1  0  0  0  0
 91177  1  0  0  0  0
103178  1  0  0  0  0
103179  1  0  0  0  0
104180  1  0  0  0  0
104181  1  0  0  0  0
104182  1  0  0  0  0
105183  1  0  0  0  0
105184  1  0  0  0  0
106185  1  0  0  0  0
106186  1  0  0  0  0
106187  1  0  0  0  0
110188  1  0  0  0  0
110189  1  0  0  0  0
111190  1  0  0  0  0
111191  1  0  0  0  0
111192  1  0  0  0  0
114193  1  0  0  0  0
114194  1  0  0  0  0
115195  1  0  0  0  0
115196  1  0  0  0  0
115197  1  0  0  0  0
120198  1  0  0  0  0
121199  1  0  0  0  0
123200  1  0  0  0  0
128201  1  0  0  0  0
130202  1  0  0  0  0
131203  1  0  0  0  0
134204  1  0  0  0  0
136205  1  0  0  0  0
M  END
