174

C         -6.50030       -4.52570        8.63680
C         -7.10540       -3.55870        9.37750
C         -7.73490       -3.93270       10.67400
O         -7.94250       -5.05420       11.08000
C         -8.00080       -2.65460       11.36160
C         -8.46450       -2.43810       12.62660
C         -8.61300       -1.11080       13.08890
C         -9.08610       -0.83120       14.38700
C         -9.22040        0.45670       14.82630
C         -8.87910        1.50600       13.96260
F         -9.01700        2.76740       14.41250
C         -8.41610        1.29080       12.69460
C         -8.27290       -0.02930       12.22520
C         -7.80300       -0.28390       10.91560
C         -7.67350       -1.57750       10.48850
C         -7.24420       -2.13110        9.20830
C         -7.16830       -1.43760        8.02730
C         -7.00540       -2.04440        6.76610
N         -6.92410       -2.48730        5.70980
C         -7.32640       -0.04170        7.92120
N         -7.41920        1.09370        7.77750
C         -5.55950       -4.42550        7.56500
C         -5.55860       -5.40930        6.54900
C         -6.46790       -6.48830        6.38250
C         -6.25890       -7.20740        5.25330
C         -7.02700       -8.38230        4.75860
C         -7.85240       -8.02080        3.52220
S         -4.93410       -6.58680        4.31020
C         -4.63850       -5.33860        5.48370
C         -3.64980       -4.36120        5.39800
C         -3.61410       -3.40780        6.42940
C         -4.56900       -3.43970        7.46790
S         -4.25400       -2.18260        8.62730
C         -2.85480       -1.63540        7.73340
C         -2.05740       -0.48990        8.25010
C         -1.36400       -0.83770        9.56810
C         -2.65480       -2.36900        6.61870
C         -2.71380       -4.31770        4.29270
C         -1.94870       -5.34230        3.77780
C         -1.86130       -6.67400        4.37550
C         -1.79320       -7.80620        3.56800
C         -1.77450       -9.06150        4.14430
C         -1.83070       -9.20230        5.52030
C         -1.87350       -8.08330        6.34190
C         -1.98150       -8.21370        7.83430
C         -3.42160       -7.96160        8.28620
C         -1.87290       -6.82620        5.75860
C         -1.22050       -4.91480        2.64400
S         -0.06090       -5.70500        1.60180
C          0.14060       -4.22050        0.73270
C          0.91840       -3.68900       -0.31100
C          1.98580       -4.24300       -1.05050
C          2.72860       -3.39500       -1.93980
N          3.74100       -4.02660       -2.51310
S          3.75550       -5.55740       -1.98470
N          2.47160       -5.47340       -1.00190
C          2.29010       -2.06870       -2.14350
C          2.73630       -1.06620       -3.01970
S          4.00900       -0.79650       -4.16180
C          3.31970        0.76990       -4.51650
C          3.73040        1.81760       -5.35940
C          4.98050        1.78010       -6.12720
C          5.92350        2.79760       -5.99580
C          7.08680        2.75320       -6.73960
C          7.32000        1.70320       -7.61240
C          6.40030        0.66940       -7.73600
C          6.62720       -0.44770       -8.71360
C          6.03690       -0.08570      -10.07830
C          5.23540        0.71490       -6.98340
C          2.85580        2.88990       -5.29390
S          1.54740        2.61430       -4.16090
C          2.16080        1.04730       -3.78600
C          1.83710       -0.00170       -2.91560
N          0.86850       -0.29750       -1.99310
C          1.14180       -1.55200       -1.48020
C          0.53300       -2.32800       -0.45960
N         -0.43540       -2.03700        0.49120
C         -0.65380       -3.18080        1.21490
C         -1.42680       -3.57580        2.31520
S         -2.54060       -2.82140        3.39840
C         -0.74980       -0.76890        1.11300
C          0.43920       -0.24670        1.91700
C         -0.35650        0.46920       -1.96350
C         -0.20270        1.78620       -1.20370
C          2.92850        4.11680       -6.04360
C          3.56620        4.14700       -7.28730
C          3.81830        5.32620       -7.96330
O          4.47840        5.39480       -9.14140
C          4.95200        4.21910       -9.77790
C          3.85380        3.46730      -10.52070
C          3.35790        6.55610       -7.42270
C          2.58200        6.50610       -6.25800
C          2.39680        5.32880       -5.58110
F          1.70260        5.35810       -4.42270
C          3.59500        7.83590       -8.01940
C          4.62310        8.29190       -8.78270
C          4.43970        9.55120       -9.55810
O          3.53800       10.34940       -9.44110
C          5.55850        9.58390      -10.52040
C          5.80380       10.47610      -11.52340
C          6.94280       10.29900      -12.34100
C          7.24520       11.19440      -13.38710
C          8.34930       11.01330      -14.17280
C          9.18500        9.91630      -13.92420
F         10.26710        9.75360      -14.70810
C          8.93810        9.01810      -12.92390
C          7.80650        9.19050      -12.10310
C          7.53090        8.28550      -11.05150
C          6.42580        8.48200      -10.26810
C          5.92490        7.75560       -9.10580
C          6.65030        6.87230       -8.34890
C          7.90050        6.34480       -8.72500
N          8.89720        5.84360       -8.99830
C          6.25920        6.43190       -7.07030
N          6.01840        6.07900       -6.00460
H         -6.73450       -5.53760        8.95490
H         -8.71380       -3.26890       13.26960
H         -9.34250       -1.65640       15.03430
H         -9.58040        0.68740       15.81640
H         -8.16570        2.12330       12.05560
H         -7.54710        0.55290       10.28530
H         -7.25450       -6.71580        7.07910
H         -6.33300       -9.18730        4.50310
H         -7.68650       -8.73460        5.55420
H         -8.55210       -7.22190        3.75590
H         -7.19970       -7.68520        2.71980
H         -8.41250       -8.88630        3.17790
H         -2.71710        0.36770        8.40800
H         -1.31370       -0.21510        7.49940
H         -0.78810        0.01190        9.92530
H         -2.10040       -1.10120       10.32420
H         -0.69120       -1.68150        9.43130
H         -1.83760       -2.19180        5.94340
H         -1.78000       -7.69960        2.49440
H         -1.72760       -9.93810        3.51520
H         -1.83460      -10.18870        5.96150
H         -1.67410       -9.21400        8.14410
H         -1.32290       -7.48860        8.31780
H         -3.73360       -6.95430        8.01800
H         -4.09790       -8.66580        7.80580
H         -3.50910       -8.07550        9.36410
H         -1.88190       -5.94950        6.39100
H          5.74030        3.62200       -5.32410
H          7.81360        3.54580       -6.64160
H          8.22800        1.68370       -8.19740
H          7.69720       -0.63260       -8.82220
H          6.15620       -1.36140       -8.34710
H          4.96610        0.08880       -9.99310
H          6.20060       -0.89130      -10.79000
H          6.50370        0.81860      -10.46410
H          4.50700       -0.07850       -7.07470
H         -1.06000       -0.03390        0.37740
H         -1.59600       -0.94860        1.78100
H          0.18040        0.69350        2.39640
H          0.71720       -0.96410        2.68580
H          1.29940       -0.08980        1.26920
H         -0.62860        0.69720       -3.00070
H         -1.14920       -0.15650       -1.55060
H          0.45230        2.45850       -1.75020
H         -1.17190        2.26630       -1.10060
H          0.22270        1.63020       -0.21670
H          3.89770        3.21020       -7.69830
H          5.69360        4.58740      -10.49350
H          5.46360        3.56960       -9.05740
H          4.28820        2.62210      -11.04670
H          3.37890        4.12690      -11.24260
H          3.09300        3.10280       -9.83550
H          2.18110        7.41740       -5.84250
H          2.80660        8.56760       -7.86230
H          5.13830       11.30970      -11.69100
H          6.58620       12.03210      -13.55900
H          8.59500       11.68940      -14.97630
H          9.60570        8.18680      -12.75930
H          8.20030        7.45410      -10.89510
