
  xtb     02042222233D
 energy: -271.517904168178 gnorm: 0.000572042108 xtb: 6.4.1 (unknown)
151168  0     0  0            999 V2000
    6.5183   -7.9699    2.3769 C   0  0  0  0  0  0  0  0  0  0  0  0
    6.5815   -8.7532    3.5018 C   0  0  0  0  0  0  0  0  0  0  0  0
    5.7379   -8.6075    4.6949 C   0  0  0  0  0  0  0  0  0  0  0  0
    5.0131   -7.6710    4.9854 O   0  0  0  0  0  0  0  0  0  0  0  0
    5.9240   -9.8395    5.4779 C   0  0  0  0  0  0  0  0  0  0  0  0
    5.2991  -10.2231    6.6291 C   0  0  0  0  0  0  0  0  0  0  0  0
    5.6120  -11.4790    7.1949 C   0  0  0  0  0  0  0  0  0  0  0  0
    4.9904  -11.9312    8.3767 C   0  0  0  0  0  0  0  0  0  0  0  0
    5.2940  -13.1533    8.9093 C   0  0  0  0  0  0  0  0  0  0  0  0
    6.2405  -13.9585    8.2615 C   0  0  0  0  0  0  0  0  0  0  0  0
    6.5255  -15.1579    8.7997 F   0  0  0  0  0  0  0  0  0  0  0  0
    6.8737  -13.5676    7.1143 C   0  0  0  0  0  0  0  0  0  0  0  0
    6.5729  -12.3122    6.5515 C   0  0  0  0  0  0  0  0  0  0  0  0
    7.2116  -11.8818    5.3643 C   0  0  0  0  0  0  0  0  0  0  0  0
    6.8932  -10.6605    4.8348 C   0  0  0  0  0  0  0  0  0  0  0  0
    7.3745   -9.9590    3.6469 C   0  0  0  0  0  0  0  0  0  0  0  0
    8.4360  -10.3438    2.8714 C   0  0  0  0  0  0  0  0  0  0  0  0
    8.9862   -9.5836    1.8168 C   0  0  0  0  0  0  0  0  0  0  0  0
    9.5118   -9.0030    0.9776 N   0  0  0  0  0  0  0  0  0  0  0  0
    9.1654  -11.5337    3.0744 C   0  0  0  0  0  0  0  0  0  0  0  0
    9.7887  -12.4909    3.1892 N   0  0  0  0  0  0  0  0  0  0  0  0
    5.7445   -6.8261    2.1328 C   0  0  0  0  0  0  0  0  0  0  0  0
    5.6675   -6.2194    0.8633 C   0  0  0  0  0  0  0  0  0  0  0  0
    6.3319   -6.7178   -0.2719 C   0  0  0  0  0  0  0  0  0  0  0  0
    6.8456   -7.1156   -1.2168 N   0  0  0  0  0  0  0  0  0  0  0  0
    4.8364   -5.1047    0.8248 C   0  0  0  0  0  0  0  0  0  0  0  0
    4.2685   -4.8204    2.0579 C   0  0  0  0  0  0  0  0  0  0  0  0
    4.7553   -5.9578    3.2772 S   0  0  0  0  0  0  0  0  0  0  0  0
    3.3789   -3.7522    2.3301 C   0  0  0  0  0  0  0  0  0  0  0  0
    2.8046   -3.3908    3.5378 C   0  0  0  0  0  0  0  0  0  0  0  0
    2.9537   -4.1221    4.8048 C   0  0  0  0  0  0  0  0  0  0  0  0
    2.3324   -5.3548    4.9758 C   0  0  0  0  0  0  0  0  0  0  0  0
    2.4550   -6.0210    6.1795 C   0  0  0  0  0  0  0  0  0  0  0  0
    3.1891   -5.4645    7.2111 C   0  0  0  0  0  0  0  0  0  0  0  0
    3.8051   -4.2295    7.0585 C   0  0  0  0  0  0  0  0  0  0  0  0
    4.5494   -3.5940    8.1968 C   0  0  0  0  0  0  0  0  0  0  0  0
    3.6088   -2.7057    9.0138 C   0  0  0  0  0  0  0  0  0  0  0  0
    3.6744   -3.5614    5.8497 C   0  0  0  0  0  0  0  0  0  0  0  0
    2.0133   -2.2407    3.4069 C   0  0  0  0  0  0  0  0  0  0  0  0
    1.0475   -1.3420    4.5512 S   0  0  0  0  0  0  0  0  0  0  0  0
    0.5363   -0.3038    3.2637 C   0  0  0  0  0  0  0  0  0  0  0  0
   -0.3122    0.7995    3.0606 C   0  0  0  0  0  0  0  0  0  0  0  0
   -1.0302    1.6468    3.9355 C   0  0  0  0  0  0  0  0  0  0  0  0
   -1.7357    2.7811    3.3953 C   0  0  0  0  0  0  0  0  0  0  0  0
   -2.2975    3.5188    4.3394 N   0  0  0  0  0  0  0  0  0  0  0  0
   -1.9795    2.8488    5.7777 S   0  0  0  0  0  0  0  0  0  0  0  0
   -1.1085    1.5889    5.2552 N   0  0  0  0  0  0  0  0  0  0  0  0
   -1.8228    2.9355    1.9924 C   0  0  0  0  0  0  0  0  0  0  0  0
   -2.5714    3.7914    1.1641 C   0  0  0  0  0  0  0  0  0  0  0  0
   -3.6445    5.1438    1.2999 S   0  0  0  0  0  0  0  0  0  0  0  0
   -3.8796    5.1022   -0.4322 C   0  0  0  0  0  0  0  0  0  0  0  0
   -4.6883    5.8572   -1.2997 C   0  0  0  0  0  0  0  0  0  0  0  0
   -5.5974    6.9000   -0.8137 C   0  0  0  0  0  0  0  0  0  0  0  0
   -6.9583    6.8526   -1.1082 C   0  0  0  0  0  0  0  0  0  0  0  0
   -7.8013    7.8320   -0.6192 C   0  0  0  0  0  0  0  0  0  0  0  0
   -7.3008    8.8557    0.1681 C   0  0  0  0  0  0  0  0  0  0  0  0
   -5.9499    8.9068    0.4862 C   0  0  0  0  0  0  0  0  0  0  0  0
   -5.4105    9.9695    1.3982 C   0  0  0  0  0  0  0  0  0  0  0  0
   -5.3920    9.4606    2.8411 C   0  0  0  0  0  0  0  0  0  0  0  0
   -5.1081    7.9198   -0.0070 C   0  0  0  0  0  0  0  0  0  0  0  0
   -4.5444    5.4353   -2.6139 C   0  0  0  0  0  0  0  0  0  0  0  0
   -3.4335    4.0819   -2.7683 S   0  0  0  0  0  0  0  0  0  0  0  0
   -3.1510    4.0914   -1.0658 C   0  0  0  0  0  0  0  0  0  0  0  0
   -2.4014    3.3439   -0.1513 C   0  0  0  0  0  0  0  0  0  0  0  0
   -1.5553    2.2635   -0.1801 N   0  0  0  0  0  0  0  0  0  0  0  0
   -1.1750    2.0165    1.1263 C   0  0  0  0  0  0  0  0  0  0  0  0
   -0.2890    1.0609    1.6663 C   0  0  0  0  0  0  0  0  0  0  0  0
    0.6052    0.2067    1.0478 N   0  0  0  0  0  0  0  0  0  0  0  0
    1.0925   -0.6327    2.0201 C   0  0  0  0  0  0  0  0  0  0  0  0
    1.9485   -1.7339    2.1036 C   0  0  0  0  0  0  0  0  0  0  0  0
    2.9127   -2.6674    1.0183 S   0  0  0  0  0  0  0  0  0  0  0  0
    1.3868    0.5012   -0.1370 C   0  0  0  0  0  0  0  0  0  0  0  0
    2.7849    0.9976    0.2302 C   0  0  0  0  0  0  0  0  0  0  0  0
   -1.6692    1.2892   -1.2474 C   0  0  0  0  0  0  0  0  0  0  0  0
   -3.0648    0.6669   -1.2793 C   0  0  0  0  0  0  0  0  0  0  0  0
   -5.1125    5.9677   -3.8018 C   0  0  0  0  0  0  0  0  0  0  0  0
   -5.7709    7.1762   -3.9483 C   0  0  0  0  0  0  0  0  0  0  0  0
   -6.2066    7.3964   -5.2482 C   0  0  0  0  0  0  0  0  0  0  0  0
   -7.1103    8.7827   -5.7995 S   0  0  0  0  0  0  0  0  0  0  0  0
   -7.5107    9.6766   -4.2547 C   0  0  0  0  0  0  0  0  0  0  0  0
   -6.3904   10.5915   -3.7979 C   0  0  0  0  0  0  0  0  0  0  0  0
   -5.8611    6.3585   -6.1433 C   0  0  0  0  0  0  0  0  0  0  0  0
   -4.9831    5.1011   -5.2998 S   0  0  0  0  0  0  0  0  0  0  0  0
   -6.2108    6.3784   -7.4911 C   0  0  0  0  0  0  0  0  0  0  0  0
   -5.9404    5.4741   -8.4948 C   0  0  0  0  0  0  0  0  0  0  0  0
   -5.1566    4.2496   -8.3416 C   0  0  0  0  0  0  0  0  0  0  0  0
   -4.6401    3.8161   -7.3231 O   0  0  0  0  0  0  0  0  0  0  0  0
   -5.1030    3.6239   -9.6733 C   0  0  0  0  0  0  0  0  0  0  0  0
   -4.4834    2.4691  -10.0517 C   0  0  0  0  0  0  0  0  0  0  0  0
   -4.5676    2.0536  -11.3995 C   0  0  0  0  0  0  0  0  0  0  0  0
   -3.9463    0.8707  -11.8478 C   0  0  0  0  0  0  0  0  0  0  0  0
   -4.0380    0.4782  -13.1544 C   0  0  0  0  0  0  0  0  0  0  0  0
   -4.7643    1.2733  -14.0504 C   0  0  0  0  0  0  0  0  0  0  0  0
   -4.8451    0.8702  -15.3326 F   0  0  0  0  0  0  0  0  0  0  0  0
   -5.3845    2.4303  -13.6682 C   0  0  0  0  0  0  0  0  0  0  0  0
   -5.2994    2.8501  -12.3267 C   0  0  0  0  0  0  0  0  0  0  0  0
   -5.9298    4.0444  -11.9025 C   0  0  0  0  0  0  0  0  0  0  0  0
   -5.8325    4.4291  -10.5926 C   0  0  0  0  0  0  0  0  0  0  0  0
   -6.3635    5.5872   -9.8728 C   0  0  0  0  0  0  0  0  0  0  0  0
   -7.1273    6.5793  -10.4366 C   0  0  0  0  0  0  0  0  0  0  0  0
   -7.6632    7.6987   -9.7675 C   0  0  0  0  0  0  0  0  0  0  0  0
   -8.1443    8.6369   -9.3102 N   0  0  0  0  0  0  0  0  0  0  0  0
   -7.4931    6.6137  -11.7977 C   0  0  0  0  0  0  0  0  0  0  0  0
   -7.8259    6.7037  -12.8933 N   0  0  0  0  0  0  0  0  0  0  0  0
    7.1075   -8.2839    1.5211 H   0  0  0  0  0  0  0  0  0  0  0  0
    4.5718   -9.5777    7.0986 H   0  0  0  0  0  0  0  0  0  0  0  0
    4.2640  -11.2932    8.8574 H   0  0  0  0  0  0  0  0  0  0  0  0
    4.8265  -13.5149    9.8114 H   0  0  0  0  0  0  0  0  0  0  0  0
    7.5982  -14.2134    6.6432 H   0  0  0  0  0  0  0  0  0  0  0  0
    7.9310  -12.5370    4.9001 H   0  0  0  0  0  0  0  0  0  0  0  0
    4.6560   -4.5238   -0.0635 H   0  0  0  0  0  0  0  0  0  0  0  0
    1.7578   -5.7821    4.1670 H   0  0  0  0  0  0  0  0  0  0  0  0
    1.9755   -6.9792    6.3111 H   0  0  0  0  0  0  0  0  0  0  0  0
    3.2863   -5.9932    8.1484 H   0  0  0  0  0  0  0  0  0  0  0  0
    5.3716   -2.9884    7.8106 H   0  0  0  0  0  0  0  0  0  0  0  0
    4.9690   -4.3673    8.8430 H   0  0  0  0  0  0  0  0  0  0  0  0
    4.1445   -2.2408    9.8381 H   0  0  0  0  0  0  0  0  0  0  0  0
    2.7896   -3.2950    9.4197 H   0  0  0  0  0  0  0  0  0  0  0  0
    3.1871   -1.9234    8.3867 H   0  0  0  0  0  0  0  0  0  0  0  0
    4.1480   -2.5994    5.7122 H   0  0  0  0  0  0  0  0  0  0  0  0
   -7.3453    6.0473   -1.7152 H   0  0  0  0  0  0  0  0  0  0  0  0
   -8.8566    7.7948   -0.8478 H   0  0  0  0  0  0  0  0  0  0  0  0
   -7.9671    9.6182    0.5447 H   0  0  0  0  0  0  0  0  0  0  0  0
   -4.3951   10.2362    1.0982 H   0  0  0  0  0  0  0  0  0  0  0  0
   -6.0326   10.8646    1.3377 H   0  0  0  0  0  0  0  0  0  0  0  0
   -6.3984    9.2031    3.1634 H   0  0  0  0  0  0  0  0  0  0  0  0
   -4.7703    8.5718    2.9208 H   0  0  0  0  0  0  0  0  0  0  0  0
   -4.9979   10.2236    3.5080 H   0  0  0  0  0  0  0  0  0  0  0  0
   -4.0539    7.9498    0.2273 H   0  0  0  0  0  0  0  0  0  0  0  0
    0.8849    1.2827   -0.7055 H   0  0  0  0  0  0  0  0  0  0  0  0
    1.4640   -0.4064   -0.7446 H   0  0  0  0  0  0  0  0  0  0  0  0
    2.7157    1.8771    0.8668 H   0  0  0  0  0  0  0  0  0  0  0  0
    3.3478    0.2303    0.7538 H   0  0  0  0  0  0  0  0  0  0  0  0
    3.3241    1.2626   -0.6748 H   0  0  0  0  0  0  0  0  0  0  0  0
   -1.4655    1.7944   -2.1964 H   0  0  0  0  0  0  0  0  0  0  0  0
   -0.9424    0.4949   -1.0940 H   0  0  0  0  0  0  0  0  0  0  0  0
   -3.2794    0.1774   -0.3316 H   0  0  0  0  0  0  0  0  0  0  0  0
   -3.1149   -0.0713   -2.0746 H   0  0  0  0  0  0  0  0  0  0  0  0
   -3.8241    1.4218   -1.4624 H   0  0  0  0  0  0  0  0  0  0  0  0
   -5.9022    7.8616   -3.1344 H   0  0  0  0  0  0  0  0  0  0  0  0
   -7.7815    8.9410   -3.4988 H   0  0  0  0  0  0  0  0  0  0  0  0
   -8.3956   10.2565   -4.5171 H   0  0  0  0  0  0  0  0  0  0  0  0
   -6.1789   11.3363   -4.5612 H   0  0  0  0  0  0  0  0  0  0  0  0
   -6.6853   11.1017   -2.8829 H   0  0  0  0  0  0  0  0  0  0  0  0
   -5.4775   10.0338   -3.6023 H   0  0  0  0  0  0  0  0  0  0  0  0
   -6.7829    7.2568   -7.7680 H   0  0  0  0  0  0  0  0  0  0  0  0
   -3.9358    1.8793   -9.3319 H   0  0  0  0  0  0  0  0  0  0  0  0
   -3.3927    0.2748  -11.1376 H   0  0  0  0  0  0  0  0  0  0  0  0
   -3.5686   -0.4239  -13.5136 H   0  0  0  0  0  0  0  0  0  0  0  0
   -5.9349    3.0179  -14.3864 H   0  0  0  0  0  0  0  0  0  0  0  0
   -6.4735    4.6229  -12.6315 H   0  0  0  0  0  0  0  0  0  0  0  0
  1  2  2  0  0  0  0
  2  3  1  0  0  0  0
  3  4  2  0  0  0  0
  3  5  1  0  0  0  0
  5  6  2  0  0  0  0
  6  7  1  0  0  0  0
  7  8  2  0  0  0  0
  8  9  1  0  0  0  0
  9 10  2  0  0  0  0
 10 11  1  0  0  0  0
 10 12  1  0  0  0  0
 12 13  2  0  0  0  0
 13 14  1  0  0  0  0
 14 15  2  0  0  0  0
 15 16  1  0  0  0  0
 16 17  2  0  0  0  0
 17 18  1  0  0  0  0
 18 19  3  0  0  0  0
 17 20  1  0  0  0  0
 20 21  3  0  0  0  0
  1 22  1  0  0  0  0
 22 23  2  0  0  0  0
 23 24  1  0  0  0  0
 24 25  3  0  0  0  0
 23 26  1  0  0  0  0
 26 27  2  0  0  0  0
 27 28  1  0  0  0  0
 27 29  1  0  0  0  0
 29 30  2  0  0  0  0
 30 31  1  0  0  0  0
 31 32  2  0  0  0  0
 32 33  1  0  0  0  0
 33 34  2  0  0  0  0
 34 35  1  0  0  0  0
 35 36  1  0  0  0  0
 36 37  1  0  0  0  0
 35 38  2  0  0  0  0
 30 39  1  0  0  0  0
 39 40  1  0  0  0  0
 40 41  1  0  0  0  0
 41 42  1  0  0  0  0
 42 43  1  0  0  0  0
 43 44  1  0  0  0  0
 44 45  2  0  0  0  0
 45 46  1  0  0  0  0
 46 47  1  0  0  0  0
 44 48  1  0  0  0  0
 48 49  1  0  0  0  0
 49 50  1  0  0  0  0
 50 51  1  0  0  0  0
 51 52  1  0  0  0  0
 52 53  1  0  0  0  0
 53 54  2  0  0  0  0
 54 55  1  0  0  0  0
 55 56  2  0  0  0  0
 56 57  1  0  0  0  0
 57 58  1  0  0  0  0
 58 59  1  0  0  0  0
 57 60  2  0  0  0  0
 52 61  2  0  0  0  0
 61 62  1  0  0  0  0
 62 63  1  0  0  0  0
 63 64  1  0  0  0  0
 64 65  1  0  0  0  0
 65 66  1  0  0  0  0
 66 67  1  0  0  0  0
 67 68  1  0  0  0  0
 68 69  1  0  0  0  0
 69 70  1  0  0  0  0
 70 71  1  0  0  0  0
 68 72  1  0  0  0  0
 72 73  1  0  0  0  0
 65 74  1  0  0  0  0
 74 75  1  0  0  0  0
 61 76  1  0  0  0  0
 76 77  2  0  0  0  0
 77 78  1  0  0  0  0
 78 79  1  0  0  0  0
 79 80  1  0  0  0  0
 80 81  1  0  0  0  0
 78 82  2  0  0  0  0
 82 83  1  0  0  0  0
 82 84  1  0  0  0  0
 84 85  2  0  0  0  0
 85 86  1  0  0  0  0
 86 87  2  0  0  0  0
 86 88  1  0  0  0  0
 88 89  2  0  0  0  0
 89 90  1  0  0  0  0
 90 91  2  0  0  0  0
 91 92  1  0  0  0  0
 92 93  2  0  0  0  0
 93 94  1  0  0  0  0
 93 95  1  0  0  0  0
 95 96  2  0  0  0  0
 96 97  1  0  0  0  0
 97 98  2  0  0  0  0
 98 99  1  0  0  0  0
 99100  2  0  0  0  0
100101  1  0  0  0  0
101102  3  0  0  0  0
100103  1  0  0  0  0
103104  3  0  0  0  0
 16  2  1  0  0  0  0
 28 22  1  0  0  0  0
 71 29  1  0  0  0  0
 83 76  1  0  0  0  0
 99 85  1  0  0  0  0
 15  5  1  0  0  0  0
 38 31  1  0  0  0  0
 70 39  2  0  0  0  0
 98 88  1  0  0  0  0
 13  7  1  0  0  0  0
 69 41  2  0  0  0  0
 96 90  1  0  0  0  0
 67 42  2  0  0  0  0
 47 43  2  0  0  0  0
 66 48  2  0  0  0  0
 64 49  2  0  0  0  0
 63 51  2  0  0  0  0
 60 53  1  0  0  0  0
  1105  1  0  0  0  0
  6106  1  0  0  0  0
  8107  1  0  0  0  0
  9108  1  0  0  0  0
 12109  1  0  0  0  0
 14110  1  0  0  0  0
 26111  1  0  0  0  0
 32112  1  0  0  0  0
 33113  1  0  0  0  0
 34114  1  0  0  0  0
 36115  1  0  0  0  0
 36116  1  0  0  0  0
 37117  1  0  0  0  0
 37118  1  0  0  0  0
 37119  1  0  0  0  0
 38120  1  0  0  0  0
 54121  1  0  0  0  0
 55122  1  0  0  0  0
 56123  1  0  0  0  0
 58124  1  0  0  0  0
 58125  1  0  0  0  0
 59126  1  0  0  0  0
 59127  1  0  0  0  0
 59128  1  0  0  0  0
 60129  1  0  0  0  0
 72130  1  0  0  0  0
 72131  1  0  0  0  0
 73132  1  0  0  0  0
 73133  1  0  0  0  0
 73134  1  0  0  0  0
 74135  1  0  0  0  0
 74136  1  0  0  0  0
 75137  1  0  0  0  0
 75138  1  0  0  0  0
 75139  1  0  0  0  0
 77140  1  0  0  0  0
 80141  1  0  0  0  0
 80142  1  0  0  0  0
 81143  1  0  0  0  0
 81144  1  0  0  0  0
 81145  1  0  0  0  0
 84146  1  0  0  0  0
 89147  1  0  0  0  0
 91148  1  0  0  0  0
 92149  1  0  0  0  0
 95150  1  0  0  0  0
 97151  1  0  0  0  0
M  END
