
  xtb     02052202473D
 energy: -298.083205309692 gnorm: 0.000750312948 xtb: 6.4.1 (unknown)
177194  0     0  0            999 V2000
    4.5058  -11.2617   -0.2640 C   0  0  0  0  0  0  0  0  0  0  0  0
    5.4843  -11.5145   -1.1885 C   0  0  0  0  0  0  0  0  0  0  0  0
    5.7300  -10.8990   -2.5113 C   0  0  0  0  0  0  0  0  0  0  0  0
    5.2562   -9.8873   -2.9926 O   0  0  0  0  0  0  0  0  0  0  0  0
    6.6849  -11.7925   -3.1965 C   0  0  0  0  0  0  0  0  0  0  0  0
    7.1660  -11.6989   -4.4701 C   0  0  0  0  0  0  0  0  0  0  0  0
    8.0676  -12.6801   -4.9393 C   0  0  0  0  0  0  0  0  0  0  0  0
    8.5930  -12.6354   -6.2466 C   0  0  0  0  0  0  0  0  0  0  0  0
    9.4607  -13.5942   -6.6904 C   0  0  0  0  0  0  0  0  0  0  0  0
    9.8258  -14.6318   -5.8221 C   0  0  0  0  0  0  0  0  0  0  0  0
   10.6811  -15.5668   -6.2772 F   0  0  0  0  0  0  0  0  0  0  0  0
    9.3463  -14.7223   -4.5453 C   0  0  0  0  0  0  0  0  0  0  0  0
    8.4517  -13.7430   -4.0713 C   0  0  0  0  0  0  0  0  0  0  0  0
    7.9398  -13.8096   -2.7544 C   0  0  0  0  0  0  0  0  0  0  0  0
    7.0691  -12.8453   -2.3220 C   0  0  0  0  0  0  0  0  0  0  0  0
    6.3890  -12.6456   -1.0475 C   0  0  0  0  0  0  0  0  0  0  0  0
    6.6407  -13.3540    0.0999 C   0  0  0  0  0  0  0  0  0  0  0  0
    6.1000  -13.0901    1.3771 C   0  0  0  0  0  0  0  0  0  0  0  0
    5.7539  -12.9406    2.4626 N   0  0  0  0  0  0  0  0  0  0  0  0
    7.5407  -14.4375    0.1702 C   0  0  0  0  0  0  0  0  0  0  0  0
    8.2515  -15.3311    0.2932 N   0  0  0  0  0  0  0  0  0  0  0  0
    3.5626  -10.2138   -0.0905 C   0  0  0  0  0  0  0  0  0  0  0  0
    3.5991   -8.9891   -0.7732 C   0  0  0  0  0  0  0  0  0  0  0  0
    2.6994   -7.9813   -0.5100 C   0  0  0  0  0  0  0  0  0  0  0  0
    2.6915   -6.7823   -1.1452 O   0  0  0  0  0  0  0  0  0  0  0  0
    3.6886   -6.4921   -2.1090 C   0  0  0  0  0  0  0  0  0  0  0  0
    3.4269   -5.0842   -2.6196 C   0  0  0  0  0  0  0  0  0  0  0  0
    1.7001   -8.1646    0.4797 C   0  0  0  0  0  0  0  0  0  0  0  0
    1.6991   -9.3594    1.2039 C   0  0  0  0  0  0  0  0  0  0  0  0
    2.5755  -10.3905    0.9239 C   0  0  0  0  0  0  0  0  0  0  0  0
    2.5481  -11.5993    1.5248 O   0  0  0  0  0  0  0  0  0  0  0  0
    1.7584  -11.8213    2.6798 C   0  0  0  0  0  0  0  0  0  0  0  0
    2.3706  -11.1846    3.9214 C   0  0  0  0  0  0  0  0  0  0  0  0
    0.7303   -7.1382    0.7466 C   0  0  0  0  0  0  0  0  0  0  0  0
   -0.4855   -7.2479    1.4074 C   0  0  0  0  0  0  0  0  0  0  0  0
   -1.1503   -8.4895    1.8186 C   0  0  0  0  0  0  0  0  0  0  0  0
   -1.6395   -8.6228    3.1140 C   0  0  0  0  0  0  0  0  0  0  0  0
   -2.2694   -9.7939    3.4949 C   0  0  0  0  0  0  0  0  0  0  0  0
   -2.4217  -10.8303    2.5918 C   0  0  0  0  0  0  0  0  0  0  0  0
   -1.9555  -10.7064    1.2871 C   0  0  0  0  0  0  0  0  0  0  0  0
   -2.1621  -11.8115    0.2916 C   0  0  0  0  0  0  0  0  0  0  0  0
   -3.5083  -11.6473   -0.4160 C   0  0  0  0  0  0  0  0  0  0  0  0
   -1.3304   -9.5290    0.9094 C   0  0  0  0  0  0  0  0  0  0  0  0
   -1.0906   -5.9915    1.5852 C   0  0  0  0  0  0  0  0  0  0  0  0
   -2.6017   -5.5070    2.3218 S   0  0  0  0  0  0  0  0  0  0  0  0
   -2.2422   -3.8650    1.9078 C   0  0  0  0  0  0  0  0  0  0  0  0
   -2.7768   -2.5814    2.0959 C   0  0  0  0  0  0  0  0  0  0  0  0
   -3.8935   -2.1410    2.8385 C   0  0  0  0  0  0  0  0  0  0  0  0
   -4.1073   -0.7309    2.9957 C   0  0  0  0  0  0  0  0  0  0  0  0
   -5.1475   -0.4592    3.7681 N   0  0  0  0  0  0  0  0  0  0  0  0
   -5.8056   -1.8578    4.2511 S   0  0  0  0  0  0  0  0  0  0  0  0
   -4.7867   -2.8643    3.4955 N   0  0  0  0  0  0  0  0  0  0  0  0
   -3.2675    0.1675    2.3027 C   0  0  0  0  0  0  0  0  0  0  0  0
   -3.3141    1.5659    2.1824 C   0  0  0  0  0  0  0  0  0  0  0  0
   -4.2234    2.9027    2.7991 S   0  0  0  0  0  0  0  0  0  0  0  0
   -3.2722    3.9735    1.7989 C   0  0  0  0  0  0  0  0  0  0  0  0
   -3.2672    5.3727    1.6499 C   0  0  0  0  0  0  0  0  0  0  0  0
   -4.1198    6.2533    2.4537 C   0  0  0  0  0  0  0  0  0  0  0  0
   -5.4917    6.0321    2.5128 C   0  0  0  0  0  0  0  0  0  0  0  0
   -6.2827    6.8334    3.3156 C   0  0  0  0  0  0  0  0  0  0  0  0
   -5.7115    7.8352    4.0793 C   0  0  0  0  0  0  0  0  0  0  0  0
   -4.3390    8.0566    4.0470 C   0  0  0  0  0  0  0  0  0  0  0  0
   -3.7108    9.0852    4.9425 C   0  0  0  0  0  0  0  0  0  0  0  0
   -3.4110    8.4750    6.3132 C   0  0  0  0  0  0  0  0  0  0  0  0
   -3.5538    7.2655    3.2227 C   0  0  0  0  0  0  0  0  0  0  0  0
   -2.3052    5.7765    0.7406 C   0  0  0  0  0  0  0  0  0  0  0  0
   -1.3841    4.4251    0.0927 S   0  0  0  0  0  0  0  0  0  0  0  0
   -2.3075    3.3104    1.0355 C   0  0  0  0  0  0  0  0  0  0  0  0
   -2.3291    1.9287    1.2618 C   0  0  0  0  0  0  0  0  0  0  0  0
   -1.6489    0.8169    0.8305 N   0  0  0  0  0  0  0  0  0  0  0  0
   -2.2056   -0.2834    1.4706 C   0  0  0  0  0  0  0  0  0  0  0  0
   -1.8826   -1.6658    1.4699 C   0  0  0  0  0  0  0  0  0  0  0  0
   -0.8139   -2.3823    0.9645 N   0  0  0  0  0  0  0  0  0  0  0  0
   -1.0335   -3.7087    1.2247 C   0  0  0  0  0  0  0  0  0  0  0  0
   -0.3645   -4.9271    1.0458 C   0  0  0  0  0  0  0  0  0  0  0  0
    1.0849   -5.4824    0.2898 S   0  0  0  0  0  0  0  0  0  0  0  0
    0.5008   -1.9439    0.5582 C   0  0  0  0  0  0  0  0  0  0  0  0
    0.7405   -2.1511   -0.9368 C   0  0  0  0  0  0  0  0  0  0  0  0
   -0.9918    0.8801   -0.4581 C   0  0  0  0  0  0  0  0  0  0  0  0
   -1.9448    0.4661   -1.5776 C   0  0  0  0  0  0  0  0  0  0  0  0
   -2.0405    7.0862    0.2535 C   0  0  0  0  0  0  0  0  0  0  0  0
   -2.8896    8.1760    0.2272 C   0  0  0  0  0  0  0  0  0  0  0  0
   -2.3190    9.3261   -0.3236 C   0  0  0  0  0  0  0  0  0  0  0  0
   -3.0497   10.5802   -0.5912 C   0  0  0  0  0  0  0  0  0  0  0  0
   -3.2338   11.0083   -1.9112 C   0  0  0  0  0  0  0  0  0  0  0  0
   -3.8113   12.2476   -2.1447 C   0  0  0  0  0  0  0  0  0  0  0  0
   -4.2464   13.0561   -1.1060 C   0  0  0  0  0  0  0  0  0  0  0  0
   -4.8086   14.4183   -1.3748 C   0  0  0  0  0  0  0  0  0  0  0  0
   -4.1430   12.5707    0.1889 C   0  0  0  0  0  0  0  0  0  0  0  0
   -3.5575   11.3451    0.4647 C   0  0  0  0  0  0  0  0  0  0  0  0
   -3.4511   10.8651    1.8780 C   0  0  0  0  0  0  0  0  0  0  0  0
   -2.8521   10.1512   -3.0829 C   0  0  0  0  0  0  0  0  0  0  0  0
   -0.9999    9.1196   -0.7316 C   0  0  0  0  0  0  0  0  0  0  0  0
   -0.5064    7.4738   -0.4593 S   0  0  0  0  0  0  0  0  0  0  0  0
   -0.1749   10.0176   -1.4510 C   0  0  0  0  0  0  0  0  0  0  0  0
   -0.2248   11.3682   -1.2549 C   0  0  0  0  0  0  0  0  0  0  0  0
   -0.6572   11.9882    0.0198 C   0  0  0  0  0  0  0  0  0  0  0  0
   -0.6725   11.4644    1.1141 O   0  0  0  0  0  0  0  0  0  0  0  0
   -0.8290   13.4221   -0.2829 C   0  0  0  0  0  0  0  0  0  0  0  0
   -1.3628   14.4044    0.5229 C   0  0  0  0  0  0  0  0  0  0  0  0
   -1.4522   15.6974    0.0060 C   0  0  0  0  0  0  0  0  0  0  0  0
   -1.9872   16.7530    0.6596 O   0  0  0  0  0  0  0  0  0  0  0  0
   -2.5059   16.5527    1.9549 C   0  0  0  0  0  0  0  0  0  0  0  0
   -0.9737   15.9617   -1.2855 C   0  0  0  0  0  0  0  0  0  0  0  0
   -0.4229   14.9744   -2.0769 C   0  0  0  0  0  0  0  0  0  0  0  0
   -0.3526   13.6787   -1.5781 C   0  0  0  0  0  0  0  0  0  0  0  0
    0.1102   12.4325   -2.1757 C   0  0  0  0  0  0  0  0  0  0  0  0
    0.6762   12.2981   -3.4188 C   0  0  0  0  0  0  0  0  0  0  0  0
    1.0590   11.0696   -3.9913 C   0  0  0  0  0  0  0  0  0  0  0  0
    1.3691   10.0961   -4.5167 N   0  0  0  0  0  0  0  0  0  0  0  0
    0.9558   13.3768   -4.2808 C   0  0  0  0  0  0  0  0  0  0  0  0
    1.2114   14.2113   -5.0273 N   0  0  0  0  0  0  0  0  0  0  0  0
    4.4063  -12.0174    0.5066 H   0  0  0  0  0  0  0  0  0  0  0  0
    6.8603  -10.8872   -5.1134 H   0  0  0  0  0  0  0  0  0  0  0  0
    8.2964  -11.8264   -6.8973 H   0  0  0  0  0  0  0  0  0  0  0  0
    9.8711  -13.5751   -7.6876 H   0  0  0  0  0  0  0  0  0  0  0  0
    9.6500  -15.5347   -3.9036 H   0  0  0  0  0  0  0  0  0  0  0  0
    8.2461  -14.6288   -2.1242 H   0  0  0  0  0  0  0  0  0  0  0  0
    4.3526   -8.8579   -1.5285 H   0  0  0  0  0  0  0  0  0  0  0  0
    4.6824   -6.5531   -1.6469 H   0  0  0  0  0  0  0  0  0  0  0  0
    3.6384   -7.2172   -2.9306 H   0  0  0  0  0  0  0  0  0  0  0  0
    4.1728   -4.8177   -3.3622 H   0  0  0  0  0  0  0  0  0  0  0  0
    3.4716   -4.3773   -1.7954 H   0  0  0  0  0  0  0  0  0  0  0  0
    2.4395   -5.0293   -3.0695 H   0  0  0  0  0  0  0  0  0  0  0  0
    0.9829   -9.4638    1.9993 H   0  0  0  0  0  0  0  0  0  0  0  0
    0.7276  -11.4818    2.5200 H   0  0  0  0  0  0  0  0  0  0  0  0
    1.7527  -12.9092    2.7859 H   0  0  0  0  0  0  0  0  0  0  0  0
    2.3944  -10.1011    3.8321 H   0  0  0  0  0  0  0  0  0  0  0  0
    1.7855  -11.4536    4.7960 H   0  0  0  0  0  0  0  0  0  0  0  0
    3.3884  -11.5456    4.0476 H   0  0  0  0  0  0  0  0  0  0  0  0
   -1.5084   -7.8185    3.8218 H   0  0  0  0  0  0  0  0  0  0  0  0
   -2.6399   -9.8986    4.5038 H   0  0  0  0  0  0  0  0  0  0  0  0
   -2.9070  -11.7457    2.8983 H   0  0  0  0  0  0  0  0  0  0  0  0
   -2.1387  -12.7771    0.8014 H   0  0  0  0  0  0  0  0  0  0  0  0
   -1.3599  -11.7965   -0.4493 H   0  0  0  0  0  0  0  0  0  0  0  0
   -4.3211  -11.6738    0.3063 H   0  0  0  0  0  0  0  0  0  0  0  0
   -3.5467  -10.6941   -0.9384 H   0  0  0  0  0  0  0  0  0  0  0  0
   -3.6583  -12.4464   -1.1381 H   0  0  0  0  0  0  0  0  0  0  0  0
   -0.9631   -9.4158   -0.1009 H   0  0  0  0  0  0  0  0  0  0  0  0
   -5.9335    5.2435    1.9226 H   0  0  0  0  0  0  0  0  0  0  0  0
   -7.3493    6.6684    3.3518 H   0  0  0  0  0  0  0  0  0  0  0  0
   -6.3341    8.4502    4.7131 H   0  0  0  0  0  0  0  0  0  0  0  0
   -4.3884    9.9324    5.0665 H   0  0  0  0  0  0  0  0  0  0  0  0
   -2.7829    9.4496    4.4994 H   0  0  0  0  0  0  0  0  0  0  0  0
   -2.7260    7.6363    6.2112 H   0  0  0  0  0  0  0  0  0  0  0  0
   -2.9582    9.2157    6.9681 H   0  0  0  0  0  0  0  0  0  0  0  0
   -4.3261    8.1132    6.7768 H   0  0  0  0  0  0  0  0  0  0  0  0
   -2.4854    7.4241    3.1864 H   0  0  0  0  0  0  0  0  0  0  0  0
    1.2320   -2.5443    1.1115 H   0  0  0  0  0  0  0  0  0  0  0  0
    0.6358   -0.9048    0.8610 H   0  0  0  0  0  0  0  0  0  0  0  0
    1.7027   -1.7318   -1.2183 H   0  0  0  0  0  0  0  0  0  0  0  0
    0.7503   -3.2139   -1.1628 H   0  0  0  0  0  0  0  0  0  0  0  0
   -0.0374   -1.6835   -1.5338 H   0  0  0  0  0  0  0  0  0  0  0  0
   -0.6835    1.9189   -0.6016 H   0  0  0  0  0  0  0  0  0  0  0  0
   -0.0984    0.2635   -0.4782 H   0  0  0  0  0  0  0  0  0  0  0  0
   -1.4442    0.5419   -2.5391 H   0  0  0  0  0  0  0  0  0  0  0  0
   -2.8173    1.1154   -1.5886 H   0  0  0  0  0  0  0  0  0  0  0  0
   -2.2824   -0.5583   -1.4326 H   0  0  0  0  0  0  0  0  0  0  0  0
   -3.9106    8.1193    0.5581 H   0  0  0  0  0  0  0  0  0  0  0  0
   -3.9277   12.5861   -3.1646 H   0  0  0  0  0  0  0  0  0  0  0  0
   -4.0070   15.1584   -1.3572 H   0  0  0  0  0  0  0  0  0  0  0  0
   -5.2789   14.4585   -2.3543 H   0  0  0  0  0  0  0  0  0  0  0  0
   -5.5414   14.6937   -0.6195 H   0  0  0  0  0  0  0  0  0  0  0  0
   -4.5250   13.1642    1.0083 H   0  0  0  0  0  0  0  0  0  0  0  0
   -4.0771    9.9890    2.0393 H   0  0  0  0  0  0  0  0  0  0  0  0
   -3.7646   11.6423    2.5707 H   0  0  0  0  0  0  0  0  0  0  0  0
   -2.4204   10.5933    2.0981 H   0  0  0  0  0  0  0  0  0  0  0  0
   -3.5017   10.3695   -3.9277 H   0  0  0  0  0  0  0  0  0  0  0  0
   -2.9382    9.0942   -2.8405 H   0  0  0  0  0  0  0  0  0  0  0  0
   -1.8252   10.3390   -3.3979 H   0  0  0  0  0  0  0  0  0  0  0  0
    0.4542    9.5919   -2.2224 H   0  0  0  0  0  0  0  0  0  0  0  0
   -1.7069   14.1438    1.5103 H   0  0  0  0  0  0  0  0  0  0  0  0
   -1.7298   16.2200    2.6503 H   0  0  0  0  0  0  0  0  0  0  0  0
   -3.3249   15.8272    1.9470 H   0  0  0  0  0  0  0  0  0  0  0  0
   -2.8843   17.5224    2.2731 H   0  0  0  0  0  0  0  0  0  0  0  0
   -1.0517   16.9741   -1.6496 H   0  0  0  0  0  0  0  0  0  0  0  0
   -0.0647   15.2199   -3.0633 H   0  0  0  0  0  0  0  0  0  0  0  0
  1  2  2  0  0  0  0
  2  3  1  0  0  0  0
  3  4  2  0  0  0  0
  3  5  1  0  0  0  0
  5  6  2  0  0  0  0
  6  7  1  0  0  0  0
  7  8  2  0  0  0  0
  8  9  1  0  0  0  0
  9 10  2  0  0  0  0
 10 11  1  0  0  0  0
 10 12  1  0  0  0  0
 12 13  2  0  0  0  0
 13 14  1  0  0  0  0
 14 15  2  0  0  0  0
 15 16  1  0  0  0  0
 16 17  2  0  0  0  0
 17 18  1  0  0  0  0
 18 19  3  0  0  0  0
 17 20  1  0  0  0  0
 20 21  3  0  0  0  0
  1 22  1  0  0  0  0
 22 23  2  0  0  0  0
 23 24  1  0  0  0  0
 24 25  1  0  0  0  0
 25 26  1  0  0  0  0
 26 27  1  0  0  0  0
 24 28  2  0  0  0  0
 28 29  1  0  0  0  0
 29 30  2  0  0  0  0
 30 31  1  0  0  0  0
 31 32  1  0  0  0  0
 32 33  1  0  0  0  0
 28 34  1  0  0  0  0
 34 35  2  0  0  0  0
 35 36  1  0  0  0  0
 36 37  2  0  0  0  0
 37 38  1  0  0  0  0
 38 39  2  0  0  0  0
 39 40  1  0  0  0  0
 40 41  1  0  0  0  0
 41 42  1  0  0  0  0
 40 43  2  0  0  0  0
 35 44  1  0  0  0  0
 44 45  1  0  0  0  0
 45 46  1  0  0  0  0
 46 47  1  0  0  0  0
 47 48  1  0  0  0  0
 48 49  1  0  0  0  0
 49 50  2  0  0  0  0
 50 51  1  0  0  0  0
 51 52  1  0  0  0  0
 49 53  1  0  0  0  0
 53 54  1  0  0  0  0
 54 55  1  0  0  0  0
 55 56  1  0  0  0  0
 56 57  1  0  0  0  0
 57 58  1  0  0  0  0
 58 59  2  0  0  0  0
 59 60  1  0  0  0  0
 60 61  2  0  0  0  0
 61 62  1  0  0  0  0
 62 63  1  0  0  0  0
 63 64  1  0  0  0  0
 62 65  2  0  0  0  0
 57 66  2  0  0  0  0
 66 67  1  0  0  0  0
 67 68  1  0  0  0  0
 68 69  1  0  0  0  0
 69 70  1  0  0  0  0
 70 71  1  0  0  0  0
 71 72  1  0  0  0  0
 72 73  1  0  0  0  0
 73 74  1  0  0  0  0
 74 75  1  0  0  0  0
 75 76  1  0  0  0  0
 73 77  1  0  0  0  0
 77 78  1  0  0  0  0
 70 79  1  0  0  0  0
 79 80  1  0  0  0  0
 66 81  1  0  0  0  0
 81 82  2  0  0  0  0
 82 83  1  0  0  0  0
 83 84  1  0  0  0  0
 84 85  2  0  0  0  0
 85 86  1  0  0  0  0
 86 87  2  0  0  0  0
 87 88  1  0  0  0  0
 87 89  1  0  0  0  0
 89 90  2  0  0  0  0
 90 91  1  0  0  0  0
 85 92  1  0  0  0  0
 83 93  2  0  0  0  0
 93 94  1  0  0  0  0
 93 95  1  0  0  0  0
 95 96  2  0  0  0  0
 96 97  1  0  0  0  0
 97 98  2  0  0  0  0
 97 99  1  0  0  0  0
 99100  2  0  0  0  0
100101  1  0  0  0  0
101102  1  0  0  0  0
102103  1  0  0  0  0
101104  2  0  0  0  0
104105  1  0  0  0  0
105106  2  0  0  0  0
106107  1  0  0  0  0
107108  2  0  0  0  0
108109  1  0  0  0  0
109110  3  0  0  0  0
108111  1  0  0  0  0
111112  3  0  0  0  0
 16  2  1  0  0  0  0
 30 22  1  0  0  0  0
 76 34  1  0  0  0  0
 94 81  1  0  0  0  0
107 96  1  0  0  0  0
 15  5  1  0  0  0  0
 43 36  1  0  0  0  0
 75 44  2  0  0  0  0
 90 84  1  0  0  0  0
106 99  1  0  0  0  0
 13  7  1  0  0  0  0
 74 46  2  0  0  0  0
 72 47  2  0  0  0  0
 52 48  2  0  0  0  0
 71 53  2  0  0  0  0
 69 54  2  0  0  0  0
 68 56  2  0  0  0  0
 65 58  1  0  0  0  0
  1113  1  0  0  0  0
  6114  1  0  0  0  0
  8115  1  0  0  0  0
  9116  1  0  0  0  0
 12117  1  0  0  0  0
 14118  1  0  0  0  0
 23119  1  0  0  0  0
 26120  1  0  0  0  0
 26121  1  0  0  0  0
 27122  1  0  0  0  0
 27123  1  0  0  0  0
 27124  1  0  0  0  0
 29125  1  0  0  0  0
 32126  1  0  0  0  0
 32127  1  0  0  0  0
 33128  1  0  0  0  0
 33129  1  0  0  0  0
 33130  1  0  0  0  0
 37131  1  0  0  0  0
 38132  1  0  0  0  0
 39133  1  0  0  0  0
 41134  1  0  0  0  0
 41135  1  0  0  0  0
 42136  1  0  0  0  0
 42137  1  0  0  0  0
 42138  1  0  0  0  0
 43139  1  0  0  0  0
 59140  1  0  0  0  0
 60141  1  0  0  0  0
 61142  1  0  0  0  0
 63143  1  0  0  0  0
 63144  1  0  0  0  0
 64145  1  0  0  0  0
 64146  1  0  0  0  0
 64147  1  0  0  0  0
 65148  1  0  0  0  0
 77149  1  0  0  0  0
 77150  1  0  0  0  0
 78151  1  0  0  0  0
 78152  1  0  0  0  0
 78153  1  0  0  0  0
 79154  1  0  0  0  0
 79155  1  0  0  0  0
 80156  1  0  0  0  0
 80157  1  0  0  0  0
 80158  1  0  0  0  0
 82159  1  0  0  0  0
 86160  1  0  0  0  0
 88161  1  0  0  0  0
 88162  1  0  0  0  0
 88163  1  0  0  0  0
 89164  1  0  0  0  0
 91165  1  0  0  0  0
 91166  1  0  0  0  0
 91167  1  0  0  0  0
 92168  1  0  0  0  0
 92169  1  0  0  0  0
 92170  1  0  0  0  0
 95171  1  0  0  0  0
100172  1  0  0  0  0
103173  1  0  0  0  0
103174  1  0  0  0  0
103175  1  0  0  0  0
104176  1  0  0  0  0
105177  1  0  0  0  0
M  END
