
  xtb     02052210413D
 energy: -304.460804356946 gnorm: 0.000803561697 xtb: 6.4.1 (unknown)
175193  0     0  0            999 V2000
   -2.8241    2.3957    9.6593 C   0  0  0  0  0  0  0  0  0  0  0  0
   -2.5855    1.0998    9.9983 C   0  0  0  0  0  0  0  0  0  0  0  0
   -3.3529    0.4665   11.1067 C   0  0  0  0  0  0  0  0  0  0  0  0
   -4.0308    1.0250   11.9365 O   0  0  0  0  0  0  0  0  0  0  0  0
   -3.1620   -0.9869   10.9211 C   0  0  0  0  0  0  0  0  0  0  0  0
   -3.7479   -2.0211   11.5917 C   0  0  0  0  0  0  0  0  0  0  0  0
   -3.4376   -3.3485   11.2193 C   0  0  0  0  0  0  0  0  0  0  0  0
   -4.0154   -4.4523   11.8794 C   0  0  0  0  0  0  0  0  0  0  0  0
   -3.7156   -5.7328   11.5060 C   0  0  0  0  0  0  0  0  0  0  0  0
   -2.8176   -5.9380   10.4498 C   0  0  0  0  0  0  0  0  0  0  0  0
   -2.5356   -7.2054   10.0950 F   0  0  0  0  0  0  0  0  0  0  0  0
   -2.2279   -4.9044    9.7774 C   0  0  0  0  0  0  0  0  0  0  0  0
   -2.5242   -3.5785   10.1493 C   0  0  0  0  0  0  0  0  0  0  0  0
   -1.9248   -2.4877    9.4777 C   0  0  0  0  0  0  0  0  0  0  0  0
   -2.2354   -1.2117    9.8623 C   0  0  0  0  0  0  0  0  0  0  0  0
   -1.7565    0.0827    9.3876 C   0  0  0  0  0  0  0  0  0  0  0  0
   -0.5857    0.2967    8.7080 C   0  0  0  0  0  0  0  0  0  0  0  0
    0.2201   -0.7344    8.1870 C   0  0  0  0  0  0  0  0  0  0  0  0
    0.8976   -1.5372    7.7233 N   0  0  0  0  0  0  0  0  0  0  0  0
   -0.0136    1.5743    8.5318 C   0  0  0  0  0  0  0  0  0  0  0  0
    0.5093    2.5890    8.4119 N   0  0  0  0  0  0  0  0  0  0  0  0
   -2.5500    3.0500    8.4357 C   0  0  0  0  0  0  0  0  0  0  0  0
   -2.4531    2.1831    6.9218 S   0  0  0  0  0  0  0  0  0  0  0  0
   -2.2432    3.6540    6.0223 C   0  0  0  0  0  0  0  0  0  0  0  0
   -2.1962    4.7562    6.8671 C   0  0  0  0  0  0  0  0  0  0  0  0
   -1.8105    6.1109    6.4428 C   0  0  0  0  0  0  0  0  0  0  0  0
   -1.2935    6.3517    5.3652 O   0  0  0  0  0  0  0  0  0  0  0  0
   -2.0873    7.1253    7.4559 C   0  0  0  0  0  0  0  0  0  0  0  0
   -2.0252    8.4777    7.2362 C   0  0  0  0  0  0  0  0  0  0  0  0
   -1.6121    9.1883    6.0002 C   0  0  0  0  0  0  0  0  0  0  0  0
   -2.2713   10.5529    5.8458 C   0  0  0  0  0  0  0  0  0  0  0  0
   -2.4925    9.3550    8.6567 S   0  0  0  0  0  0  0  0  0  0  0  0
   -2.7347    7.9047    9.5645 C   0  0  0  0  0  0  0  0  0  0  0  0
   -3.1507    7.9346   10.9893 C   0  0  0  0  0  0  0  0  0  0  0  0
   -3.3610    9.3409   11.5301 C   0  0  0  0  0  0  0  0  0  0  0  0
   -2.4905    6.7959    8.7894 C   0  0  0  0  0  0  0  0  0  0  0  0
   -2.5806    5.4271    9.2823 C   0  0  0  0  0  0  0  0  0  0  0  0
   -2.8071    5.1464   10.4483 O   0  0  0  0  0  0  0  0  0  0  0  0
   -2.4288    4.4175    8.2208 C   0  0  0  0  0  0  0  0  0  0  0  0
   -2.2185    3.6011    4.6020 C   0  0  0  0  0  0  0  0  0  0  0  0
   -2.7769    4.4803    3.6850 C   0  0  0  0  0  0  0  0  0  0  0  0
   -3.5708    5.6535    4.0417 C   0  0  0  0  0  0  0  0  0  0  0  0
   -3.4062    6.8441    3.3399 C   0  0  0  0  0  0  0  0  0  0  0  0
   -4.1013    7.9746    3.7274 C   0  0  0  0  0  0  0  0  0  0  0  0
   -4.9462    7.9362    4.8219 C   0  0  0  0  0  0  0  0  0  0  0  0
   -5.1346    6.7524    5.5257 C   0  0  0  0  0  0  0  0  0  0  0  0
   -6.0678    6.6954    6.7012 C   0  0  0  0  0  0  0  0  0  0  0  0
   -7.4738    6.2873    6.2584 C   0  0  0  0  0  0  0  0  0  0  0  0
   -4.4651    5.6139    5.1084 C   0  0  0  0  0  0  0  0  0  0  0  0
   -2.5015    4.0729    2.3677 C   0  0  0  0  0  0  0  0  0  0  0  0
   -2.9289    4.7420    0.8114 S   0  0  0  0  0  0  0  0  0  0  0  0
   -2.0930    3.4363    0.0456 C   0  0  0  0  0  0  0  0  0  0  0  0
   -1.8271    2.9590   -1.2464 C   0  0  0  0  0  0  0  0  0  0  0  0
   -2.2888    3.3887   -2.5094 C   0  0  0  0  0  0  0  0  0  0  0  0
   -1.9685    2.6034   -3.6670 C   0  0  0  0  0  0  0  0  0  0  0  0
   -2.5169    3.0845   -4.7716 N   0  0  0  0  0  0  0  0  0  0  0  0
   -3.3585    4.4135   -4.3898 S   0  0  0  0  0  0  0  0  0  0  0  0
   -3.0579    4.4266   -2.7986 N   0  0  0  0  0  0  0  0  0  0  0  0
   -1.0956    1.5028   -3.5243 C   0  0  0  0  0  0  0  0  0  0  0  0
   -0.5010    0.6671   -4.4832 C   0  0  0  0  0  0  0  0  0  0  0  0
   -0.5218    0.4087   -6.1937 S   0  0  0  0  0  0  0  0  0  0  0  0
    0.7307   -0.7975   -6.0069 C   0  0  0  0  0  0  0  0  0  0  0  0
    1.3952   -1.6371   -6.9258 C   0  0  0  0  0  0  0  0  0  0  0  0
    1.0347   -1.7325   -8.3374 C   0  0  0  0  0  0  0  0  0  0  0  0
    0.6783   -0.5932   -9.0545 C   0  0  0  0  0  0  0  0  0  0  0  0
    0.2976   -0.7012  -10.3787 C   0  0  0  0  0  0  0  0  0  0  0  0
    0.2740   -1.9371  -11.0021 C   0  0  0  0  0  0  0  0  0  0  0  0
    0.6249   -3.0855  -10.3020 C   0  0  0  0  0  0  0  0  0  0  0  0
    0.5670   -4.4347  -10.9598 C   0  0  0  0  0  0  0  0  0  0  0  0
   -0.8130   -5.0662  -10.7678 C   0  0  0  0  0  0  0  0  0  0  0  0
    0.9874   -2.9721   -8.9699 C   0  0  0  0  0  0  0  0  0  0  0  0
    2.3289   -2.4345   -6.2822 C   0  0  0  0  0  0  0  0  0  0  0  0
    2.3422   -2.1927   -4.5415 S   0  0  0  0  0  0  0  0  0  0  0  0
    1.1209   -0.9796   -4.6780 C   0  0  0  0  0  0  0  0  0  0  0  0
    0.4096   -0.1459   -3.8056 C   0  0  0  0  0  0  0  0  0  0  0  0
    0.3727    0.1175   -2.4605 N   0  0  0  0  0  0  0  0  0  0  0  0
   -0.5551    1.1305   -2.2613 C   0  0  0  0  0  0  0  0  0  0  0  0
   -1.0330    1.7858   -1.0965 C   0  0  0  0  0  0  0  0  0  0  0  0
   -0.8790    1.5344    0.2538 N   0  0  0  0  0  0  0  0  0  0  0  0
   -1.5120    2.5350    0.9429 C   0  0  0  0  0  0  0  0  0  0  0  0
   -1.7623    2.8878    2.2737 C   0  0  0  0  0  0  0  0  0  0  0  0
   -1.4095    2.2445    3.8354 S   0  0  0  0  0  0  0  0  0  0  0  0
   -0.4971    0.3203    0.9391 C   0  0  0  0  0  0  0  0  0  0  0  0
    0.8196    0.4724    1.6990 C   0  0  0  0  0  0  0  0  0  0  0  0
    1.5349   -0.2220   -1.6671 C   0  0  0  0  0  0  0  0  0  0  0  0
    2.5314    0.9351   -1.6398 C   0  0  0  0  0  0  0  0  0  0  0  0
    3.2549   -3.3782   -6.8081 C   0  0  0  0  0  0  0  0  0  0  0  0
    3.9634   -3.3051   -8.0139 C   0  0  0  0  0  0  0  0  0  0  0  0
    3.7978   -2.2297   -8.8103 O   0  0  0  0  0  0  0  0  0  0  0  0
    4.4380   -2.1950  -10.0785 C   0  0  0  0  0  0  0  0  0  0  0  0
    3.9360   -0.9634  -10.8121 C   0  0  0  0  0  0  0  0  0  0  0  0
    4.8084   -4.4115   -8.1774 C   0  0  0  0  0  0  0  0  0  0  0  0
    5.6263   -4.6166   -9.2539 O   0  0  0  0  0  0  0  0  0  0  0  0
    7.0144   -4.3601   -9.0323 C   0  0  0  0  0  0  0  0  0  0  0  0
    7.7721   -4.7837  -10.2765 C   0  0  0  0  0  0  0  0  0  0  0  0
    4.7360   -5.3441   -7.1201 C   0  0  0  0  0  0  0  0  0  0  0  0
    3.6679   -4.7756   -5.8720 S   0  0  0  0  0  0  0  0  0  0  0  0
    5.3963   -6.5761   -7.1774 C   0  0  0  0  0  0  0  0  0  0  0  0
    5.4499   -7.5897   -6.2510 C   0  0  0  0  0  0  0  0  0  0  0  0
    4.8095   -7.5643   -4.9327 C   0  0  0  0  0  0  0  0  0  0  0  0
    4.1514   -6.6587   -4.4462 O   0  0  0  0  0  0  0  0  0  0  0  0
    5.1156   -8.8583   -4.3039 C   0  0  0  0  0  0  0  0  0  0  0  0
    4.7422   -9.3395   -3.0649 C   0  0  0  0  0  0  0  0  0  0  0  0
    5.1581  -10.6108   -2.7005 C   0  0  0  0  0  0  0  0  0  0  0  0
    5.9333  -11.3903   -3.5551 C   0  0  0  0  0  0  0  0  0  0  0  0
    6.3914  -12.7501   -3.1329 C   0  0  0  0  0  0  0  0  0  0  0  0
    6.3065  -10.8946   -4.8051 C   0  0  0  0  0  0  0  0  0  0  0  0
    5.8983   -9.6282   -5.1825 C   0  0  0  0  0  0  0  0  0  0  0  0
    6.1306   -8.8565   -6.4053 C   0  0  0  0  0  0  0  0  0  0  0  0
    6.8739   -9.2846   -7.4764 C   0  0  0  0  0  0  0  0  0  0  0  0
    7.1418   -8.5492   -8.6476 C   0  0  0  0  0  0  0  0  0  0  0  0
    7.4296   -8.0286   -9.6310 N   0  0  0  0  0  0  0  0  0  0  0  0
    7.4997  -10.5462   -7.5542 C   0  0  0  0  0  0  0  0  0  0  0  0
    8.0342  -11.5535   -7.6903 N   0  0  0  0  0  0  0  0  0  0  0  0
   -3.3457    2.9968   10.3998 H   0  0  0  0  0  0  0  0  0  0  0  0
   -4.4408   -1.8299   12.3974 H   0  0  0  0  0  0  0  0  0  0  0  0
   -4.7046   -4.2687   12.6899 H   0  0  0  0  0  0  0  0  0  0  0  0
   -4.1498   -6.5876   11.9999 H   0  0  0  0  0  0  0  0  0  0  0  0
   -1.5378   -5.0998    8.9715 H   0  0  0  0  0  0  0  0  0  0  0  0
   -1.2420   -2.6876    8.6669 H   0  0  0  0  0  0  0  0  0  0  0  0
   -1.8415    8.5458    5.1467 H   0  0  0  0  0  0  0  0  0  0  0  0
   -0.5233    9.3075    6.0189 H   0  0  0  0  0  0  0  0  0  0  0  0
   -1.9970   11.2094    6.6694 H   0  0  0  0  0  0  0  0  0  0  0  0
   -1.9544   11.0166    4.9156 H   0  0  0  0  0  0  0  0  0  0  0  0
   -3.3539   10.4511    5.8306 H   0  0  0  0  0  0  0  0  0  0  0  0
   -2.3900    7.4095   11.5762 H   0  0  0  0  0  0  0  0  0  0  0  0
   -4.0658    7.3433   11.0959 H   0  0  0  0  0  0  0  0  0  0  0  0
   -4.1343    9.8580   10.9654 H   0  0  0  0  0  0  0  0  0  0  0  0
   -3.6644    9.2992   12.5727 H   0  0  0  0  0  0  0  0  0  0  0  0
   -2.4418    9.9189   11.4612 H   0  0  0  0  0  0  0  0  0  0  0  0
   -2.7092    6.8899    2.5185 H   0  0  0  0  0  0  0  0  0  0  0  0
   -3.9686    8.8969    3.1812 H   0  0  0  0  0  0  0  0  0  0  0  0
   -5.4681    8.8293    5.1350 H   0  0  0  0  0  0  0  0  0  0  0  0
   -6.1112    7.6747    7.1828 H   0  0  0  0  0  0  0  0  0  0  0  0
   -5.6952    5.9741    7.4328 H   0  0  0  0  0  0  0  0  0  0  0  0
   -7.4527    5.3059    5.7902 H   0  0  0  0  0  0  0  0  0  0  0  0
   -7.8648    7.0016    5.5374 H   0  0  0  0  0  0  0  0  0  0  0  0
   -8.1459    6.2507    7.1125 H   0  0  0  0  0  0  0  0  0  0  0  0
   -4.6388    4.6811    5.6262 H   0  0  0  0  0  0  0  0  0  0  0  0
    0.7196    0.3758   -8.5820 H   0  0  0  0  0  0  0  0  0  0  0  0
    0.0249    0.1860  -10.9313 H   0  0  0  0  0  0  0  0  0  0  0  0
   -0.0153   -2.0127  -12.0407 H   0  0  0  0  0  0  0  0  0  0  0  0
    1.3261   -5.0898  -10.5267 H   0  0  0  0  0  0  0  0  0  0  0  0
    0.7714   -4.3344  -12.0278 H   0  0  0  0  0  0  0  0  0  0  0  0
   -0.8547   -6.0420  -11.2462 H   0  0  0  0  0  0  0  0  0  0  0  0
   -1.0290   -5.1885   -9.7088 H   0  0  0  0  0  0  0  0  0  0  0  0
   -1.5827   -4.4323  -11.2025 H   0  0  0  0  0  0  0  0  0  0  0  0
    1.2290   -3.8637   -8.4090 H   0  0  0  0  0  0  0  0  0  0  0  0
   -0.4659   -0.4953    0.2155 H   0  0  0  0  0  0  0  0  0  0  0  0
   -1.2886    0.0868    1.6607 H   0  0  0  0  0  0  0  0  0  0  0  0
    1.1075   -0.4824    2.1302 H   0  0  0  0  0  0  0  0  0  0  0  0
    0.7017    1.1883    2.5077 H   0  0  0  0  0  0  0  0  0  0  0  0
    1.6173    0.8240    1.0510 H   0  0  0  0  0  0  0  0  0  0  0  0
    1.2554   -0.5043   -0.6568 H   0  0  0  0  0  0  0  0  0  0  0  0
    1.9940   -1.0926   -2.1421 H   0  0  0  0  0  0  0  0  0  0  0  0
    2.8505    1.1794   -2.6504 H   0  0  0  0  0  0  0  0  0  0  0  0
    3.4061    0.6588   -1.0575 H   0  0  0  0  0  0  0  0  0  0  0  0
    2.0777    1.8213   -1.2002 H   0  0  0  0  0  0  0  0  0  0  0  0
    4.2030   -3.1054  -10.6403 H   0  0  0  0  0  0  0  0  0  0  0  0
    5.5249   -2.1321   -9.9474 H   0  0  0  0  0  0  0  0  0  0  0  0
    2.8639   -1.0326  -10.9696 H   0  0  0  0  0  0  0  0  0  0  0  0
    4.4369   -0.8826  -11.7725 H   0  0  0  0  0  0  0  0  0  0  0  0
    4.1423   -0.0726  -10.2250 H   0  0  0  0  0  0  0  0  0  0  0  0
    7.1565   -3.2862   -8.8336 H   0  0  0  0  0  0  0  0  0  0  0  0
    7.3694   -4.9146   -8.1543 H   0  0  0  0  0  0  0  0  0  0  0  0
    8.8259   -4.5475  -10.1595 H   0  0  0  0  0  0  0  0  0  0  0  0
    7.6610   -5.8534  -10.4296 H   0  0  0  0  0  0  0  0  0  0  0  0
    7.3809   -4.2609  -11.1450 H   0  0  0  0  0  0  0  0  0  0  0  0
    5.9065   -6.7400   -8.1197 H   0  0  0  0  0  0  0  0  0  0  0  0
    4.1404   -8.7319   -2.4067 H   0  0  0  0  0  0  0  0  0  0  0  0
    4.8770  -11.0085   -1.7363 H   0  0  0  0  0  0  0  0  0  0  0  0
    6.5025  -13.4060   -3.9928 H   0  0  0  0  0  0  0  0  0  0  0  0
    5.6937  -13.1969   -2.4290 H   0  0  0  0  0  0  0  0  0  0  0  0
    7.3628  -12.6743   -2.6430 H   0  0  0  0  0  0  0  0  0  0  0  0
    6.9059  -11.5099   -5.4564 H   0  0  0  0  0  0  0  0  0  0  0  0
  1  2  2  0  0  0  0
  2  3  1  0  0  0  0
  3  4  2  0  0  0  0
  3  5  1  0  0  0  0
  5  6  2  0  0  0  0
  6  7  1  0  0  0  0
  7  8  2  0  0  0  0
  8  9  1  0  0  0  0
  9 10  2  0  0  0  0
 10 11  1  0  0  0  0
 10 12  1  0  0  0  0
 12 13  2  0  0  0  0
 13 14  1  0  0  0  0
 14 15  2  0  0  0  0
 15 16  1  0  0  0  0
 16 17  2  0  0  0  0
 17 18  1  0  0  0  0
 18 19  3  0  0  0  0
 17 20  1  0  0  0  0
 20 21  3  0  0  0  0
  1 22  1  0  0  0  0
 22 23  1  0  0  0  0
 23 24  1  0  0  0  0
 24 25  2  0  0  0  0
 25 26  1  0  0  0  0
 26 27  2  0  0  0  0
 26 28  1  0  0  0  0
 28 29  2  0  0  0  0
 29 30  1  0  0  0  0
 30 31  1  0  0  0  0
 29 32  1  0  0  0  0
 32 33  1  0  0  0  0
 33 34  1  0  0  0  0
 34 35  1  0  0  0  0
 33 36  2  0  0  0  0
 36 37  1  0  0  0  0
 37 38  2  0  0  0  0
 37 39  1  0  0  0  0
 24 40  1  0  0  0  0
 40 41  2  0  0  0  0
 41 42  1  0  0  0  0
 42 43  2  0  0  0  0
 43 44  1  0  0  0  0
 44 45  2  0  0  0  0
 45 46  1  0  0  0  0
 46 47  1  0  0  0  0
 47 48  1  0  0  0  0
 46 49  2  0  0  0  0
 41 50  1  0  0  0  0
 50 51  1  0  0  0  0
 51 52  1  0  0  0  0
 52 53  1  0  0  0  0
 53 54  1  0  0  0  0
 54 55  1  0  0  0  0
 55 56  2  0  0  0  0
 56 57  1  0  0  0  0
 57 58  1  0  0  0  0
 55 59  1  0  0  0  0
 59 60  1  0  0  0  0
 60 61  1  0  0  0  0
 61 62  1  0  0  0  0
 62 63  1  0  0  0  0
 63 64  1  0  0  0  0
 64 65  2  0  0  0  0
 65 66  1  0  0  0  0
 66 67  2  0  0  0  0
 67 68  1  0  0  0  0
 68 69  1  0  0  0  0
 69 70  1  0  0  0  0
 68 71  2  0  0  0  0
 63 72  2  0  0  0  0
 72 73  1  0  0  0  0
 73 74  1  0  0  0  0
 74 75  1  0  0  0  0
 75 76  1  0  0  0  0
 76 77  1  0  0  0  0
 77 78  1  0  0  0  0
 78 79  1  0  0  0  0
 79 80  1  0  0  0  0
 80 81  1  0  0  0  0
 81 82  1  0  0  0  0
 79 83  1  0  0  0  0
 83 84  1  0  0  0  0
 76 85  1  0  0  0  0
 85 86  1  0  0  0  0
 72 87  1  0  0  0  0
 87 88  2  0  0  0  0
 88 89  1  0  0  0  0
 89 90  1  0  0  0  0
 90 91  1  0  0  0  0
 88 92  1  0  0  0  0
 92 93  1  0  0  0  0
 93 94  1  0  0  0  0
 94 95  1  0  0  0  0
 92 96  2  0  0  0  0
 96 97  1  0  0  0  0
 96 98  1  0  0  0  0
 98 99  2  0  0  0  0
 99100  1  0  0  0  0
100101  2  0  0  0  0
100102  1  0  0  0  0
102103  2  0  0  0  0
103104  1  0  0  0  0
104105  2  0  0  0  0
105106  1  0  0  0  0
105107  1  0  0  0  0
107108  2  0  0  0  0
108109  1  0  0  0  0
109110  2  0  0  0  0
110111  1  0  0  0  0
111112  3  0  0  0  0
110113  1  0  0  0  0
113114  3  0  0  0  0
 16  2  1  0  0  0  0
 39 22  2  0  0  0  0
 82 40  1  0  0  0  0
 97 87  1  0  0  0  0
109 99  1  0  0  0  0
 15  5  1  0  0  0  0
 39 25  1  0  0  0  0
 49 42  1  0  0  0  0
 81 50  2  0  0  0  0
108102  1  0  0  0  0
 13  7  1  0  0  0  0
 36 28  1  0  0  0  0
 80 52  2  0  0  0  0
 78 53  2  0  0  0  0
 58 54  2  0  0  0  0
 77 59  2  0  0  0  0
 75 60  2  0  0  0  0
 74 62  2  0  0  0  0
 71 64  1  0  0  0  0
  1115  1  0  0  0  0
  6116  1  0  0  0  0
  8117  1  0  0  0  0
  9118  1  0  0  0  0
 12119  1  0  0  0  0
 14120  1  0  0  0  0
 30121  1  0  0  0  0
 30122  1  0  0  0  0
 31123  1  0  0  0  0
 31124  1  0  0  0  0
 31125  1  0  0  0  0
 34126  1  0  0  0  0
 34127  1  0  0  0  0
 35128  1  0  0  0  0
 35129  1  0  0  0  0
 35130  1  0  0  0  0
 43131  1  0  0  0  0
 44132  1  0  0  0  0
 45133  1  0  0  0  0
 47134  1  0  0  0  0
 47135  1  0  0  0  0
 48136  1  0  0  0  0
 48137  1  0  0  0  0
 48138  1  0  0  0  0
 49139  1  0  0  0  0
 65140  1  0  0  0  0
 66141  1  0  0  0  0
 67142  1  0  0  0  0
 69143  1  0  0  0  0
 69144  1  0  0  0  0
 70145  1  0  0  0  0
 70146  1  0  0  0  0
 70147  1  0  0  0  0
 71148  1  0  0  0  0
 83149  1  0  0  0  0
 83150  1  0  0  0  0
 84151  1  0  0  0  0
 84152  1  0  0  0  0
 84153  1  0  0  0  0
 85154  1  0  0  0  0
 85155  1  0  0  0  0
 86156  1  0  0  0  0
 86157  1  0  0  0  0
 86158  1  0  0  0  0
 90159  1  0  0  0  0
 90160  1  0  0  0  0
 91161  1  0  0  0  0
 91162  1  0  0  0  0
 91163  1  0  0  0  0
 94164  1  0  0  0  0
 94165  1  0  0  0  0
 95166  1  0  0  0  0
 95167  1  0  0  0  0
 95168  1  0  0  0  0
 98169  1  0  0  0  0
103170  1  0  0  0  0
104171  1  0  0  0  0
106172  1  0  0  0  0
106173  1  0  0  0  0
106174  1  0  0  0  0
107175  1  0  0  0  0
M  END
