182

C         -0.53100       -1.84870      -11.45330
C         -1.11610       -3.06590      -11.59040
C         -1.63160       -3.52940      -12.90630
O         -1.79100       -2.86220      -13.90260
C         -1.84750       -4.98310      -12.74730
C         -2.21600       -5.90470      -13.68410
C         -2.34280       -7.26070      -13.30670
C         -2.72950       -8.25050      -14.23310
C         -2.84590       -9.56020      -13.85810
C         -2.57300       -9.91160      -12.52920
F         -2.69190      -11.20560      -12.17860
C         -2.19420       -8.99260      -11.59090
C         -2.07270       -7.63850      -11.95920
C         -1.69820       -6.66180      -11.00760
C         -1.59740       -5.35250      -11.39380
C         -1.28920       -4.14330      -10.63640
C         -1.40710       -4.01370       -9.27600
C         -1.64130       -5.09680       -8.40520
N         -1.80050       -5.94840       -7.65130
C         -1.40680       -2.78130       -8.59060
N         -1.49970       -1.81380       -7.97890
C          0.31750       -1.43350      -10.37210
C          1.20930       -2.33640       -9.78110
C          2.00230       -1.98580       -8.70810
O          2.87630       -2.80620       -8.07630
C          3.15600       -4.09370       -8.58730
C          2.14540       -5.14300       -8.13540
C          1.87640       -0.67910       -8.17840
C          0.99650        0.22090       -8.76750
C          0.23680       -0.11370       -9.87900
O         -0.62540        0.70960      -10.51480
C         -1.02170        1.92330       -9.90070
C         -1.94940        1.68920       -8.71390
C          2.57710       -0.30060       -6.96900
C          3.86500       -0.57230       -6.56250
C          4.89790       -1.15320       -7.41810
C          4.99550       -0.78870       -8.75920
C          5.97350       -1.34910       -9.55700
C          6.86480       -2.26820       -9.02990
C          6.79280       -2.63050       -7.69110
C          7.73010       -3.65420       -7.11650
C          7.09940       -5.04740       -7.16510
C          5.80660       -2.06670       -6.89590
C          4.07820       -0.15730       -5.22770
S          5.45190       -0.26300       -4.15110
C          4.50010        0.45800       -2.89730
C          4.60390        0.79570       -1.53760
C          5.70010        0.74110       -0.65090
C          5.51670        1.17080        0.70530
N          6.63150        1.09720        1.41560
S          7.81080        0.53260        0.45980
N          6.94350        0.35840       -0.89690
C          4.22350        1.54010        1.13250
C          3.72520        1.80500        2.41860
S          4.28900        1.88390        4.05420
C          2.63870        2.10020        4.58790
C          2.04550        2.17110        5.86930
C          2.78090        2.07660        7.13530
C          3.97500        2.77170        7.30530
C          4.61250        2.75810        8.53160
C          4.06460        2.06740        9.59710
C          2.89150        1.33970        9.43660
C          2.30840        0.55880       10.57920
C          2.97760       -0.81110       10.70130
C          2.27570        1.33030        8.19590
C          0.67460        2.29500        5.77710
S          0.10170        2.28550        4.12190
C          1.72150        2.12940        3.53850
C          2.34490        1.96100        2.29390
N          1.97410        1.84300        0.98200
C          3.11360        1.56870        0.24180
C          3.33070        1.28790       -1.13420
N          2.49730        1.29630       -2.24400
C          3.20550        0.78460       -3.29860
C          2.96640        0.44120       -4.63650
S          1.63660        0.51850       -5.73530
C          1.30300        2.06880       -2.50670
C          1.52510        3.55360       -2.22940
C          0.57850        1.66830        0.65300
C          0.25920        0.21550        0.30850
C         -0.28080        2.27710        6.86730
C         -1.33300        1.34780        6.82860
C         -2.08390        1.04830        7.93860
C         -1.81120        1.64190        9.18100
C         -0.85430        2.66330        9.20530
C         -0.37680        3.49900       10.28560
C         -0.90850        3.52080       11.53560
C         -0.46150        4.12610       12.74750
C          0.75610        4.83010       12.99860
C          0.87990        5.21330       14.28600
S         -0.47180        4.73010       15.25100
C         -1.21160        4.00930       13.90170
C          0.64980        4.38100        9.67750
O          1.30570        5.27430       10.17390
N          0.70700        4.06540        8.33470
C          1.31680        4.97260        7.39110
C          0.26170        5.70410        6.56610
C         -0.13870        3.01190        8.04440
C         -2.39040        1.10680       10.38840
C         -3.68490        0.74530       10.57490
C         -4.80390        1.02370        9.63170
O         -4.78980        1.73130        8.64980
C         -5.96650        0.29830       10.17970
C         -7.21360        0.16230        9.64190
C         -8.18020       -0.60510       10.32830
C         -9.48100       -0.78430        9.81480
C        -10.40620       -1.53340       10.48690
C        -10.04350       -2.12740       11.70380
F        -10.96730       -2.86160       12.34960
C         -8.79690       -1.98560       12.24630
C         -7.83100       -1.21630       11.56800
C         -6.53430       -1.04880       12.10590
C         -5.61340       -0.29850       11.42270
C         -4.23010        0.04900       11.73040
C         -3.59720       -0.19410       12.92100
C         -4.19020       -0.87600       14.00500
N         -4.61340       -1.42560       14.91970
C         -2.30160        0.24630       13.26280
N         -1.27330        0.60810       13.62570
H         -0.69650       -1.13580      -12.25280
H         -2.41170       -5.60310      -14.70220
H         -2.93470       -7.95560      -15.25120
H         -3.14150      -10.32890      -14.55430
H         -1.99660       -9.29800      -10.57520
H         -1.49420       -6.97550       -9.99590
H          1.27060       -3.32580      -10.20750
H          4.14290       -4.33140       -8.17940
H          3.23660       -4.06500       -9.68070
H          1.15190       -4.93050       -8.52150
H          2.45440       -6.12410       -8.48530
H          2.08920       -5.15650       -7.05020
H          0.92870        1.20540       -8.33130
H         -0.14570        2.51470       -9.60790
H         -1.54840        2.46170      -10.69330
H         -1.46600        1.07230       -7.96070
H         -2.84670        1.17310       -9.04480
H         -2.22930        2.64170       -8.27270
H          4.30840       -0.06270       -9.16900
H          6.04510       -1.06520      -10.59720
H          7.62710       -2.70220       -9.66110
H          8.66330       -3.66150       -7.68280
H          7.96010       -3.40070       -6.08000
H          7.77980       -5.78770       -6.75110
H          6.17680       -5.06550       -6.58870
H          6.86970       -5.32430       -8.19240
H          5.73290       -2.35630       -5.85810
H          4.38900        3.34000        6.48550
H          5.53330        3.30720        8.66060
H          4.54950        2.09010       10.56200
H          1.23570        0.42390       10.42190
H          2.44630        1.11260       11.51010
H          2.84370       -1.38070        9.78400
H          2.54470       -1.37170       11.52620
H          4.04430       -0.69750       10.87970
H          1.38430        0.73630        8.05380
H          0.45390        1.67790       -1.94520
H          1.07370        1.93030       -3.56620
H          2.31160        3.93790       -2.87500
H          0.61210        4.10890       -2.42690
H          1.82400        3.72160       -1.19730
H          0.01120        1.95950        1.54060
H          0.28660        2.34690       -0.14830
H          0.86070       -0.13230       -0.52780
H          0.46920       -0.42160        1.16450
H         -0.79230        0.11620        0.05270
H         -1.50290        0.80610        5.90960
H         -2.83020        0.27290        7.87800
H         -1.82990        2.96050       11.65940
H          1.47630        5.04380       12.23220
H          1.68260        5.75290       14.74730
H         -2.15860        3.51860       14.01410
H          2.00430        4.43930        6.73430
H          1.88810        5.68340        7.99410
H          0.74500        6.41220        5.89860
H         -0.31660        5.00220        5.96890
H         -0.41940        6.24710        7.21750
H         -1.67840        0.91850       11.18380
H         -7.45710        0.63140        8.70030
H         -9.73650       -0.31700        8.87570
H        -11.40520       -1.68040       10.10840
H         -8.55320       -2.45600       13.18610
H         -6.30150       -1.52520       13.04460
