
  xtb     02052211503D
 energy: -285.827286521657 gnorm: 0.000321279185 xtb: 6.4.1 (unknown)
162178  0     0  0            999 V2000
   -1.8107   -5.0218    1.7608 C   0  0  0  0  0  0  0  0  0  0  0  0
   -1.1559   -4.5734    0.6670 C   0  0  0  0  0  0  0  0  0  0  0  0
   -0.9731   -3.1168    0.3939 C   0  0  0  0  0  0  0  0  0  0  0  0
   -1.2237   -2.1988    1.1429 O   0  0  0  0  0  0  0  0  0  0  0  0
   -0.4647   -3.0332   -0.9825 C   0  0  0  0  0  0  0  0  0  0  0  0
   -0.1909   -1.9155   -1.7184 C   0  0  0  0  0  0  0  0  0  0  0  0
    0.2877   -2.0618   -3.0380 C   0  0  0  0  0  0  0  0  0  0  0  0
    0.5745   -0.9434   -3.8479 C   0  0  0  0  0  0  0  0  0  0  0  0
    1.0638   -1.0936   -5.1159 C   0  0  0  0  0  0  0  0  0  0  0  0
    1.2770   -2.3905   -5.6052 C   0  0  0  0  0  0  0  0  0  0  0  0
    1.7776   -2.5261   -6.8437 F   0  0  0  0  0  0  0  0  0  0  0  0
    0.9997   -3.5102   -4.8696 C   0  0  0  0  0  0  0  0  0  0  0  0
    0.4923   -3.3722   -3.5628 C   0  0  0  0  0  0  0  0  0  0  0  0
    0.1906   -4.5102   -2.7805 C   0  0  0  0  0  0  0  0  0  0  0  0
   -0.2897   -4.3460   -1.5070 C   0  0  0  0  0  0  0  0  0  0  0  0
   -0.6777   -5.3169   -0.4907 C   0  0  0  0  0  0  0  0  0  0  0  0
   -0.5663   -6.6745   -0.5880 C   0  0  0  0  0  0  0  0  0  0  0  0
   -0.8498   -7.5702    0.4654 C   0  0  0  0  0  0  0  0  0  0  0  0
   -1.0233   -8.3406    1.2978 N   0  0  0  0  0  0  0  0  0  0  0  0
   -0.1082   -7.3469   -1.7410 C   0  0  0  0  0  0  0  0  0  0  0  0
    0.2536   -7.9408   -2.6534 N   0  0  0  0  0  0  0  0  0  0  0  0
   -2.2420   -4.0750    2.7728 C   0  0  0  0  0  0  0  0  0  0  0  0
   -1.1860   -3.3687    3.9412 S   0  0  0  0  0  0  0  0  0  0  0  0
   -2.3915   -2.1767    4.3959 C   0  0  0  0  0  0  0  0  0  0  0  0
   -3.5767   -2.4003    3.7172 C   0  0  0  0  0  0  0  0  0  0  0  0
   -4.7908   -1.6081    3.8386 C   0  0  0  0  0  0  0  0  0  0  0  0
   -4.8555   -0.5916    4.5193 O   0  0  0  0  0  0  0  0  0  0  0  0
   -5.9214   -2.1417    3.0689 C   0  0  0  0  0  0  0  0  0  0  0  0
   -7.1934   -1.6306    3.1198 C   0  0  0  0  0  0  0  0  0  0  0  0
   -7.7273   -0.5325    3.9670 C   0  0  0  0  0  0  0  0  0  0  0  0
   -8.1037   -1.0559    5.3564 C   0  0  0  0  0  0  0  0  0  0  0  0
   -8.2601   -2.5042    2.0714 S   0  0  0  0  0  0  0  0  0  0  0  0
   -6.9927   -3.5495    1.5309 C   0  0  0  0  0  0  0  0  0  0  0  0
   -7.2651   -4.5835    0.4999 C   0  0  0  0  0  0  0  0  0  0  0  0
   -7.2122   -3.9718   -0.9033 C   0  0  0  0  0  0  0  0  0  0  0  0
   -5.8050   -3.2376    2.1437 C   0  0  0  0  0  0  0  0  0  0  0  0
   -4.5404   -3.9263    1.9070 C   0  0  0  0  0  0  0  0  0  0  0  0
   -4.3407   -4.7901    1.0622 O   0  0  0  0  0  0  0  0  0  0  0  0
   -3.4826   -3.4919    2.8106 C   0  0  0  0  0  0  0  0  0  0  0  0
   -1.9404   -1.0568    5.1434 C   0  0  0  0  0  0  0  0  0  0  0  0
   -2.5643    0.5351    4.8093 S   0  0  0  0  0  0  0  0  0  0  0  0
   -1.1225    1.2406    5.4580 C   0  0  0  0  0  0  0  0  0  0  0  0
   -0.5852    2.4943    5.0252 C   0  0  0  0  0  0  0  0  0  0  0  0
    0.8324    2.5482    5.0565 C   0  0  0  0  0  0  0  0  0  0  0  0
    1.5912    1.7436    5.8232 O   0  0  0  0  0  0  0  0  0  0  0  0
    0.9690    0.7948    6.7056 C   0  0  0  0  0  0  0  0  0  0  0  0
    1.9799   -0.3535    6.9030 C   0  0  0  0  0  0  0  0  0  0  0  0
    3.4474    0.0647    6.8991 C   0  0  0  0  0  0  0  0  0  0  0  0
    0.5531    1.4989    8.0197 C   0  0  0  0  0  0  0  0  0  0  0  0
    1.6911    2.1377    8.8043 C   0  0  0  0  0  0  0  0  0  0  0  0
   -0.2995    0.2990    6.0600 C   0  0  0  0  0  0  0  0  0  0  0  0
   -0.7609   -1.0003    5.8669 C   0  0  0  0  0  0  0  0  0  0  0  0
    1.4810    3.3286    4.1189 C   0  0  0  0  0  0  0  0  0  0  0  0
    0.7533    4.1090    3.2239 C   0  0  0  0  0  0  0  0  0  0  0  0
    1.2244    4.4637    1.9243 C   0  0  0  0  0  0  0  0  0  0  0  0
    0.4510    5.2054    1.0485 C   0  0  0  0  0  0  0  0  0  0  0  0
   -0.7343    5.9317    1.6391 C   0  0  0  0  0  0  0  0  0  0  0  0
   -1.3810    5.0732    2.5979 O   0  0  0  0  0  0  0  0  0  0  0  0
   -0.6432    4.2724    3.3912 C   0  0  0  0  0  0  0  0  0  0  0  0
   -1.2986    3.4255    4.2692 C   0  0  0  0  0  0  0  0  0  0  0  0
   -0.1781    7.1870    2.3517 C   0  0  0  0  0  0  0  0  0  0  0  0
   -1.2183    8.0471    3.0564 C   0  0  0  0  0  0  0  0  0  0  0  0
   -1.7801    6.2435    0.5490 C   0  0  0  0  0  0  0  0  0  0  0  0
   -3.2233    6.3226    1.0377 C   0  0  0  0  0  0  0  0  0  0  0  0
    0.8669    5.0850   -0.2792 C   0  0  0  0  0  0  0  0  0  0  0  0
    1.9271    4.2097   -0.4350 C   0  0  0  0  0  0  0  0  0  0  0  0
    2.4904    3.6184    1.1149 S   0  0  0  0  0  0  0  0  0  0  0  0
    2.3863    3.5154   -1.5860 C   0  0  0  0  0  0  0  0  0  0  0  0
    2.8827    1.8727   -1.3094 S   0  0  0  0  0  0  0  0  0  0  0  0
    3.0586    1.5708   -3.0142 C   0  0  0  0  0  0  0  0  0  0  0  0
    2.7292    2.7199   -3.7477 C   0  0  0  0  0  0  0  0  0  0  0  0
    2.6721    2.7558   -5.2180 C   0  0  0  0  0  0  0  0  0  0  0  0
    2.6064    1.7506   -5.9097 O   0  0  0  0  0  0  0  0  0  0  0  0
    2.6644    4.1091   -5.7579 C   0  0  0  0  0  0  0  0  0  0  0  0
    2.9183    4.4247   -7.0693 C   0  0  0  0  0  0  0  0  0  0  0  0
    3.2117    3.5121   -8.2027 C   0  0  0  0  0  0  0  0  0  0  0  0
    1.9130    3.0467   -8.8690 C   0  0  0  0  0  0  0  0  0  0  0  0
    2.8345    6.1355   -7.3133 S   0  0  0  0  0  0  0  0  0  0  0  0
    2.4355    6.4293   -5.6525 C   0  0  0  0  0  0  0  0  0  0  0  0
    2.1594    7.8124   -5.1872 C   0  0  0  0  0  0  0  0  0  0  0  0
    0.6656    8.1308   -5.3035 C   0  0  0  0  0  0  0  0  0  0  0  0
    2.3893    5.2553   -4.9443 C   0  0  0  0  0  0  0  0  0  0  0  0
    2.0964    5.1562   -3.5123 C   0  0  0  0  0  0  0  0  0  0  0  0
    1.7077    6.1025   -2.8457 O   0  0  0  0  0  0  0  0  0  0  0  0
    2.3625    3.8244   -2.9506 C   0  0  0  0  0  0  0  0  0  0  0  0
    3.5061    0.3666   -3.5876 C   0  0  0  0  0  0  0  0  0  0  0  0
    3.6283   -0.8745   -3.0204 C   0  0  0  0  0  0  0  0  0  0  0  0
    3.1930   -1.2503   -1.6685 C   0  0  0  0  0  0  0  0  0  0  0  0
    2.8806   -0.5098   -0.7532 O   0  0  0  0  0  0  0  0  0  0  0  0
    3.1928   -2.7200   -1.6331 C   0  0  0  0  0  0  0  0  0  0  0  0
    2.8092   -3.5450   -0.6159 C   0  0  0  0  0  0  0  0  0  0  0  0
    2.9057   -4.9425   -0.7921 C   0  0  0  0  0  0  0  0  0  0  0  0
    2.5401   -5.8421    0.2301 C   0  0  0  0  0  0  0  0  0  0  0  0
    2.6619   -7.1931    0.0567 C   0  0  0  0  0  0  0  0  0  0  0  0
    3.1515   -7.6787   -1.1641 C   0  0  0  0  0  0  0  0  0  0  0  0
    3.2772   -9.0055   -1.3097 F   0  0  0  0  0  0  0  0  0  0  0  0
    3.5070   -6.8488   -2.1922 C   0  0  0  0  0  0  0  0  0  0  0  0
    3.3959   -5.4549   -2.0287 C   0  0  0  0  0  0  0  0  0  0  0  0
    3.7788   -4.5718   -3.0667 C   0  0  0  0  0  0  0  0  0  0  0  0
    3.6829   -3.2198   -2.8723 C   0  0  0  0  0  0  0  0  0  0  0  0
    4.0083   -2.0826   -3.7308 C   0  0  0  0  0  0  0  0  0  0  0  0
    4.5985   -2.1554   -4.9643 C   0  0  0  0  0  0  0  0  0  0  0  0
    4.9134   -3.3703   -5.6090 C   0  0  0  0  0  0  0  0  0  0  0  0
    5.1822   -4.3300   -6.1782 N   0  0  0  0  0  0  0  0  0  0  0  0
    5.0167   -1.0501   -5.7376 C   0  0  0  0  0  0  0  0  0  0  0  0
    5.4281   -0.2122   -6.4060 N   0  0  0  0  0  0  0  0  0  0  0  0
   -2.0651   -6.0653    1.8904 H   0  0  0  0  0  0  0  0  0  0  0  0
   -0.3319   -0.9326   -1.2944 H   0  0  0  0  0  0  0  0  0  0  0  0
    0.4053    0.0436   -3.4442 H   0  0  0  0  0  0  0  0  0  0  0  0
    1.3105   -0.2464   -5.7376 H   0  0  0  0  0  0  0  0  0  0  0  0
    1.1719   -4.4912   -5.2843 H   0  0  0  0  0  0  0  0  0  0  0  0
    0.3418   -5.4859   -3.2132 H   0  0  0  0  0  0  0  0  0  0  0  0
   -8.6078   -0.0989    3.4889 H   0  0  0  0  0  0  0  0  0  0  0  0
   -6.9587    0.2344    4.0752 H   0  0  0  0  0  0  0  0  0  0  0  0
   -8.5211   -0.2502    5.9538 H   0  0  0  0  0  0  0  0  0  0  0  0
   -8.8404   -1.8531    5.2797 H   0  0  0  0  0  0  0  0  0  0  0  0
   -7.2203   -1.4388    5.8605 H   0  0  0  0  0  0  0  0  0  0  0  0
   -8.2526   -5.0185    0.6686 H   0  0  0  0  0  0  0  0  0  0  0  0
   -6.5081   -5.3654    0.5766 H   0  0  0  0  0  0  0  0  0  0  0  0
   -7.9439   -3.1720   -0.9995 H   0  0  0  0  0  0  0  0  0  0  0  0
   -6.2215   -3.5676   -1.0957 H   0  0  0  0  0  0  0  0  0  0  0  0
   -7.4264   -4.7338   -1.6474 H   0  0  0  0  0  0  0  0  0  0  0  0
    1.7365   -0.8662    7.8348 H   0  0  0  0  0  0  0  0  0  0  0  0
    1.8464   -1.0590    6.0807 H   0  0  0  0  0  0  0  0  0  0  0  0
    3.6860    0.7324    7.7186 H   0  0  0  0  0  0  0  0  0  0  0  0
    4.0692   -0.8238    6.9868 H   0  0  0  0  0  0  0  0  0  0  0  0
    3.6897    0.5658    5.9669 H   0  0  0  0  0  0  0  0  0  0  0  0
   -0.1671    2.2767    7.7515 H   0  0  0  0  0  0  0  0  0  0  0  0
    0.0325    0.7674    8.6413 H   0  0  0  0  0  0  0  0  0  0  0  0
    1.2813    2.7778    9.5826 H   0  0  0  0  0  0  0  0  0  0  0  0
    2.3063    2.7461    8.1461 H   0  0  0  0  0  0  0  0  0  0  0  0
    2.3123    1.3849    9.2809 H   0  0  0  0  0  0  0  0  0  0  0  0
   -0.2544   -1.8910    6.1939 H   0  0  0  0  0  0  0  0  0  0  0  0
    2.5511    3.2456    4.0116 H   0  0  0  0  0  0  0  0  0  0  0  0
   -2.3769    3.4092    4.2826 H   0  0  0  0  0  0  0  0  0  0  0  0
    0.5504    6.8413    3.0906 H   0  0  0  0  0  0  0  0  0  0  0  0
    0.3599    7.7799    1.6092 H   0  0  0  0  0  0  0  0  0  0  0  0
   -1.8370    8.5808    2.3407 H   0  0  0  0  0  0  0  0  0  0  0  0
   -1.8522    7.4300    3.6883 H   0  0  0  0  0  0  0  0  0  0  0  0
   -0.7179    8.7822    3.6831 H   0  0  0  0  0  0  0  0  0  0  0  0
   -1.7336    5.4453   -0.1948 H   0  0  0  0  0  0  0  0  0  0  0  0
   -1.4946    7.1761    0.0608 H   0  0  0  0  0  0  0  0  0  0  0  0
   -3.3703    7.1261    1.7499 H   0  0  0  0  0  0  0  0  0  0  0  0
   -3.8774    6.4936    0.1853 H   0  0  0  0  0  0  0  0  0  0  0  0
   -3.5092    5.3886    1.5119 H   0  0  0  0  0  0  0  0  0  0  0  0
    0.4055    5.5738   -1.1157 H   0  0  0  0  0  0  0  0  0  0  0  0
    3.7433    2.6356   -7.8263 H   0  0  0  0  0  0  0  0  0  0  0  0
    3.8361    4.0256   -8.9362 H   0  0  0  0  0  0  0  0  0  0  0  0
    2.1431    2.3940   -9.7061 H   0  0  0  0  0  0  0  0  0  0  0  0
    1.3099    2.4935   -8.1541 H   0  0  0  0  0  0  0  0  0  0  0  0
    1.3412    3.8981   -9.2328 H   0  0  0  0  0  0  0  0  0  0  0  0
    2.4552    7.8976   -4.1400 H   0  0  0  0  0  0  0  0  0  0  0  0
    2.7331    8.5224   -5.7861 H   0  0  0  0  0  0  0  0  0  0  0  0
    0.4788    9.1514   -4.9815 H   0  0  0  0  0  0  0  0  0  0  0  0
    0.3294    8.0203   -6.3323 H   0  0  0  0  0  0  0  0  0  0  0  0
    0.0950    7.4568   -4.6702 H   0  0  0  0  0  0  0  0  0  0  0  0
    3.7057    0.4413   -4.6498 H   0  0  0  0  0  0  0  0  0  0  0  0
    2.4460   -3.1343    0.3148 H   0  0  0  0  0  0  0  0  0  0  0  0
    2.1676   -5.4436    1.1630 H   0  0  0  0  0  0  0  0  0  0  0  0
    2.3904   -7.8945    0.8303 H   0  0  0  0  0  0  0  0  0  0  0  0
    3.8754   -7.2598   -3.1188 H   0  0  0  0  0  0  0  0  0  0  0  0
    4.1436   -4.9928   -3.9896 H   0  0  0  0  0  0  0  0  0  0  0  0
  1  2  2  0  0  0  0
  2  3  1  0  0  0  0
  3  4  2  0  0  0  0
  3  5  1  0  0  0  0
  5  6  2  0  0  0  0
  6  7  1  0  0  0  0
  7  8  2  0  0  0  0
  8  9  1  0  0  0  0
  9 10  2  0  0  0  0
 10 11  1  0  0  0  0
 10 12  1  0  0  0  0
 12 13  2  0  0  0  0
 13 14  1  0  0  0  0
 14 15  2  0  0  0  0
 15 16  1  0  0  0  0
 16 17  2  0  0  0  0
 17 18  1  0  0  0  0
 18 19  3  0  0  0  0
 17 20  1  0  0  0  0
 20 21  3  0  0  0  0
  1 22  1  0  0  0  0
 22 23  1  0  0  0  0
 23 24  1  0  0  0  0
 24 25  2  0  0  0  0
 25 26  1  0  0  0  0
 26 27  2  0  0  0  0
 26 28  1  0  0  0  0
 28 29  2  0  0  0  0
 29 30  1  0  0  0  0
 30 31  1  0  0  0  0
 29 32  1  0  0  0  0
 32 33  1  0  0  0  0
 33 34  1  0  0  0  0
 34 35  1  0  0  0  0
 33 36  2  0  0  0  0
 36 37  1  0  0  0  0
 37 38  2  0  0  0  0
 37 39  1  0  0  0  0
 24 40  1  0  0  0  0
 40 41  1  0  0  0  0
 41 42  1  0  0  0  0
 42 43  1  0  0  0  0
 43 44  2  0  0  0  0
 44 45  1  0  0  0  0
 45 46  1  0  0  0  0
 46 47  1  0  0  0  0
 47 48  1  0  0  0  0
 46 49  1  0  0  0  0
 49 50  1  0  0  0  0
 46 51  1  0  0  0  0
 51 52  1  0  0  0  0
 44 53  1  0  0  0  0
 53 54  2  0  0  0  0
 54 55  1  0  0  0  0
 55 56  2  0  0  0  0
 56 57  1  0  0  0  0
 57 58  1  0  0  0  0
 58 59  1  0  0  0  0
 59 60  2  0  0  0  0
 57 61  1  0  0  0  0
 61 62  1  0  0  0  0
 57 63  1  0  0  0  0
 63 64  1  0  0  0  0
 56 65  1  0  0  0  0
 65 66  2  0  0  0  0
 66 67  1  0  0  0  0
 66 68  1  0  0  0  0
 68 69  1  0  0  0  0
 69 70  1  0  0  0  0
 70 71  2  0  0  0  0
 71 72  1  0  0  0  0
 72 73  2  0  0  0  0
 72 74  1  0  0  0  0
 74 75  2  0  0  0  0
 75 76  1  0  0  0  0
 76 77  1  0  0  0  0
 75 78  1  0  0  0  0
 78 79  1  0  0  0  0
 79 80  1  0  0  0  0
 80 81  1  0  0  0  0
 79 82  2  0  0  0  0
 82 83  1  0  0  0  0
 83 84  2  0  0  0  0
 83 85  1  0  0  0  0
 70 86  1  0  0  0  0
 86 87  2  0  0  0  0
 87 88  1  0  0  0  0
 88 89  2  0  0  0  0
 88 90  1  0  0  0  0
 90 91  2  0  0  0  0
 91 92  1  0  0  0  0
 92 93  2  0  0  0  0
 93 94  1  0  0  0  0
 94 95  2  0  0  0  0
 95 96  1  0  0  0  0
 95 97  1  0  0  0  0
 97 98  2  0  0  0  0
 98 99  1  0  0  0  0
 99100  2  0  0  0  0
100101  1  0  0  0  0
101102  2  0  0  0  0
102103  1  0  0  0  0
103104  3  0  0  0  0
102105  1  0  0  0  0
105106  3  0  0  0  0
 16  2  1  0  0  0  0
 39 22  2  0  0  0  0
 52 40  2  0  0  0  0
 59 54  1  0  0  0  0
 85 68  2  0  0  0  0
101 87  1  0  0  0  0
 15  5  1  0  0  0  0
 39 25  1  0  0  0  0
 51 42  2  0  0  0  0
 67 55  1  0  0  0  0
 85 71  1  0  0  0  0
100 90  1  0  0  0  0
 13  7  1  0  0  0  0
 36 28  1  0  0  0  0
 60 43  1  0  0  0  0
 82 74  1  0  0  0  0
 98 92  1  0  0  0  0
  1107  1  0  0  0  0
  6108  1  0  0  0  0
  8109  1  0  0  0  0
  9110  1  0  0  0  0
 12111  1  0  0  0  0
 14112  1  0  0  0  0
 30113  1  0  0  0  0
 30114  1  0  0  0  0
 31115  1  0  0  0  0
 31116  1  0  0  0  0
 31117  1  0  0  0  0
 34118  1  0  0  0  0
 34119  1  0  0  0  0
 35120  1  0  0  0  0
 35121  1  0  0  0  0
 35122  1  0  0  0  0
 47123  1  0  0  0  0
 47124  1  0  0  0  0
 48125  1  0  0  0  0
 48126  1  0  0  0  0
 48127  1  0  0  0  0
 49128  1  0  0  0  0
 49129  1  0  0  0  0
 50130  1  0  0  0  0
 50131  1  0  0  0  0
 50132  1  0  0  0  0
 52133  1  0  0  0  0
 53134  1  0  0  0  0
 60135  1  0  0  0  0
 61136  1  0  0  0  0
 61137  1  0  0  0  0
 62138  1  0  0  0  0
 62139  1  0  0  0  0
 62140  1  0  0  0  0
 63141  1  0  0  0  0
 63142  1  0  0  0  0
 64143  1  0  0  0  0
 64144  1  0  0  0  0
 64145  1  0  0  0  0
 65146  1  0  0  0  0
 76147  1  0  0  0  0
 76148  1  0  0  0  0
 77149  1  0  0  0  0
 77150  1  0  0  0  0
 77151  1  0  0  0  0
 80152  1  0  0  0  0
 80153  1  0  0  0  0
 81154  1  0  0  0  0
 81155  1  0  0  0  0
 81156  1  0  0  0  0
 86157  1  0  0  0  0
 91158  1  0  0  0  0
 93159  1  0  0  0  0
 94160  1  0  0  0  0
 97161  1  0  0  0  0
 99162  1  0  0  0  0
M  END
