
  xtb     02052204133D
 energy: -313.242510937725 gnorm: 0.000509233182 xtb: 6.4.1 (unknown)
181199  0     0  0            999 V2000
    4.7103  -10.5773    1.3268 C   0  0  0  0  0  0  0  0  0  0  0  0
    4.0068  -11.2215    0.3548 C   0  0  0  0  0  0  0  0  0  0  0  0
    3.2663  -10.5451   -0.7413 C   0  0  0  0  0  0  0  0  0  0  0  0
    3.1436   -9.3562   -0.9410 O   0  0  0  0  0  0  0  0  0  0  0  0
    2.8042  -11.6277   -1.6325 C   0  0  0  0  0  0  0  0  0  0  0  0
    2.0725  -11.5280   -2.7800 C   0  0  0  0  0  0  0  0  0  0  0  0
    1.7456  -12.7022   -3.4943 C   0  0  0  0  0  0  0  0  0  0  0  0
    0.9870  -12.6578   -4.6815 C   0  0  0  0  0  0  0  0  0  0  0  0
    0.6857  -13.8009   -5.3682 C   0  0  0  0  0  0  0  0  0  0  0  0
    1.1429  -15.0294   -4.8725 C   0  0  0  0  0  0  0  0  0  0  0  0
    0.8366  -16.1438   -5.5626 F   0  0  0  0  0  0  0  0  0  0  0  0
    1.8801  -15.1289   -3.7257 C   0  0  0  0  0  0  0  0  0  0  0  0
    2.1996  -13.9613   -3.0053 C   0  0  0  0  0  0  0  0  0  0  0  0
    2.9600  -14.0325   -1.8148 C   0  0  0  0  0  0  0  0  0  0  0  0
    3.2546  -12.8814   -1.1331 C   0  0  0  0  0  0  0  0  0  0  0  0
    3.9963  -12.6488    0.1025 C   0  0  0  0  0  0  0  0  0  0  0  0
    4.5165  -13.6263    0.9119 C   0  0  0  0  0  0  0  0  0  0  0  0
    4.4450  -15.0063    0.6317 C   0  0  0  0  0  0  0  0  0  0  0  0
    4.4225  -16.1415    0.4605 N   0  0  0  0  0  0  0  0  0  0  0  0
    5.1799  -13.4025    2.1360 C   0  0  0  0  0  0  0  0  0  0  0  0
    5.7209  -13.3096    3.1452 N   0  0  0  0  0  0  0  0  0  0  0  0
    4.5933   -9.1942    1.6873 C   0  0  0  0  0  0  0  0  0  0  0  0
    5.7524   -8.4950    2.0499 C   0  0  0  0  0  0  0  0  0  0  0  0
    5.7328   -7.1502    2.3577 C   0  0  0  0  0  0  0  0  0  0  0  0
    6.8212   -6.3869    2.6248 O   0  0  0  0  0  0  0  0  0  0  0  0
    8.1032   -6.9759    2.7159 C   0  0  0  0  0  0  0  0  0  0  0  0
    8.7610   -7.1648    1.3522 C   0  0  0  0  0  0  0  0  0  0  0  0
    4.4854   -6.4800    2.3724 C   0  0  0  0  0  0  0  0  0  0  0  0
    3.3260   -7.1808    2.0533 C   0  0  0  0  0  0  0  0  0  0  0  0
    3.3465   -8.5277    1.7248 C   0  0  0  0  0  0  0  0  0  0  0  0
    2.2461   -9.2809    1.5370 O   0  0  0  0  0  0  0  0  0  0  0  0
    0.9792   -8.6590    1.4352 C   0  0  0  0  0  0  0  0  0  0  0  0
   -0.0228   -9.7348    1.0469 C   0  0  0  0  0  0  0  0  0  0  0  0
    4.3930   -5.0726    2.6977 C   0  0  0  0  0  0  0  0  0  0  0  0
    5.0448   -4.3458    3.6717 C   0  0  0  0  0  0  0  0  0  0  0  0
    5.9119   -4.9183    4.7005 C   0  0  0  0  0  0  0  0  0  0  0  0
    7.0707   -4.2543    5.0911 C   0  0  0  0  0  0  0  0  0  0  0  0
    7.8916   -4.8088    6.0549 C   0  0  0  0  0  0  0  0  0  0  0  0
    7.5677   -6.0221    6.6356 C   0  0  0  0  0  0  0  0  0  0  0  0
    6.4080   -6.6934    6.2665 C   0  0  0  0  0  0  0  0  0  0  0  0
    6.0287   -7.9893    6.9247 C   0  0  0  0  0  0  0  0  0  0  0  0
    5.1873   -7.7286    8.1754 C   0  0  0  0  0  0  0  0  0  0  0  0
    5.5829   -6.1262    5.3089 C   0  0  0  0  0  0  0  0  0  0  0  0
    4.7034   -2.9760    3.6023 C   0  0  0  0  0  0  0  0  0  0  0  0
    5.1715   -1.5810    4.5457 S   0  0  0  0  0  0  0  0  0  0  0  0
    4.1313   -0.5943    3.5743 C   0  0  0  0  0  0  0  0  0  0  0  0
    3.7599    0.7575    3.4364 C   0  0  0  0  0  0  0  0  0  0  0  0
    4.2149    1.9564    4.0316 C   0  0  0  0  0  0  0  0  0  0  0  0
    3.7341    3.2202    3.5297 C   0  0  0  0  0  0  0  0  0  0  0  0
    4.3084    4.2499    4.1307 N   0  0  0  0  0  0  0  0  0  0  0  0
    5.3521    3.6892    5.2339 S   0  0  0  0  0  0  0  0  0  0  0  0
    5.1170    2.1067    4.9880 N   0  0  0  0  0  0  0  0  0  0  0  0
    2.7091    3.2331    2.5562 C   0  0  0  0  0  0  0  0  0  0  0  0
    1.9496    4.2574    1.9600 C   0  0  0  0  0  0  0  0  0  0  0  0
    1.8825    5.9876    1.9127 S   0  0  0  0  0  0  0  0  0  0  0  0
    0.5005    5.8838    0.8462 C   0  0  0  0  0  0  0  0  0  0  0  0
   -0.2790    6.8561    0.1932 C   0  0  0  0  0  0  0  0  0  0  0  0
    0.0234    8.2867    0.2208 C   0  0  0  0  0  0  0  0  0  0  0  0
    0.0603    9.0165   -0.9649 C   0  0  0  0  0  0  0  0  0  0  0  0
    0.3866   10.3580   -0.9366 C   0  0  0  0  0  0  0  0  0  0  0  0
    0.6730   10.9820    0.2659 C   0  0  0  0  0  0  0  0  0  0  0  0
    0.6510   10.2659    1.4553 C   0  0  0  0  0  0  0  0  0  0  0  0
    0.9076   10.9467    2.7685 C   0  0  0  0  0  0  0  0  0  0  0  0
   -0.4134   11.4067    3.3885 C   0  0  0  0  0  0  0  0  0  0  0  0
    0.3338    8.9167    1.4199 C   0  0  0  0  0  0  0  0  0  0  0  0
   -1.2783    6.2676   -0.5668 C   0  0  0  0  0  0  0  0  0  0  0  0
   -1.1994    4.5175   -0.5550 S   0  0  0  0  0  0  0  0  0  0  0  0
    0.1185    4.5697    0.5609 C   0  0  0  0  0  0  0  0  0  0  0  0
    0.9562    3.6419    1.1905 C   0  0  0  0  0  0  0  0  0  0  0  0
    1.0809    2.2761    1.2623 N   0  0  0  0  0  0  0  0  0  0  0  0
    2.1736    2.0142    2.0668 C   0  0  0  0  0  0  0  0  0  0  0  0
    2.8130    0.7978    2.3824 C   0  0  0  0  0  0  0  0  0  0  0  0
    2.6545   -0.4694    1.8493 N   0  0  0  0  0  0  0  0  0  0  0  0
    3.4548   -1.3109    2.5829 C   0  0  0  0  0  0  0  0  0  0  0  0
    3.7836   -2.6718    2.5996 C   0  0  0  0  0  0  0  0  0  0  0  0
    3.3223   -4.0836    1.7193 S   0  0  0  0  0  0  0  0  0  0  0  0
    2.3485   -0.7800    0.4670 C   0  0  0  0  0  0  0  0  0  0  0  0
    3.6246   -0.9593   -0.3552 C   0  0  0  0  0  0  0  0  0  0  0  0
   -0.0738    1.4196    1.0821 C   0  0  0  0  0  0  0  0  0  0  0  0
   -1.2096    1.8157    2.0251 C   0  0  0  0  0  0  0  0  0  0  0  0
   -2.3304    6.9088   -1.3083 C   0  0  0  0  0  0  0  0  0  0  0  0
   -2.9650    8.0773   -0.8820 C   0  0  0  0  0  0  0  0  0  0  0  0
   -2.6806    8.6796    0.3127 O   0  0  0  0  0  0  0  0  0  0  0  0
   -3.0689    7.9732    1.4823 C   0  0  0  0  0  0  0  0  0  0  0  0
   -4.5765    7.7663    1.5563 C   0  0  0  0  0  0  0  0  0  0  0  0
   -3.9612    8.6911   -1.6749 C   0  0  0  0  0  0  0  0  0  0  0  0
   -4.6174    9.7878   -1.1864 O   0  0  0  0  0  0  0  0  0  0  0  0
   -4.0975   11.0634   -1.5668 C   0  0  0  0  0  0  0  0  0  0  0  0
   -3.0481   11.5830   -0.5940 C   0  0  0  0  0  0  0  0  0  0  0  0
   -4.4054    8.1142   -2.8636 C   0  0  0  0  0  0  0  0  0  0  0  0
   -3.7728    6.9231   -3.3207 C   0  0  0  0  0  0  0  0  0  0  0  0
   -2.7738    6.3087   -2.5242 C   0  0  0  0  0  0  0  0  0  0  0  0
   -2.2245    5.1479   -2.9124 N   0  0  0  0  0  0  0  0  0  0  0  0
   -2.6108    4.6238   -4.0453 C   0  0  0  0  0  0  0  0  0  0  0  0
   -3.5105    5.2979   -4.8873 C   0  0  0  0  0  0  0  0  0  0  0  0
   -4.0735    6.4213   -4.5289 N   0  0  0  0  0  0  0  0  0  0  0  0
   -5.4744    8.7065   -3.6140 C   0  0  0  0  0  0  0  0  0  0  0  0
   -6.4337    8.0006   -4.2672 C   0  0  0  0  0  0  0  0  0  0  0  0
   -6.7560    6.5711   -4.0062 C   0  0  0  0  0  0  0  0  0  0  0  0
   -6.3094    5.8505   -3.1395 O   0  0  0  0  0  0  0  0  0  0  0  0
   -7.8613    6.2442   -4.9267 C   0  0  0  0  0  0  0  0  0  0  0  0
   -8.4901    5.0464   -5.1072 C   0  0  0  0  0  0  0  0  0  0  0  0
   -9.5468    4.9551   -6.0399 C   0  0  0  0  0  0  0  0  0  0  0  0
  -10.2249    3.7409   -6.2715 C   0  0  0  0  0  0  0  0  0  0  0  0
  -11.2490    3.6669   -7.1741 C   0  0  0  0  0  0  0  0  0  0  0  0
  -11.6199    4.8230   -7.8744 C   0  0  0  0  0  0  0  0  0  0  0  0
  -12.6292    4.7298   -8.7598 F   0  0  0  0  0  0  0  0  0  0  0  0
  -10.9964    6.0251   -7.6880 C   0  0  0  0  0  0  0  0  0  0  0  0
   -9.9393    6.1198   -6.7615 C   0  0  0  0  0  0  0  0  0  0  0  0
   -9.2756    7.3497   -6.5460 C   0  0  0  0  0  0  0  0  0  0  0  0
   -8.2471    7.4120   -5.6427 C   0  0  0  0  0  0  0  0  0  0  0  0
   -7.3911    8.5186   -5.2268 C   0  0  0  0  0  0  0  0  0  0  0  0
   -7.4557    9.8003   -5.7084 C   0  0  0  0  0  0  0  0  0  0  0  0
   -6.6087   10.8602   -5.3225 C   0  0  0  0  0  0  0  0  0  0  0  0
   -5.9596   11.7731   -5.0678 N   0  0  0  0  0  0  0  0  0  0  0  0
   -8.3924   10.2402   -6.6671 C   0  0  0  0  0  0  0  0  0  0  0  0
   -9.1277   10.6626   -7.4412 N   0  0  0  0  0  0  0  0  0  0  0  0
    5.4693  -11.1322    1.8655 H   0  0  0  0  0  0  0  0  0  0  0  0
    1.7452  -10.5634   -3.1391 H   0  0  0  0  0  0  0  0  0  0  0  0
    0.6468  -11.6992   -5.0441 H   0  0  0  0  0  0  0  0  0  0  0  0
    0.1083  -13.7843   -6.2790 H   0  0  0  0  0  0  0  0  0  0  0  0
    2.2146  -16.0921   -3.3730 H   0  0  0  0  0  0  0  0  0  0  0  0
    3.2939  -14.9999   -1.4758 H   0  0  0  0  0  0  0  0  0  0  0  0
    6.6834   -9.0387    2.0229 H   0  0  0  0  0  0  0  0  0  0  0  0
    8.6812   -6.2634    3.3117 H   0  0  0  0  0  0  0  0  0  0  0  0
    8.0538   -7.9213    3.2686 H   0  0  0  0  0  0  0  0  0  0  0  0
    8.8307   -6.2067    0.8437 H   0  0  0  0  0  0  0  0  0  0  0  0
    8.1843   -7.8418    0.7269 H   0  0  0  0  0  0  0  0  0  0  0  0
    9.7610   -7.5690    1.4821 H   0  0  0  0  0  0  0  0  0  0  0  0
    2.3908   -6.6438    2.0871 H   0  0  0  0  0  0  0  0  0  0  0  0
    1.0117   -7.8749    0.6687 H   0  0  0  0  0  0  0  0  0  0  0  0
    0.7013   -8.2093    2.3988 H   0  0  0  0  0  0  0  0  0  0  0  0
   -1.0184   -9.3063    0.9776 H   0  0  0  0  0  0  0  0  0  0  0  0
   -0.0253  -10.5270    1.7909 H   0  0  0  0  0  0  0  0  0  0  0  0
    0.2498  -10.1624    0.0856 H   0  0  0  0  0  0  0  0  0  0  0  0
    7.3378   -3.3191    4.6235 H   0  0  0  0  0  0  0  0  0  0  0  0
    8.7938   -4.2936    6.3509 H   0  0  0  0  0  0  0  0  0  0  0  0
    8.2190   -6.4542    7.3819 H   0  0  0  0  0  0  0  0  0  0  0  0
    6.9295   -8.5384    7.2062 H   0  0  0  0  0  0  0  0  0  0  0  0
    5.4571   -8.6052    6.2270 H   0  0  0  0  0  0  0  0  0  0  0  0
    4.2779   -7.1921    7.9140 H   0  0  0  0  0  0  0  0  0  0  0  0
    5.7458   -7.1264    8.8884 H   0  0  0  0  0  0  0  0  0  0  0  0
    4.9131   -8.6670    8.6517 H   0  0  0  0  0  0  0  0  0  0  0  0
    4.6703   -6.6322    5.0259 H   0  0  0  0  0  0  0  0  0  0  0  0
   -0.1553    8.5259   -1.9033 H   0  0  0  0  0  0  0  0  0  0  0  0
    0.4188   10.9220   -1.8576 H   0  0  0  0  0  0  0  0  0  0  0  0
    0.9192   12.0339    0.2799 H   0  0  0  0  0  0  0  0  0  0  0  0
    1.4075   10.2574    3.4517 H   0  0  0  0  0  0  0  0  0  0  0  0
    1.5562   11.8117    2.6184 H   0  0  0  0  0  0  0  0  0  0  0  0
   -1.0654   10.5538    3.5636 H   0  0  0  0  0  0  0  0  0  0  0  0
   -0.2358   11.9089    4.3366 H   0  0  0  0  0  0  0  0  0  0  0  0
   -0.9251   12.0947    2.7190 H   0  0  0  0  0  0  0  0  0  0  0  0
    0.3107    8.3494    2.3392 H   0  0  0  0  0  0  0  0  0  0  0  0
    1.7740    0.0366    0.0346 H   0  0  0  0  0  0  0  0  0  0  0  0
    1.7570   -1.7007    0.4405 H   0  0  0  0  0  0  0  0  0  0  0  0
    3.3654   -1.1362   -1.3953 H   0  0  0  0  0  0  0  0  0  0  0  0
    4.2376   -0.0624   -0.2943 H   0  0  0  0  0  0  0  0  0  0  0  0
    4.2050   -1.8042    0.0042 H   0  0  0  0  0  0  0  0  0  0  0  0
    0.2104    0.3916    1.3008 H   0  0  0  0  0  0  0  0  0  0  0  0
   -0.4120    1.4979    0.0438 H   0  0  0  0  0  0  0  0  0  0  0  0
   -1.5677    2.8167    1.8034 H   0  0  0  0  0  0  0  0  0  0  0  0
   -0.8675    1.7853    3.0575 H   0  0  0  0  0  0  0  0  0  0  0  0
   -2.0362    1.1202    1.9097 H   0  0  0  0  0  0  0  0  0  0  0  0
   -2.5505    7.0080    1.5456 H   0  0  0  0  0  0  0  0  0  0  0  0
   -2.7243    8.6127    2.2979 H   0  0  0  0  0  0  0  0  0  0  0  0
   -4.9064    7.0775    0.7807 H   0  0  0  0  0  0  0  0  0  0  0  0
   -5.0873    8.7149    1.4110 H   0  0  0  0  0  0  0  0  0  0  0  0
   -4.8446    7.3582    2.5269 H   0  0  0  0  0  0  0  0  0  0  0  0
   -3.6834   11.0146   -2.5812 H   0  0  0  0  0  0  0  0  0  0  0  0
   -4.9670   11.7274   -1.5750 H   0  0  0  0  0  0  0  0  0  0  0  0
   -2.1838   10.9251   -0.5679 H   0  0  0  0  0  0  0  0  0  0  0  0
   -2.7333   12.5764   -0.9027 H   0  0  0  0  0  0  0  0  0  0  0  0
   -3.4662   11.6365    0.4075 H   0  0  0  0  0  0  0  0  0  0  0  0
   -2.1749    3.6721   -4.3158 H   0  0  0  0  0  0  0  0  0  0  0  0
   -3.7572    4.9238   -5.8716 H   0  0  0  0  0  0  0  0  0  0  0  0
   -5.4983    9.7870   -3.6416 H   0  0  0  0  0  0  0  0  0  0  0  0
   -8.1812    4.1770   -4.5461 H   0  0  0  0  0  0  0  0  0  0  0  0
   -9.9213    2.8643   -5.7190 H   0  0  0  0  0  0  0  0  0  0  0  0
  -11.7789    2.7466   -7.3620 H   0  0  0  0  0  0  0  0  0  0  0  0
  -11.3091    6.8947   -8.2447 H   0  0  0  0  0  0  0  0  0  0  0  0
   -9.6019    8.2136   -7.1025 H   0  0  0  0  0  0  0  0  0  0  0  0
  1  2  2  0  0  0  0
  2  3  1  0  0  0  0
  3  4  2  0  0  0  0
  3  5  1  0  0  0  0
  5  6  2  0  0  0  0
  6  7  1  0  0  0  0
  7  8  2  0  0  0  0
  8  9  1  0  0  0  0
  9 10  2  0  0  0  0
 10 11  1  0  0  0  0
 10 12  1  0  0  0  0
 12 13  2  0  0  0  0
 13 14  1  0  0  0  0
 14 15  2  0  0  0  0
 15 16  1  0  0  0  0
 16 17  2  0  0  0  0
 17 18  1  0  0  0  0
 18 19  3  0  0  0  0
 17 20  1  0  0  0  0
 20 21  3  0  0  0  0
  1 22  1  0  0  0  0
 22 23  2  0  0  0  0
 23 24  1  0  0  0  0
 24 25  1  0  0  0  0
 25 26  1  0  0  0  0
 26 27  1  0  0  0  0
 24 28  2  0  0  0  0
 28 29  1  0  0  0  0
 29 30  2  0  0  0  0
 30 31  1  0  0  0  0
 31 32  1  0  0  0  0
 32 33  1  0  0  0  0
 28 34  1  0  0  0  0
 34 35  2  0  0  0  0
 35 36  1  0  0  0  0
 36 37  2  0  0  0  0
 37 38  1  0  0  0  0
 38 39  2  0  0  0  0
 39 40  1  0  0  0  0
 40 41  1  0  0  0  0
 41 42  1  0  0  0  0
 40 43  2  0  0  0  0
 35 44  1  0  0  0  0
 44 45  1  0  0  0  0
 45 46  1  0  0  0  0
 46 47  1  0  0  0  0
 47 48  1  0  0  0  0
 48 49  1  0  0  0  0
 49 50  2  0  0  0  0
 50 51  1  0  0  0  0
 51 52  1  0  0  0  0
 49 53  1  0  0  0  0
 53 54  1  0  0  0  0
 54 55  1  0  0  0  0
 55 56  1  0  0  0  0
 56 57  1  0  0  0  0
 57 58  1  0  0  0  0
 58 59  2  0  0  0  0
 59 60  1  0  0  0  0
 60 61  2  0  0  0  0
 61 62  1  0  0  0  0
 62 63  1  0  0  0  0
 63 64  1  0  0  0  0
 62 65  2  0  0  0  0
 57 66  2  0  0  0  0
 66 67  1  0  0  0  0
 67 68  1  0  0  0  0
 68 69  1  0  0  0  0
 69 70  1  0  0  0  0
 70 71  1  0  0  0  0
 71 72  1  0  0  0  0
 72 73  1  0  0  0  0
 73 74  1  0  0  0  0
 74 75  1  0  0  0  0
 75 76  1  0  0  0  0
 73 77  1  0  0  0  0
 77 78  1  0  0  0  0
 70 79  1  0  0  0  0
 79 80  1  0  0  0  0
 66 81  1  0  0  0  0
 81 82  2  0  0  0  0
 82 83  1  0  0  0  0
 83 84  1  0  0  0  0
 84 85  1  0  0  0  0
 82 86  1  0  0  0  0
 86 87  1  0  0  0  0
 87 88  1  0  0  0  0
 88 89  1  0  0  0  0
 86 90  2  0  0  0  0
 90 91  1  0  0  0  0
 91 92  2  0  0  0  0
 92 93  1  0  0  0  0
 93 94  2  0  0  0  0
 94 95  1  0  0  0  0
 95 96  2  0  0  0  0
 90 97  1  0  0  0  0
 97 98  2  0  0  0  0
 98 99  1  0  0  0  0
 99100  2  0  0  0  0
 99101  1  0  0  0  0
101102  2  0  0  0  0
102103  1  0  0  0  0
103104  2  0  0  0  0
104105  1  0  0  0  0
105106  2  0  0  0  0
106107  1  0  0  0  0
106108  1  0  0  0  0
108109  2  0  0  0  0
109110  1  0  0  0  0
110111  2  0  0  0  0
111112  1  0  0  0  0
112113  2  0  0  0  0
113114  1  0  0  0  0
114115  3  0  0  0  0
113116  1  0  0  0  0
116117  3  0  0  0  0
 16  2  1  0  0  0  0
 30 22  1  0  0  0  0
 76 34  1  0  0  0  0
 92 81  1  0  0  0  0
112 98  1  0  0  0  0
 15  5  1  0  0  0  0
 43 36  1  0  0  0  0
 75 44  2  0  0  0  0
 96 91  1  0  0  0  0
111101  1  0  0  0  0
 13  7  1  0  0  0  0
 74 46  2  0  0  0  0
109103  1  0  0  0  0
 72 47  2  0  0  0  0
 52 48  2  0  0  0  0
 71 53  2  0  0  0  0
 69 54  2  0  0  0  0
 68 56  2  0  0  0  0
 65 58  1  0  0  0  0
  1118  1  0  0  0  0
  6119  1  0  0  0  0
  8120  1  0  0  0  0
  9121  1  0  0  0  0
 12122  1  0  0  0  0
 14123  1  0  0  0  0
 23124  1  0  0  0  0
 26125  1  0  0  0  0
 26126  1  0  0  0  0
 27127  1  0  0  0  0
 27128  1  0  0  0  0
 27129  1  0  0  0  0
 29130  1  0  0  0  0
 32131  1  0  0  0  0
 32132  1  0  0  0  0
 33133  1  0  0  0  0
 33134  1  0  0  0  0
 33135  1  0  0  0  0
 37136  1  0  0  0  0
 38137  1  0  0  0  0
 39138  1  0  0  0  0
 41139  1  0  0  0  0
 41140  1  0  0  0  0
 42141  1  0  0  0  0
 42142  1  0  0  0  0
 42143  1  0  0  0  0
 43144  1  0  0  0  0
 59145  1  0  0  0  0
 60146  1  0  0  0  0
 61147  1  0  0  0  0
 63148  1  0  0  0  0
 63149  1  0  0  0  0
 64150  1  0  0  0  0
 64151  1  0  0  0  0
 64152  1  0  0  0  0
 65153  1  0  0  0  0
 77154  1  0  0  0  0
 77155  1  0  0  0  0
 78156  1  0  0  0  0
 78157  1  0  0  0  0
 78158  1  0  0  0  0
 79159  1  0  0  0  0
 79160  1  0  0  0  0
 80161  1  0  0  0  0
 80162  1  0  0  0  0
 80163  1  0  0  0  0
 84164  1  0  0  0  0
 84165  1  0  0  0  0
 85166  1  0  0  0  0
 85167  1  0  0  0  0
 85168  1  0  0  0  0
 88169  1  0  0  0  0
 88170  1  0  0  0  0
 89171  1  0  0  0  0
 89172  1  0  0  0  0
 89173  1  0  0  0  0
 94174  1  0  0  0  0
 95175  1  0  0  0  0
 97176  1  0  0  0  0
102177  1  0  0  0  0
104178  1  0  0  0  0
105179  1  0  0  0  0
108180  1  0  0  0  0
110181  1  0  0  0  0
M  END
