
  xtb     02052202573D
 energy: -298.896651049523 gnorm: 0.000741575417 xtb: 6.4.1 (unknown)
177194  0     0  0            999 V2000
    8.8935    5.8601    0.8748 C   0  0  0  0  0  0  0  0  0  0  0  0
    9.8916    6.7518    0.5875 C   0  0  0  0  0  0  0  0  0  0  0  0
    9.8727    7.9568   -0.2723 C   0  0  0  0  0  0  0  0  0  0  0  0
    9.0192    8.3344   -1.0518 O   0  0  0  0  0  0  0  0  0  0  0  0
   11.1265    8.6785    0.0209 C   0  0  0  0  0  0  0  0  0  0  0  0
   11.5468    9.8784   -0.4754 C   0  0  0  0  0  0  0  0  0  0  0  0
   12.7874   10.4028   -0.0500 C   0  0  0  0  0  0  0  0  0  0  0  0
   13.2708   11.6381   -0.5271 C   0  0  0  0  0  0  0  0  0  0  0  0
   14.4710   12.1365   -0.1024 C   0  0  0  0  0  0  0  0  0  0  0  0
   15.2231   11.3979    0.8209 C   0  0  0  0  0  0  0  0  0  0  0  0
   16.4021   11.9052    1.2275 F   0  0  0  0  0  0  0  0  0  0  0  0
   14.8017   10.1949    1.3145 C   0  0  0  0  0  0  0  0  0  0  0  0
   13.5676    9.6665    0.8879 C   0  0  0  0  0  0  0  0  0  0  0  0
   13.1060    8.4241    1.3814 C   0  0  0  0  0  0  0  0  0  0  0  0
   11.9012    7.9345    0.9517 C   0  0  0  0  0  0  0  0  0  0  0  0
   11.1752    6.7106    1.2732 C   0  0  0  0  0  0  0  0  0  0  0  0
   11.6715    5.6850    2.0374 C   0  0  0  0  0  0  0  0  0  0  0  0
   11.0479    4.4463    2.2997 C   0  0  0  0  0  0  0  0  0  0  0  0
   10.6580    3.3966    2.5599 N   0  0  0  0  0  0  0  0  0  0  0  0
   12.9370    5.7114    2.6605 C   0  0  0  0  0  0  0  0  0  0  0  0
   13.9479    5.6673    3.2038 N   0  0  0  0  0  0  0  0  0  0  0  0
    7.6011    5.6152    0.3338 C   0  0  0  0  0  0  0  0  0  0  0  0
    7.1315    6.1286   -0.8841 C   0  0  0  0  0  0  0  0  0  0  0  0
    5.8889    5.8072   -1.3900 C   0  0  0  0  0  0  0  0  0  0  0  0
    5.4268    6.2179   -2.5940 O   0  0  0  0  0  0  0  0  0  0  0  0
    6.2338    7.0863   -3.3710 C   0  0  0  0  0  0  0  0  0  0  0  0
    5.4805    7.3948   -4.6540 C   0  0  0  0  0  0  0  0  0  0  0  0
    5.0392    4.9580   -0.6382 C   0  0  0  0  0  0  0  0  0  0  0  0
    5.5187    4.3981    0.5458 C   0  0  0  0  0  0  0  0  0  0  0  0
    6.7708    4.7040    1.0483 C   0  0  0  0  0  0  0  0  0  0  0  0
    7.2583    4.2203    2.2081 O   0  0  0  0  0  0  0  0  0  0  0  0
    6.6106    3.1403    2.8578 C   0  0  0  0  0  0  0  0  0  0  0  0
    7.5258    2.6853    3.9833 C   0  0  0  0  0  0  0  0  0  0  0  0
    3.6980    4.6331   -1.0650 C   0  0  0  0  0  0  0  0  0  0  0  0
    2.7216    5.4281   -1.6320 C   0  0  0  0  0  0  0  0  0  0  0  0
    2.8282    6.8681   -1.8570 C   0  0  0  0  0  0  0  0  0  0  0  0
    2.2425    7.4444   -2.9806 C   0  0  0  0  0  0  0  0  0  0  0  0
    2.3442    8.8070   -3.1909 C   0  0  0  0  0  0  0  0  0  0  0  0
    3.0315    9.6040   -2.2925 C   0  0  0  0  0  0  0  0  0  0  0  0
    3.6132    9.0475   -1.1596 C   0  0  0  0  0  0  0  0  0  0  0  0
    4.3261    9.9113   -0.1589 C   0  0  0  0  0  0  0  0  0  0  0  0
    3.3482   10.4181    0.9027 C   0  0  0  0  0  0  0  0  0  0  0  0
    3.4891    7.6848   -0.9438 C   0  0  0  0  0  0  0  0  0  0  0  0
    1.5409    4.6905   -1.8777 C   0  0  0  0  0  0  0  0  0  0  0  0
   -0.0330    5.1332   -2.4986 S   0  0  0  0  0  0  0  0  0  0  0  0
   -0.5828    3.5152   -2.2201 C   0  0  0  0  0  0  0  0  0  0  0  0
   -1.7643    2.7543   -2.3176 C   0  0  0  0  0  0  0  0  0  0  0  0
   -3.1093    3.0847   -2.6010 C   0  0  0  0  0  0  0  0  0  0  0  0
   -4.1370    2.0936   -2.3956 C   0  0  0  0  0  0  0  0  0  0  0  0
   -5.3499    2.5764   -2.6128 N   0  0  0  0  0  0  0  0  0  0  0  0
   -5.2184    4.1302   -3.0481 S   0  0  0  0  0  0  0  0  0  0  0  0
   -3.6060    4.2540   -2.9713 N   0  0  0  0  0  0  0  0  0  0  0  0
   -3.7655    0.7697   -2.0678 C   0  0  0  0  0  0  0  0  0  0  0  0
   -4.4842   -0.4307   -1.9075 C   0  0  0  0  0  0  0  0  0  0  0  0
   -6.1250   -0.9816   -1.8300 S   0  0  0  0  0  0  0  0  0  0  0  0
   -5.5436   -2.6101   -1.5660 C   0  0  0  0  0  0  0  0  0  0  0  0
   -6.1990   -3.8407   -1.3602 C   0  0  0  0  0  0  0  0  0  0  0  0
   -7.6584   -3.9730   -1.3993 C   0  0  0  0  0  0  0  0  0  0  0  0
   -8.2647   -4.9537   -2.1822 C   0  0  0  0  0  0  0  0  0  0  0  0
   -9.6417   -5.0529   -2.2149 C   0  0  0  0  0  0  0  0  0  0  0  0
  -10.4243   -4.1779   -1.4788 C   0  0  0  0  0  0  0  0  0  0  0  0
   -9.8367   -3.1868   -0.7042 C   0  0  0  0  0  0  0  0  0  0  0  0
  -10.6719   -2.1940    0.0511 C   0  0  0  0  0  0  0  0  0  0  0  0
  -10.8220   -0.9058   -0.7605 C   0  0  0  0  0  0  0  0  0  0  0  0
   -8.4526   -3.0916   -0.6755 C   0  0  0  0  0  0  0  0  0  0  0  0
   -5.2932   -4.8723   -1.1891 C   0  0  0  0  0  0  0  0  0  0  0  0
   -3.6324   -4.3380   -1.3483 S   0  0  0  0  0  0  0  0  0  0  0  0
   -4.1524   -2.7060   -1.5656 C   0  0  0  0  0  0  0  0  0  0  0  0
   -3.5473   -1.4568   -1.7510 C   0  0  0  0  0  0  0  0  0  0  0  0
   -2.2743   -0.9431   -1.7807 N   0  0  0  0  0  0  0  0  0  0  0  0
   -2.3965    0.4253   -1.9345 C   0  0  0  0  0  0  0  0  0  0  0  0
   -1.4253    1.4469   -1.8878 C   0  0  0  0  0  0  0  0  0  0  0  0
   -0.1015    1.4171   -1.4860 N   0  0  0  0  0  0  0  0  0  0  0  0
    0.4034    2.6786   -1.6899 C   0  0  0  0  0  0  0  0  0  0  0  0
    1.6117    3.3543   -1.4849 C   0  0  0  0  0  0  0  0  0  0  0  0
    3.1557    2.9797   -0.8124 S   0  0  0  0  0  0  0  0  0  0  0  0
    0.4597    0.5739   -0.4501 C   0  0  0  0  0  0  0  0  0  0  0  0
    0.3615    1.2432    0.9208 C   0  0  0  0  0  0  0  0  0  0  0  0
   -1.1546   -1.7552   -2.2109 C   0  0  0  0  0  0  0  0  0  0  0  0
   -1.4232   -2.3986   -3.5711 C   0  0  0  0  0  0  0  0  0  0  0  0
   -5.5518   -6.2310   -0.7789 C   0  0  0  0  0  0  0  0  0  0  0  0
   -6.6923   -6.5391   -0.0400 C   0  0  0  0  0  0  0  0  0  0  0  0
   -6.9515   -7.8210    0.4163 C   0  0  0  0  0  0  0  0  0  0  0  0
   -8.0978   -8.2011    1.0218 O   0  0  0  0  0  0  0  0  0  0  0  0
   -9.1282   -7.2585    1.2499 C   0  0  0  0  0  0  0  0  0  0  0  0
   -8.8790   -6.3988    2.4846 C   0  0  0  0  0  0  0  0  0  0  0  0
   -6.0009   -8.8358    0.1606 C   0  0  0  0  0  0  0  0  0  0  0  0
   -4.8827   -8.5401   -0.6269 C   0  0  0  0  0  0  0  0  0  0  0  0
   -4.6321   -7.2615   -1.0785 C   0  0  0  0  0  0  0  0  0  0  0  0
   -3.5479   -6.8920   -1.8108 O   0  0  0  0  0  0  0  0  0  0  0  0
   -2.5302   -7.8342   -2.0824 C   0  0  0  0  0  0  0  0  0  0  0  0
   -1.4313   -7.1063   -2.8405 C   0  0  0  0  0  0  0  0  0  0  0  0
   -6.1612  -10.1767    0.6559 C   0  0  0  0  0  0  0  0  0  0  0  0
   -6.5822  -10.5104    1.9024 C   0  0  0  0  0  0  0  0  0  0  0  0
   -6.6259   -9.5691    3.0538 C   0  0  0  0  0  0  0  0  0  0  0  0
   -6.3218   -8.3950    3.0536 O   0  0  0  0  0  0  0  0  0  0  0  0
   -6.9862  -10.3933    4.2235 C   0  0  0  0  0  0  0  0  0  0  0  0
   -7.1231  -11.7247    3.8350 C   0  0  0  0  0  0  0  0  0  0  0  0
   -7.4418  -12.7100    4.7808 C   0  0  0  0  0  0  0  0  0  0  0  0
   -7.6179  -12.3396    6.0880 C   0  0  0  0  0  0  0  0  0  0  0  0
   -7.4880  -10.9990    6.5122 C   0  0  0  0  0  0  0  0  0  0  0  0
   -7.6720  -10.6263    7.8593 C   0  0  0  0  0  0  0  0  0  0  0  0
   -7.5365   -9.3216    8.2468 C   0  0  0  0  0  0  0  0  0  0  0  0
   -7.2117   -8.3301    7.3071 C   0  0  0  0  0  0  0  0  0  0  0  0
   -7.0255   -8.6527    5.9913 C   0  0  0  0  0  0  0  0  0  0  0  0
   -7.1584   -9.9895    5.5621 C   0  0  0  0  0  0  0  0  0  0  0  0
   -6.8861  -11.8379    2.3996 C   0  0  0  0  0  0  0  0  0  0  0  0
   -6.9965  -12.9831    1.6549 C   0  0  0  0  0  0  0  0  0  0  0  0
   -7.3187  -14.2533    2.1765 C   0  0  0  0  0  0  0  0  0  0  0  0
   -7.5724  -15.3168    2.5277 N   0  0  0  0  0  0  0  0  0  0  0  0
   -6.8125  -13.0618    0.2582 C   0  0  0  0  0  0  0  0  0  0  0  0
   -6.6829  -13.2167   -0.8726 N   0  0  0  0  0  0  0  0  0  0  0  0
    9.1086    5.1935    1.7018 H   0  0  0  0  0  0  0  0  0  0  0  0
   10.9387   10.4215   -1.1835 H   0  0  0  0  0  0  0  0  0  0  0  0
   12.6733   12.1893   -1.2377 H   0  0  0  0  0  0  0  0  0  0  0  0
   14.8545   13.0802   -0.4567 H   0  0  0  0  0  0  0  0  0  0  0  0
   15.4073    9.6523    2.0235 H   0  0  0  0  0  0  0  0  0  0  0  0
   13.7186    7.8957    2.0937 H   0  0  0  0  0  0  0  0  0  0  0  0
    7.7794    6.7918   -1.4273 H   0  0  0  0  0  0  0  0  0  0  0  0
    7.1907    6.5987   -3.6017 H   0  0  0  0  0  0  0  0  0  0  0  0
    6.4347    8.0093   -2.8128 H   0  0  0  0  0  0  0  0  0  0  0  0
    5.2590    6.4730   -5.1853 H   0  0  0  0  0  0  0  0  0  0  0  0
    6.0861    8.0359   -5.2879 H   0  0  0  0  0  0  0  0  0  0  0  0
    4.5452    7.8965   -4.4234 H   0  0  0  0  0  0  0  0  0  0  0  0
    4.8633    3.7354    1.0900 H   0  0  0  0  0  0  0  0  0  0  0  0
    5.6396    3.4665    3.2554 H   0  0  0  0  0  0  0  0  0  0  0  0
    6.4443    2.3238    2.1431 H   0  0  0  0  0  0  0  0  0  0  0  0
    7.6292    3.4749    4.7227 H   0  0  0  0  0  0  0  0  0  0  0  0
    7.1152    1.8008    4.4609 H   0  0  0  0  0  0  0  0  0  0  0  0
    8.5108    2.4584    3.5838 H   0  0  0  0  0  0  0  0  0  0  0  0
    1.7322    6.8231   -3.7005 H   0  0  0  0  0  0  0  0  0  0  0  0
    1.8920    9.2485   -4.0673 H   0  0  0  0  0  0  0  0  0  0  0  0
    3.1197   10.6662   -2.4708 H   0  0  0  0  0  0  0  0  0  0  0  0
    4.7814   10.7645   -0.6657 H   0  0  0  0  0  0  0  0  0  0  0  0
    5.1208    9.3380    0.3235 H   0  0  0  0  0  0  0  0  0  0  0  0
    3.8631   11.0439    1.6280 H   0  0  0  0  0  0  0  0  0  0  0  0
    2.8922    9.5812    1.4270 H   0  0  0  0  0  0  0  0  0  0  0  0
    2.5564   11.0023    0.4391 H   0  0  0  0  0  0  0  0  0  0  0  0
    3.9165    7.2488   -0.0517 H   0  0  0  0  0  0  0  0  0  0  0  0
   -7.6516   -5.6322   -2.7565 H   0  0  0  0  0  0  0  0  0  0  0  0
  -10.1102   -5.8152   -2.8202 H   0  0  0  0  0  0  0  0  0  0  0  0
  -11.5010   -4.2642   -1.5094 H   0  0  0  0  0  0  0  0  0  0  0  0
  -10.1969   -1.9623    1.0069 H   0  0  0  0  0  0  0  0  0  0  0  0
  -11.6595   -2.6140    0.2521 H   0  0  0  0  0  0  0  0  0  0  0  0
  -11.4188   -0.1793   -0.2141 H   0  0  0  0  0  0  0  0  0  0  0  0
   -9.8461   -0.4722   -0.9661 H   0  0  0  0  0  0  0  0  0  0  0  0
  -11.3102   -1.1131   -1.7102 H   0  0  0  0  0  0  0  0  0  0  0  0
   -7.9832   -2.3310   -0.0685 H   0  0  0  0  0  0  0  0  0  0  0  0
   -0.0856   -0.3664   -0.4127 H   0  0  0  0  0  0  0  0  0  0  0  0
    1.5086    0.3797   -0.6954 H   0  0  0  0  0  0  0  0  0  0  0  0
   -0.6775    1.4663    1.1542 H   0  0  0  0  0  0  0  0  0  0  0  0
    0.9304    2.1684    0.9435 H   0  0  0  0  0  0  0  0  0  0  0  0
    0.7558    0.5752    1.6815 H   0  0  0  0  0  0  0  0  0  0  0  0
   -0.2733   -1.1211   -2.2995 H   0  0  0  0  0  0  0  0  0  0  0  0
   -0.9763   -2.5359   -1.4637 H   0  0  0  0  0  0  0  0  0  0  0  0
   -2.2578   -3.0913   -3.5159 H   0  0  0  0  0  0  0  0  0  0  0  0
   -0.5416   -2.9455   -3.8938 H   0  0  0  0  0  0  0  0  0  0  0  0
   -1.6501   -1.6328   -4.3096 H   0  0  0  0  0  0  0  0  0  0  0  0
   -7.3668   -5.7348    0.1939 H   0  0  0  0  0  0  0  0  0  0  0  0
   -9.2844   -6.6344    0.3608 H   0  0  0  0  0  0  0  0  0  0  0  0
  -10.0216   -7.8718    1.4014 H   0  0  0  0  0  0  0  0  0  0  0  0
   -9.7070   -5.7082    2.6205 H   0  0  0  0  0  0  0  0  0  0  0  0
   -8.7925   -7.0329    3.3630 H   0  0  0  0  0  0  0  0  0  0  0  0
   -7.9557   -5.8352    2.3848 H   0  0  0  0  0  0  0  0  0  0  0  0
   -4.1882   -9.3401   -0.8308 H   0  0  0  0  0  0  0  0  0  0  0  0
   -2.9326   -8.6565   -2.6895 H   0  0  0  0  0  0  0  0  0  0  0  0
   -2.1384   -8.2465   -1.1426 H   0  0  0  0  0  0  0  0  0  0  0  0
   -1.8290   -6.6955   -3.7643 H   0  0  0  0  0  0  0  0  0  0  0  0
   -1.0463   -6.2891   -2.2368 H   0  0  0  0  0  0  0  0  0  0  0  0
   -0.6238   -7.7942   -3.0731 H   0  0  0  0  0  0  0  0  0  0  0  0
   -5.8720  -10.9649   -0.0285 H   0  0  0  0  0  0  0  0  0  0  0  0
   -7.5423  -13.7431    4.4919 H   0  0  0  0  0  0  0  0  0  0  0  0
   -7.8615  -13.0885    6.8279 H   0  0  0  0  0  0  0  0  0  0  0  0
   -7.9219  -11.3916    8.5799 H   0  0  0  0  0  0  0  0  0  0  0  0
   -7.6779   -9.0447    9.2811 H   0  0  0  0  0  0  0  0  0  0  0  0
   -7.1080   -7.3061    7.6342 H   0  0  0  0  0  0  0  0  0  0  0  0
   -6.7687   -7.9002    5.2625 H   0  0  0  0  0  0  0  0  0  0  0  0
  1  2  2  0  0  0  0
  2  3  1  0  0  0  0
  3  4  2  0  0  0  0
  3  5  1  0  0  0  0
  5  6  2  0  0  0  0
  6  7  1  0  0  0  0
  7  8  2  0  0  0  0
  8  9  1  0  0  0  0
  9 10  2  0  0  0  0
 10 11  1  0  0  0  0
 10 12  1  0  0  0  0
 12 13  2  0  0  0  0
 13 14  1  0  0  0  0
 14 15  2  0  0  0  0
 15 16  1  0  0  0  0
 16 17  2  0  0  0  0
 17 18  1  0  0  0  0
 18 19  3  0  0  0  0
 17 20  1  0  0  0  0
 20 21  3  0  0  0  0
  1 22  1  0  0  0  0
 22 23  2  0  0  0  0
 23 24  1  0  0  0  0
 24 25  1  0  0  0  0
 25 26  1  0  0  0  0
 26 27  1  0  0  0  0
 24 28  2  0  0  0  0
 28 29  1  0  0  0  0
 29 30  2  0  0  0  0
 30 31  1  0  0  0  0
 31 32  1  0  0  0  0
 32 33  1  0  0  0  0
 28 34  1  0  0  0  0
 34 35  2  0  0  0  0
 35 36  1  0  0  0  0
 36 37  2  0  0  0  0
 37 38  1  0  0  0  0
 38 39  2  0  0  0  0
 39 40  1  0  0  0  0
 40 41  1  0  0  0  0
 41 42  1  0  0  0  0
 40 43  2  0  0  0  0
 35 44  1  0  0  0  0
 44 45  1  0  0  0  0
 45 46  1  0  0  0  0
 46 47  1  0  0  0  0
 47 48  1  0  0  0  0
 48 49  1  0  0  0  0
 49 50  2  0  0  0  0
 50 51  1  0  0  0  0
 51 52  1  0  0  0  0
 49 53  1  0  0  0  0
 53 54  1  0  0  0  0
 54 55  1  0  0  0  0
 55 56  1  0  0  0  0
 56 57  1  0  0  0  0
 57 58  1  0  0  0  0
 58 59  2  0  0  0  0
 59 60  1  0  0  0  0
 60 61  2  0  0  0  0
 61 62  1  0  0  0  0
 62 63  1  0  0  0  0
 63 64  1  0  0  0  0
 62 65  2  0  0  0  0
 57 66  2  0  0  0  0
 66 67  1  0  0  0  0
 67 68  1  0  0  0  0
 68 69  1  0  0  0  0
 69 70  1  0  0  0  0
 70 71  1  0  0  0  0
 71 72  1  0  0  0  0
 72 73  1  0  0  0  0
 73 74  1  0  0  0  0
 74 75  1  0  0  0  0
 75 76  1  0  0  0  0
 73 77  1  0  0  0  0
 77 78  1  0  0  0  0
 70 79  1  0  0  0  0
 79 80  1  0  0  0  0
 66 81  1  0  0  0  0
 81 82  2  0  0  0  0
 82 83  1  0  0  0  0
 83 84  1  0  0  0  0
 84 85  1  0  0  0  0
 85 86  1  0  0  0  0
 83 87  2  0  0  0  0
 87 88  1  0  0  0  0
 88 89  2  0  0  0  0
 89 90  1  0  0  0  0
 90 91  1  0  0  0  0
 91 92  1  0  0  0  0
 87 93  1  0  0  0  0
 93 94  2  0  0  0  0
 94 95  1  0  0  0  0
 95 96  2  0  0  0  0
 95 97  1  0  0  0  0
 97 98  2  0  0  0  0
 98 99  1  0  0  0  0
 99100  2  0  0  0  0
100101  1  0  0  0  0
101102  2  0  0  0  0
102103  1  0  0  0  0
103104  2  0  0  0  0
104105  1  0  0  0  0
105106  2  0  0  0  0
 98107  1  0  0  0  0
107108  2  0  0  0  0
108109  1  0  0  0  0
109110  3  0  0  0  0
108111  1  0  0  0  0
111112  3  0  0  0  0
 16  2  1  0  0  0  0
 30 22  1  0  0  0  0
 76 34  1  0  0  0  0
 89 81  1  0  0  0  0
107 94  1  0  0  0  0
 15  5  1  0  0  0  0
 43 36  1  0  0  0  0
 75 44  2  0  0  0  0
106 97  1  0  0  0  0
 13  7  1  0  0  0  0
 74 46  2  0  0  0  0
106101  1  0  0  0  0
 72 47  2  0  0  0  0
 52 48  2  0  0  0  0
 71 53  2  0  0  0  0
 69 54  2  0  0  0  0
 68 56  2  0  0  0  0
 65 58  1  0  0  0  0
  1113  1  0  0  0  0
  6114  1  0  0  0  0
  8115  1  0  0  0  0
  9116  1  0  0  0  0
 12117  1  0  0  0  0
 14118  1  0  0  0  0
 23119  1  0  0  0  0
 26120  1  0  0  0  0
 26121  1  0  0  0  0
 27122  1  0  0  0  0
 27123  1  0  0  0  0
 27124  1  0  0  0  0
 29125  1  0  0  0  0
 32126  1  0  0  0  0
 32127  1  0  0  0  0
 33128  1  0  0  0  0
 33129  1  0  0  0  0
 33130  1  0  0  0  0
 37131  1  0  0  0  0
 38132  1  0  0  0  0
 39133  1  0  0  0  0
 41134  1  0  0  0  0
 41135  1  0  0  0  0
 42136  1  0  0  0  0
 42137  1  0  0  0  0
 42138  1  0  0  0  0
 43139  1  0  0  0  0
 59140  1  0  0  0  0
 60141  1  0  0  0  0
 61142  1  0  0  0  0
 63143  1  0  0  0  0
 63144  1  0  0  0  0
 64145  1  0  0  0  0
 64146  1  0  0  0  0
 64147  1  0  0  0  0
 65148  1  0  0  0  0
 77149  1  0  0  0  0
 77150  1  0  0  0  0
 78151  1  0  0  0  0
 78152  1  0  0  0  0
 78153  1  0  0  0  0
 79154  1  0  0  0  0
 79155  1  0  0  0  0
 80156  1  0  0  0  0
 80157  1  0  0  0  0
 80158  1  0  0  0  0
 82159  1  0  0  0  0
 85160  1  0  0  0  0
 85161  1  0  0  0  0
 86162  1  0  0  0  0
 86163  1  0  0  0  0
 86164  1  0  0  0  0
 88165  1  0  0  0  0
 91166  1  0  0  0  0
 91167  1  0  0  0  0
 92168  1  0  0  0  0
 92169  1  0  0  0  0
 92170  1  0  0  0  0
 93171  1  0  0  0  0
 99172  1  0  0  0  0
100173  1  0  0  0  0
102174  1  0  0  0  0
103175  1  0  0  0  0
104176  1  0  0  0  0
105177  1  0  0  0  0
M  END
