162

C         -1.81070       -5.02180        1.76080
C         -1.15590       -4.57340        0.66700
C         -0.97310       -3.11680        0.39390
O         -1.22370       -2.19880        1.14290
C         -0.46470       -3.03320       -0.98250
C         -0.19090       -1.91550       -1.71840
C          0.28770       -2.06180       -3.03800
C          0.57450       -0.94340       -3.84790
C          1.06380       -1.09360       -5.11590
C          1.27700       -2.39050       -5.60520
F          1.77760       -2.52610       -6.84370
C          0.99970       -3.51020       -4.86960
C          0.49230       -3.37220       -3.56280
C          0.19060       -4.51020       -2.78050
C         -0.28970       -4.34600       -1.50700
C         -0.67770       -5.31690       -0.49070
C         -0.56630       -6.67450       -0.58800
C         -0.84980       -7.57020        0.46540
N         -1.02330       -8.34060        1.29780
C         -0.10820       -7.34690       -1.74100
N          0.25360       -7.94080       -2.65340
C         -2.24200       -4.07500        2.77280
S         -1.18600       -3.36870        3.94120
C         -2.39150       -2.17670        4.39590
C         -3.57670       -2.40030        3.71720
C         -4.79080       -1.60810        3.83860
O         -4.85550       -0.59160        4.51930
C         -5.92140       -2.14170        3.06890
C         -7.19340       -1.63060        3.11980
C         -7.72730       -0.53250        3.96700
C         -8.10370       -1.05590        5.35640
S         -8.26010       -2.50420        2.07140
C         -6.99270       -3.54950        1.53090
C         -7.26510       -4.58350        0.49990
C         -7.21220       -3.97180       -0.90330
C         -5.80500       -3.23760        2.14370
C         -4.54040       -3.92630        1.90700
O         -4.34070       -4.79010        1.06220
C         -3.48260       -3.49190        2.81060
C         -1.94040       -1.05680        5.14340
S         -2.56430        0.53510        4.80930
C         -1.12250        1.24060        5.45800
C         -0.58520        2.49430        5.02520
C          0.83240        2.54820        5.05650
O          1.59120        1.74360        5.82320
C          0.96900        0.79480        6.70560
C          1.97990       -0.35350        6.90300
C          3.44740        0.06470        6.89910
C          0.55310        1.49890        8.01970
C          1.69110        2.13770        8.80430
C         -0.29950        0.29900        6.06000
C         -0.76090       -1.00030        5.86690
C          1.48100        3.32860        4.11890
C          0.75330        4.10900        3.22390
C          1.22440        4.46370        1.92430
C          0.45100        5.20540        1.04850
C         -0.73430        5.93170        1.63910
O         -1.38100        5.07320        2.59790
C         -0.64320        4.27240        3.39120
C         -1.29860        3.42550        4.26920
C         -0.17810        7.18700        2.35170
C         -1.21830        8.04710        3.05640
C         -1.78010        6.24350        0.54900
C         -3.22330        6.32260        1.03770
C          0.86690        5.08500       -0.27920
C          1.92710        4.20970       -0.43500
S          2.49040        3.61840        1.11490
C          2.38630        3.51540       -1.58600
S          2.88270        1.87270       -1.30940
C          3.05860        1.57080       -3.01420
C          2.72920        2.71990       -3.74770
C          2.67210        2.75580       -5.21800
O          2.60640        1.75060       -5.90970
C          2.66440        4.10910       -5.75790
C          2.91830        4.42470       -7.06930
C          3.21170        3.51210       -8.20270
C          1.91300        3.04670       -8.86900
S          2.83450        6.13550       -7.31330
C          2.43550        6.42930       -5.65250
C          2.15940        7.81240       -5.18720
C          0.66560        8.13080       -5.30350
C          2.38930        5.25530       -4.94430
C          2.09640        5.15620       -3.51230
O          1.70770        6.10250       -2.84570
C          2.36250        3.82440       -2.95060
C          3.50610        0.36660       -3.58760
C          3.62830       -0.87450       -3.02040
C          3.19300       -1.25030       -1.66850
O          2.88060       -0.50980       -0.75320
C          3.19280       -2.72000       -1.63310
C          2.80920       -3.54500       -0.61590
C          2.90570       -4.94250       -0.79210
C          2.54010       -5.84210        0.23010
C          2.66190       -7.19310        0.05670
C          3.15150       -7.67870       -1.16410
F          3.27720       -9.00550       -1.30970
C          3.50700       -6.84880       -2.19220
C          3.39590       -5.45490       -2.02870
C          3.77880       -4.57180       -3.06670
C          3.68290       -3.21980       -2.87230
C          4.00830       -2.08260       -3.73080
C          4.59850       -2.15540       -4.96430
C          4.91340       -3.37030       -5.60900
N          5.18220       -4.33000       -6.17820
C          5.01670       -1.05010       -5.73760
N          5.42810       -0.21220       -6.40600
H         -2.06510       -6.06530        1.89040
H         -0.33190       -0.93260       -1.29440
H          0.40530        0.04360       -3.44420
H          1.31050       -0.24640       -5.73760
H          1.17190       -4.49120       -5.28430
H          0.34180       -5.48590       -3.21320
H         -8.60780       -0.09890        3.48890
H         -6.95870        0.23440        4.07520
H         -8.52110       -0.25020        5.95380
H         -8.84040       -1.85310        5.27970
H         -7.22030       -1.43880        5.86050
H         -8.25260       -5.01850        0.66860
H         -6.50810       -5.36540        0.57660
H         -7.94390       -3.17200       -0.99950
H         -6.22150       -3.56760       -1.09570
H         -7.42640       -4.73380       -1.64740
H          1.73650       -0.86620        7.83480
H          1.84640       -1.05900        6.08070
H          3.68600        0.73240        7.71860
H          4.06920       -0.82380        6.98680
H          3.68970        0.56580        5.96690
H         -0.16710        2.27670        7.75150
H          0.03250        0.76740        8.64130
H          1.28130        2.77780        9.58260
H          2.30630        2.74610        8.14610
H          2.31230        1.38490        9.28090
H         -0.25440       -1.89100        6.19390
H          2.55110        3.24560        4.01160
H         -2.37690        3.40920        4.28260
H          0.55040        6.84130        3.09060
H          0.35990        7.77990        1.60920
H         -1.83700        8.58080        2.34070
H         -1.85220        7.43000        3.68830
H         -0.71790        8.78220        3.68310
H         -1.73360        5.44530       -0.19480
H         -1.49460        7.17610        0.06080
H         -3.37030        7.12610        1.74990
H         -3.87740        6.49360        0.18530
H         -3.50920        5.38860        1.51190
H          0.40550        5.57380       -1.11570
H          3.74330        2.63560       -7.82630
H          3.83610        4.02560       -8.93620
H          2.14310        2.39400       -9.70610
H          1.30990        2.49350       -8.15410
H          1.34120        3.89810       -9.23280
H          2.45520        7.89760       -4.14000
H          2.73310        8.52240       -5.78610
H          0.47880        9.15140       -4.98150
H          0.32940        8.02030       -6.33230
H          0.09500        7.45680       -4.67020
H          3.70570        0.44130       -4.64980
H          2.44600       -3.13430        0.31480
H          2.16760       -5.44360        1.16300
H          2.39040       -7.89450        0.83030
H          3.87540       -7.25980       -3.11880
H          4.14360       -4.99280       -3.98960
