
  xtb     02052208243D
 energy: -312.852853351104 gnorm: 0.000368676106 xtb: 6.4.1 (unknown)
175195  0     0  0            999 V2000
    6.4720   -2.6232  -11.2935 C   0  0  0  0  0  0  0  0  0  0  0  0
    5.8135   -3.7942  -11.1013 C   0  0  0  0  0  0  0  0  0  0  0  0
    5.1453   -4.1975   -9.8289 C   0  0  0  0  0  0  0  0  0  0  0  0
    4.9712   -3.5322   -8.8330 O   0  0  0  0  0  0  0  0  0  0  0  0
    4.8241   -5.6270   -9.9908 C   0  0  0  0  0  0  0  0  0  0  0  0
    4.2278   -6.4645   -9.0922 C   0  0  0  0  0  0  0  0  0  0  0  0
    4.0090   -7.8131   -9.4483 C   0  0  0  0  0  0  0  0  0  0  0  0
    3.3921   -8.7198   -8.5618 C   0  0  0  0  0  0  0  0  0  0  0  0
    3.1895  -10.0241   -8.9173 C   0  0  0  0  0  0  0  0  0  0  0  0
    3.6049  -10.4539  -10.1854 C   0  0  0  0  0  0  0  0  0  0  0  0
    3.3966  -11.7407  -10.5168 F   0  0  0  0  0  0  0  0  0  0  0  0
    4.2070   -9.6168  -11.0829 C   0  0  0  0  0  0  0  0  0  0  0  0
    4.4238   -8.2691  -10.7339 C   0  0  0  0  0  0  0  0  0  0  0  0
    5.0427   -7.3791  -11.6415 C   0  0  0  0  0  0  0  0  0  0  0  0
    5.2380   -6.0723  -11.2771 C   0  0  0  0  0  0  0  0  0  0  0  0
    5.8324   -4.9475  -11.9898 C   0  0  0  0  0  0  0  0  0  0  0  0
    6.2696   -4.9669  -13.2869 C   0  0  0  0  0  0  0  0  0  0  0  0
    6.2484   -6.1120  -14.1117 C   0  0  0  0  0  0  0  0  0  0  0  0
    6.2641   -7.0074  -14.8295 N   0  0  0  0  0  0  0  0  0  0  0  0
    6.7856   -3.8566  -13.9891 C   0  0  0  0  0  0  0  0  0  0  0  0
    7.2047   -3.0019  -14.6311 N   0  0  0  0  0  0  0  0  0  0  0  0
    6.3932   -1.4594  -10.4450 C   0  0  0  0  0  0  0  0  0  0  0  0
    5.1795   -1.0433   -9.8707 C   0  0  0  0  0  0  0  0  0  0  0  0
    5.1892    0.0412   -9.0299 C   0  0  0  0  0  0  0  0  0  0  0  0
    4.0588    0.6562   -8.2825 C   0  0  0  0  0  0  0  0  0  0  0  0
    2.8861    0.3771   -8.3447 O   0  0  0  0  0  0  0  0  0  0  0  0
    4.7049    1.7004   -7.4421 C   0  0  0  0  0  0  0  0  0  0  0  0
    6.0846    1.7468   -7.7263 C   0  0  0  0  0  0  0  0  0  0  0  0
    6.3827    0.7284   -8.7211 C   0  0  0  0  0  0  0  0  0  0  0  0
    7.5675    0.3605   -9.3342 C   0  0  0  0  0  0  0  0  0  0  0  0
    7.5556   -0.7160  -10.2058 C   0  0  0  0  0  0  0  0  0  0  0  0
    6.8953    2.6252   -7.0302 C   0  0  0  0  0  0  0  0  0  0  0  0
    6.3364    3.4176   -6.0401 C   0  0  0  0  0  0  0  0  0  0  0  0
    4.9697    3.3683   -5.7401 C   0  0  0  0  0  0  0  0  0  0  0  0
    4.1458    2.4971   -6.4753 C   0  0  0  0  0  0  0  0  0  0  0  0
    4.4080    4.0968   -4.6263 C   0  0  0  0  0  0  0  0  0  0  0  0
    4.8923    5.1790   -3.9153 C   0  0  0  0  0  0  0  0  0  0  0  0
    6.0038    6.0472   -4.3128 C   0  0  0  0  0  0  0  0  0  0  0  0
    6.9601    6.4360   -3.3800 C   0  0  0  0  0  0  0  0  0  0  0  0
    7.9847    7.2842   -3.7574 C   0  0  0  0  0  0  0  0  0  0  0  0
    8.0591    7.7552   -5.0558 C   0  0  0  0  0  0  0  0  0  0  0  0
    7.1069    7.3840   -5.9986 C   0  0  0  0  0  0  0  0  0  0  0  0
    7.1556    7.9362   -7.3942 C   0  0  0  0  0  0  0  0  0  0  0  0
    6.3949    9.2614   -7.4693 C   0  0  0  0  0  0  0  0  0  0  0  0
    6.0824    6.5337   -5.6153 C   0  0  0  0  0  0  0  0  0  0  0  0
    4.1255    5.4172   -2.7535 C   0  0  0  0  0  0  0  0  0  0  0  0
    4.2860    6.5546   -1.4336 S   0  0  0  0  0  0  0  0  0  0  0  0
    2.9113    5.8302   -0.6670 C   0  0  0  0  0  0  0  0  0  0  0  0
    2.2344    5.8684    0.5647 C   0  0  0  0  0  0  0  0  0  0  0  0
    2.5246    6.5177    1.7872 C   0  0  0  0  0  0  0  0  0  0  0  0
    1.8410    6.0980    2.9836 C   0  0  0  0  0  0  0  0  0  0  0  0
    2.2920    6.7162    4.0628 N   0  0  0  0  0  0  0  0  0  0  0  0
    3.4625    7.7432    3.6196 S   0  0  0  0  0  0  0  0  0  0  0  0
    3.4472    7.4341    2.0299 N   0  0  0  0  0  0  0  0  0  0  0  0
    0.7888    5.1594    2.8836 C   0  0  0  0  0  0  0  0  0  0  0  0
   -0.0737    4.5734    3.8287 C   0  0  0  0  0  0  0  0  0  0  0  0
   -0.2708    4.4595    5.5464 S   0  0  0  0  0  0  0  0  0  0  0  0
   -1.6043    3.3505    5.3032 C   0  0  0  0  0  0  0  0  0  0  0  0
   -2.4380    2.6357    6.1837 C   0  0  0  0  0  0  0  0  0  0  0  0
   -2.4049    2.7835    7.6366 C   0  0  0  0  0  0  0  0  0  0  0  0
   -1.1909    2.8687    8.3117 C   0  0  0  0  0  0  0  0  0  0  0  0
   -1.1763    3.0233    9.6844 C   0  0  0  0  0  0  0  0  0  0  0  0
   -2.3624    3.1013   10.3920 C   0  0  0  0  0  0  0  0  0  0  0  0
   -3.5844    3.0283    9.7336 C   0  0  0  0  0  0  0  0  0  0  0  0
   -4.8720    3.1656   10.4950 C   0  0  0  0  0  0  0  0  0  0  0  0
   -5.2449    4.6411   10.6512 C   0  0  0  0  0  0  0  0  0  0  0  0
   -3.5935    2.8753    8.3572 C   0  0  0  0  0  0  0  0  0  0  0  0
   -3.3548    1.8643    5.4809 C   0  0  0  0  0  0  0  0  0  0  0  0
   -3.2601    2.0986    3.7475 S   0  0  0  0  0  0  0  0  0  0  0  0
   -1.8901    3.1262    3.9530 C   0  0  0  0  0  0  0  0  0  0  0  0
   -1.0065    3.8125    3.1160 C   0  0  0  0  0  0  0  0  0  0  0  0
   -0.7478    3.8843    1.7715 N   0  0  0  0  0  0  0  0  0  0  0  0
    0.3815    4.6651    1.6150 C   0  0  0  0  0  0  0  0  0  0  0  0
    1.2062    4.8909    0.4883 C   0  0  0  0  0  0  0  0  0  0  0  0
    1.2867    4.2486   -0.7313 N   0  0  0  0  0  0  0  0  0  0  0  0
    2.3305    4.8048   -1.4201 C   0  0  0  0  0  0  0  0  0  0  0  0
    3.0395    4.5553   -2.6014 C   0  0  0  0  0  0  0  0  0  0  0  0
    2.9605    3.4176   -3.8931 S   0  0  0  0  0  0  0  0  0  0  0  0
    0.7313    2.9766   -1.1384 C   0  0  0  0  0  0  0  0  0  0  0  0
   -0.1948    3.1085   -2.3464 C   0  0  0  0  0  0  0  0  0  0  0  0
   -1.8049    3.6746    0.8066 C   0  0  0  0  0  0  0  0  0  0  0  0
   -3.0075    4.5736    1.0937 C   0  0  0  0  0  0  0  0  0  0  0  0
   -4.2596    0.8516    5.9379 C   0  0  0  0  0  0  0  0  0  0  0  0
   -4.0132   -0.0028    7.0044 C   0  0  0  0  0  0  0  0  0  0  0  0
   -2.8854    0.1009    7.7265 F   0  0  0  0  0  0  0  0  0  0  0  0
   -4.8658   -1.0642    7.3126 C   0  0  0  0  0  0  0  0  0  0  0  0
   -4.5136   -1.8606    8.3399 F   0  0  0  0  0  0  0  0  0  0  0  0
   -6.0365   -1.3222    6.6157 C   0  0  0  0  0  0  0  0  0  0  0  0
   -6.3530   -0.4290    5.5546 C   0  0  0  0  0  0  0  0  0  0  0  0
   -7.4811   -0.6104    4.8499 N   0  0  0  0  0  0  0  0  0  0  0  0
   -7.7148    0.1418    3.8018 C   0  0  0  0  0  0  0  0  0  0  0  0
   -8.9829   -0.1414    3.0567 C   0  0  0  0  0  0  0  0  0  0  0  0
   -8.7250   -1.1786    1.9602 C   0  0  0  0  0  0  0  0  0  0  0  0
   -6.7750    1.1289    3.3940 C   0  0  0  0  0  0  0  0  0  0  0  0
   -5.6956    1.3400    4.1054 N   0  0  0  0  0  0  0  0  0  0  0  0
   -5.4488    0.5945    5.1894 C   0  0  0  0  0  0  0  0  0  0  0  0
   -6.9572    2.0226    2.2056 C   0  0  0  0  0  0  0  0  0  0  0  0
   -7.6562    3.3187    2.6245 C   0  0  0  0  0  0  0  0  0  0  0  0
   -6.9091   -2.4318    6.8873 C   0  0  0  0  0  0  0  0  0  0  0  0
   -6.5722   -3.6941    7.2386 C   0  0  0  0  0  0  0  0  0  0  0  0
   -7.6037   -4.6107    7.8080 C   0  0  0  0  0  0  0  0  0  0  0  0
   -8.8001   -4.4382    7.8107 O   0  0  0  0  0  0  0  0  0  0  0  0
   -6.8436   -5.7282    8.3986 C   0  0  0  0  0  0  0  0  0  0  0  0
   -7.3006   -6.7827    9.1360 C   0  0  0  0  0  0  0  0  0  0  0  0
   -6.3787   -7.7379    9.6189 C   0  0  0  0  0  0  0  0  0  0  0  0
   -6.7993   -8.8516   10.3746 C   0  0  0  0  0  0  0  0  0  0  0  0
   -5.8983   -9.7695   10.8380 C   0  0  0  0  0  0  0  0  0  0  0  0
   -4.5380   -9.5890   10.5519 C   0  0  0  0  0  0  0  0  0  0  0  0
   -3.6671  -10.5037   11.0156 F   0  0  0  0  0  0  0  0  0  0  0  0
   -4.0762   -8.5271    9.8257 C   0  0  0  0  0  0  0  0  0  0  0  0
   -4.9908   -7.5733    9.3375 C   0  0  0  0  0  0  0  0  0  0  0  0
   -4.5454   -6.4727    8.5699 C   0  0  0  0  0  0  0  0  0  0  0  0
   -5.4596   -5.5699    8.0976 C   0  0  0  0  0  0  0  0  0  0  0  0
   -5.2992   -4.3919    7.2522 C   0  0  0  0  0  0  0  0  0  0  0  0
   -4.2255   -4.1470    6.4395 C   0  0  0  0  0  0  0  0  0  0  0  0
   -3.0497   -4.9274    6.4364 C   0  0  0  0  0  0  0  0  0  0  0  0
   -2.0713   -5.5255    6.3915 N   0  0  0  0  0  0  0  0  0  0  0  0
   -4.1901   -3.1586    5.4354 C   0  0  0  0  0  0  0  0  0  0  0  0
   -4.1148   -2.4120    4.5658 N   0  0  0  0  0  0  0  0  0  0  0  0
    7.1636   -2.5470  -12.1241 H   0  0  0  0  0  0  0  0  0  0  0  0
    3.9243   -6.0986   -8.1228 H   0  0  0  0  0  0  0  0  0  0  0  0
    3.0812   -8.3648   -7.5908 H   0  0  0  0  0  0  0  0  0  0  0  0
    2.7204  -10.7308   -8.2512 H   0  0  0  0  0  0  0  0  0  0  0  0
    4.5125   -9.9823  -12.0508 H   0  0  0  0  0  0  0  0  0  0  0  0
    5.3510   -7.7574  -12.6029 H   0  0  0  0  0  0  0  0  0  0  0  0
    4.2537   -1.5460  -10.0991 H   0  0  0  0  0  0  0  0  0  0  0  0
    8.4860    0.8921   -9.1364 H   0  0  0  0  0  0  0  0  0  0  0  0
    8.4757   -1.0245  -10.6815 H   0  0  0  0  0  0  0  0  0  0  0  0
    7.9560    2.6774   -7.2245 H   0  0  0  0  0  0  0  0  0  0  0  0
    6.9776    4.0649   -5.4630 H   0  0  0  0  0  0  0  0  0  0  0  0
    3.0866    2.4358   -6.2706 H   0  0  0  0  0  0  0  0  0  0  0  0
    6.9087    6.0612   -2.3692 H   0  0  0  0  0  0  0  0  0  0  0  0
    8.7290    7.5791   -3.0327 H   0  0  0  0  0  0  0  0  0  0  0  0
    8.8625    8.4180   -5.3434 H   0  0  0  0  0  0  0  0  0  0  0  0
    8.1935    8.1001   -7.6909 H   0  0  0  0  0  0  0  0  0  0  0  0
    6.7087    7.2233   -8.0903 H   0  0  0  0  0  0  0  0  0  0  0  0
    5.3543    9.1161   -7.1883 H   0  0  0  0  0  0  0  0  0  0  0  0
    6.8336    9.9886   -6.7897 H   0  0  0  0  0  0  0  0  0  0  0  0
    6.4297    9.6637   -8.4790 H   0  0  0  0  0  0  0  0  0  0  0  0
    5.3299    6.2418   -6.3347 H   0  0  0  0  0  0  0  0  0  0  0  0
   -0.2651    2.7873    7.7636 H   0  0  0  0  0  0  0  0  0  0  0  0
   -0.2327    3.0783   10.2066 H   0  0  0  0  0  0  0  0  0  0  0  0
   -2.3434    3.2172   11.4661 H   0  0  0  0  0  0  0  0  0  0  0  0
   -4.7654    2.7145   11.4835 H   0  0  0  0  0  0  0  0  0  0  0  0
   -5.6735    2.6444    9.9670 H   0  0  0  0  0  0  0  0  0  0  0  0
   -6.1764    4.7426   11.2034 H   0  0  0  0  0  0  0  0  0  0  0  0
   -5.3664    5.1057    9.6751 H   0  0  0  0  0  0  0  0  0  0  0  0
   -4.4628    5.1738   11.1873 H   0  0  0  0  0  0  0  0  0  0  0  0
   -4.5379    2.8334    7.8305 H   0  0  0  0  0  0  0  0  0  0  0  0
    1.5660    2.3215   -1.4139 H   0  0  0  0  0  0  0  0  0  0  0  0
    0.2212    2.5242   -0.2883 H   0  0  0  0  0  0  0  0  0  0  0  0
    0.3673    3.4362   -3.2163 H   0  0  0  0  0  0  0  0  0  0  0  0
   -0.6407    2.1436   -2.5699 H   0  0  0  0  0  0  0  0  0  0  0  0
   -0.9903    3.8290   -2.1701 H   0  0  0  0  0  0  0  0  0  0  0  0
   -1.4237    3.9166   -0.1809 H   0  0  0  0  0  0  0  0  0  0  0  0
   -2.1141    2.6247    0.8387 H   0  0  0  0  0  0  0  0  0  0  0  0
   -3.7464    4.4513    0.3062 H   0  0  0  0  0  0  0  0  0  0  0  0
   -2.6984    5.6163    1.1241 H   0  0  0  0  0  0  0  0  0  0  0  0
   -3.4691    4.3170    2.0427 H   0  0  0  0  0  0  0  0  0  0  0  0
   -9.3867    0.7722    2.6203 H   0  0  0  0  0  0  0  0  0  0  0  0
   -9.7072   -0.5479    3.7632 H   0  0  0  0  0  0  0  0  0  0  0  0
   -9.6475   -1.3948    1.4273 H   0  0  0  0  0  0  0  0  0  0  0  0
   -8.3528   -2.0989    2.4027 H   0  0  0  0  0  0  0  0  0  0  0  0
   -7.9865   -0.8193    1.2468 H   0  0  0  0  0  0  0  0  0  0  0  0
   -5.9672    2.2647    1.8165 H   0  0  0  0  0  0  0  0  0  0  0  0
   -7.5332    1.5226    1.4282 H   0  0  0  0  0  0  0  0  0  0  0  0
   -7.7728    3.9757    1.7663 H   0  0  0  0  0  0  0  0  0  0  0  0
   -8.6404    3.1137    3.0404 H   0  0  0  0  0  0  0  0  0  0  0  0
   -7.0643    3.8313    3.3785 H   0  0  0  0  0  0  0  0  0  0  0  0
   -7.9697   -2.2209    6.8048 H   0  0  0  0  0  0  0  0  0  0  0  0
   -8.3543   -6.8886    9.3467 H   0  0  0  0  0  0  0  0  0  0  0  0
   -7.8522   -8.9694   10.5823 H   0  0  0  0  0  0  0  0  0  0  0  0
   -6.2036  -10.6271   11.4162 H   0  0  0  0  0  0  0  0  0  0  0  0
   -3.0223   -8.4212    9.6214 H   0  0  0  0  0  0  0  0  0  0  0  0
   -3.4891   -6.3655    8.3812 H   0  0  0  0  0  0  0  0  0  0  0  0
  1  2  2  0  0  0  0
  2  3  1  0  0  0  0
  3  4  2  0  0  0  0
  3  5  1  0  0  0  0
  5  6  2  0  0  0  0
  6  7  1  0  0  0  0
  7  8  2  0  0  0  0
  8  9  1  0  0  0  0
  9 10  2  0  0  0  0
 10 11  1  0  0  0  0
 10 12  1  0  0  0  0
 12 13  2  0  0  0  0
 13 14  1  0  0  0  0
 14 15  2  0  0  0  0
 15 16  1  0  0  0  0
 16 17  2  0  0  0  0
 17 18  1  0  0  0  0
 18 19  3  0  0  0  0
 17 20  1  0  0  0  0
 20 21  3  0  0  0  0
  1 22  1  0  0  0  0
 22 23  2  0  0  0  0
 23 24  1  0  0  0  0
 24 25  1  0  0  0  0
 25 26  2  0  0  0  0
 25 27  1  0  0  0  0
 27 28  2  0  0  0  0
 28 29  1  0  0  0  0
 29 30  1  0  0  0  0
 30 31  2  0  0  0  0
 28 32  1  0  0  0  0
 32 33  2  0  0  0  0
 33 34  1  0  0  0  0
 34 35  2  0  0  0  0
 34 36  1  0  0  0  0
 36 37  2  0  0  0  0
 37 38  1  0  0  0  0
 38 39  2  0  0  0  0
 39 40  1  0  0  0  0
 40 41  2  0  0  0  0
 41 42  1  0  0  0  0
 42 43  1  0  0  0  0
 43 44  1  0  0  0  0
 42 45  2  0  0  0  0
 37 46  1  0  0  0  0
 46 47  1  0  0  0  0
 47 48  1  0  0  0  0
 48 49  1  0  0  0  0
 49 50  1  0  0  0  0
 50 51  1  0  0  0  0
 51 52  2  0  0  0  0
 52 53  1  0  0  0  0
 53 54  1  0  0  0  0
 51 55  1  0  0  0  0
 55 56  1  0  0  0  0
 56 57  1  0  0  0  0
 57 58  1  0  0  0  0
 58 59  1  0  0  0  0
 59 60  1  0  0  0  0
 60 61  2  0  0  0  0
 61 62  1  0  0  0  0
 62 63  2  0  0  0  0
 63 64  1  0  0  0  0
 64 65  1  0  0  0  0
 65 66  1  0  0  0  0
 64 67  2  0  0  0  0
 59 68  2  0  0  0  0
 68 69  1  0  0  0  0
 69 70  1  0  0  0  0
 70 71  1  0  0  0  0
 71 72  1  0  0  0  0
 72 73  1  0  0  0  0
 73 74  1  0  0  0  0
 74 75  1  0  0  0  0
 75 76  1  0  0  0  0
 76 77  1  0  0  0  0
 77 78  1  0  0  0  0
 75 79  1  0  0  0  0
 79 80  1  0  0  0  0
 72 81  1  0  0  0  0
 81 82  1  0  0  0  0
 68 83  1  0  0  0  0
 83 84  2  0  0  0  0
 84 85  1  0  0  0  0
 84 86  1  0  0  0  0
 86 87  1  0  0  0  0
 86 88  2  0  0  0  0
 88 89  1  0  0  0  0
 89 90  2  0  0  0  0
 90 91  1  0  0  0  0
 91 92  1  0  0  0  0
 92 93  1  0  0  0  0
 91 94  2  0  0  0  0
 94 95  1  0  0  0  0
 95 96  2  0  0  0  0
 94 97  1  0  0  0  0
 97 98  1  0  0  0  0
 88 99  1  0  0  0  0
 99100  2  0  0  0  0
100101  1  0  0  0  0
101102  2  0  0  0  0
101103  1  0  0  0  0
103104  2  0  0  0  0
104105  1  0  0  0  0
105106  2  0  0  0  0
106107  1  0  0  0  0
107108  2  0  0  0  0
108109  1  0  0  0  0
108110  1  0  0  0  0
110111  2  0  0  0  0
111112  1  0  0  0  0
112113  2  0  0  0  0
113114  1  0  0  0  0
114115  2  0  0  0  0
115116  1  0  0  0  0
116117  3  0  0  0  0
115118  1  0  0  0  0
118119  3  0  0  0  0
 16  2  1  0  0  0  0
 31 22  1  0  0  0  0
 78 36  1  0  0  0  0
 96 83  1  0  0  0  0
114100  1  0  0  0  0
 15  5  1  0  0  0  0
 29 24  2  0  0  0  0
 45 38  1  0  0  0  0
 77 46  2  0  0  0  0
 96 89  1  0  0  0  0
113103  1  0  0  0  0
 13  7  1  0  0  0  0
 35 27  1  0  0  0  0
 76 48  2  0  0  0  0
111105  1  0  0  0  0
 74 49  2  0  0  0  0
 54 50  2  0  0  0  0
 73 55  2  0  0  0  0
 71 56  2  0  0  0  0
 70 58  2  0  0  0  0
 67 60  1  0  0  0  0
  1120  1  0  0  0  0
  6121  1  0  0  0  0
  8122  1  0  0  0  0
  9123  1  0  0  0  0
 12124  1  0  0  0  0
 14125  1  0  0  0  0
 23126  1  0  0  0  0
 30127  1  0  0  0  0
 31128  1  0  0  0  0
 32129  1  0  0  0  0
 33130  1  0  0  0  0
 35131  1  0  0  0  0
 39132  1  0  0  0  0
 40133  1  0  0  0  0
 41134  1  0  0  0  0
 43135  1  0  0  0  0
 43136  1  0  0  0  0
 44137  1  0  0  0  0
 44138  1  0  0  0  0
 44139  1  0  0  0  0
 45140  1  0  0  0  0
 61141  1  0  0  0  0
 62142  1  0  0  0  0
 63143  1  0  0  0  0
 65144  1  0  0  0  0
 65145  1  0  0  0  0
 66146  1  0  0  0  0
 66147  1  0  0  0  0
 66148  1  0  0  0  0
 67149  1  0  0  0  0
 79150  1  0  0  0  0
 79151  1  0  0  0  0
 80152  1  0  0  0  0
 80153  1  0  0  0  0
 80154  1  0  0  0  0
 81155  1  0  0  0  0
 81156  1  0  0  0  0
 82157  1  0  0  0  0
 82158  1  0  0  0  0
 82159  1  0  0  0  0
 92160  1  0  0  0  0
 92161  1  0  0  0  0
 93162  1  0  0  0  0
 93163  1  0  0  0  0
 93164  1  0  0  0  0
 97165  1  0  0  0  0
 97166  1  0  0  0  0
 98167  1  0  0  0  0
 98168  1  0  0  0  0
 98169  1  0  0  0  0
 99170  1  0  0  0  0
104171  1  0  0  0  0
106172  1  0  0  0  0
107173  1  0  0  0  0
110174  1  0  0  0  0
112175  1  0  0  0  0
M  END
