179

C          9.32540        0.58030       -4.64970
C          9.84410        1.13020       -3.50930
C          9.12140        1.37200       -2.25290
O          7.91760        1.33410       -2.06850
C         10.15340        1.65450       -1.24120
C         10.00010        1.87720        0.09660
C         11.14470        2.11170        0.89030
C         11.04490        2.34530        2.27700
C         12.16010        2.56670        3.03610
C         13.41580        2.55850        2.41380
F         14.50170        2.77800        3.17720
C         13.56880        2.33740        1.07320
C         12.43080        2.10860        0.27570
C         12.55740        1.88070       -1.11500
C         11.43390        1.65960       -1.86520
C         11.25070        1.41480       -3.29310
C         12.21630        1.52770       -4.25730
C         11.98860        1.46610       -5.65040
N         11.88840        1.49280       -6.79360
C         13.57120        1.80340       -3.97830
N         14.68560        2.01880       -3.80620
C          7.99420        0.26650       -4.97160
S          6.59000        0.77990       -4.07240
C          5.52220        0.10990       -5.26090
C          6.21730       -0.54830       -6.27740
C          5.59770       -1.38270       -7.32180
O          4.45350       -1.79680       -7.25770
C          6.51130       -1.68230       -8.42360
C          6.13690       -2.16260       -9.65070
C          4.78590       -2.55280      -10.12540
C          4.51950       -4.03230       -9.83260
S          7.51190       -2.33730      -10.69210
C          8.60690       -1.80780       -9.46170
C         10.07160       -1.74400       -9.69190
C         10.45030       -1.74260      -11.16620
C          7.92350       -1.48050       -8.31520
C          8.56310       -1.01760       -7.09040
O          9.76580       -1.10350       -6.89640
C          7.61260       -0.43650       -6.12340
C          4.12160        0.28520       -5.08670
C          3.11570        0.46640       -6.02290
C          3.32320        0.63840       -7.45760
C          4.39220        1.39240       -7.93900
C          4.57420        1.54030       -9.29950
C          3.69020        0.95580      -10.19130
C          2.60870        0.21750       -9.72890
C          1.60990       -0.37780      -10.67900
C          0.38050        0.52610      -10.78910
C          2.43500        0.06630       -8.36080
C          1.85660        0.55700       -5.39970
S          0.23670        0.72930       -6.03140
C         -0.37390        0.70920       -4.41350
C         -1.60850        0.68000       -3.74640
C         -2.93090        0.53900       -4.22410
C         -3.98510        0.26790       -3.28530
N         -5.14990        0.06470       -3.87970
S         -4.94400        0.21030       -5.47880
N         -3.35740        0.53310       -5.47690
C         -3.69620        0.30180       -1.90280
C         -4.51030        0.16840       -0.76470
S         -6.14430       -0.22830       -0.35620
C         -5.75320       -0.01600        1.33450
C         -6.51480       -0.11970        2.51350
C         -7.93330       -0.46810        2.55530
C         -8.42450       -1.47090        1.72450
C         -9.74960       -1.85440        1.81490
C        -10.58780       -1.26510        2.74430
C        -10.11960       -0.25100        3.57120
C        -11.02830        0.41130        4.56690
C        -11.72310        1.62370        3.94510
C         -8.80210        0.15880        3.44510
C         -5.74450        0.18050        3.62770
S         -4.09890        0.62870        3.21860
C         -4.42440        0.36570        1.54560
C         -3.70950        0.44800        0.34640
N         -2.42470        0.71860       -0.05120
C         -2.38910        0.60210       -1.43080
C         -1.31630        0.63240       -2.35520
N          0.05430        0.57680       -2.19160
C          0.62370        0.61200       -3.43710
C          1.90010        0.50590       -4.00290
S          3.51910        0.31550       -3.43650
C          0.82730        0.16110       -1.04210
C          1.75410        1.26680       -0.53680
C         -1.58670        1.54310        0.79270
C         -2.18790        2.93690        0.97350
C         -6.13940        0.23140        4.99520
S         -5.61020        1.54610        5.99020
C         -6.64170        1.02760        7.30240
C         -7.30690       -0.16130        6.96680
C         -8.26130       -0.85850        7.84930
O         -8.39080       -0.61040        9.03640
C         -9.04070       -1.87750        7.15140
C        -10.19230       -2.44090        7.64090
C        -10.89000       -2.16350        8.92150
C        -10.32910       -3.04880       10.03910
S        -10.79700       -3.64100        6.55040
C         -9.47730       -3.41580        5.44890
C         -9.35150       -4.27720        4.24730
C         -8.67240       -5.60170        4.60960
C         -8.63930       -2.42580        5.89020
C         -7.47680       -1.92310        5.15870
O         -6.94380       -2.50510        4.23160
C         -7.00350       -0.62620        5.67630
C         -6.88660        1.74870        8.48120
C         -6.27500        2.87290        8.96730
C         -5.05260        3.49540        8.44340
O         -4.47160        3.23710        7.40480
C         -4.64960        4.49700        9.44890
C         -3.53820        5.31830        9.45810
C         -3.36120        6.17960       10.52910
C         -4.29420        6.19590       11.55790
Br        -4.02290        7.37810       13.01990
C         -5.42040        5.38080       11.56160
C         -5.59660        4.52340       10.48910
C         -6.66260        3.57030       10.17810
C         -7.84730        3.44540       10.85130
C         -8.16150        4.16010       12.02720
N         -8.46520        4.70890       12.98810
C         -8.94500        2.65890       10.43310
N         -9.90580        2.10440       10.13840
H         10.02860        0.29650       -5.42540
H          9.01750        1.87260        0.54430
H         10.06630        2.34610        2.73330
H         12.10140        2.74660        4.09780
H         14.55140        2.33970        0.62800
H         13.54400        1.88110       -1.54970
H          4.70560       -2.36990      -11.19890
H          4.04350       -1.95100       -9.59960
H          5.27260       -4.65980      -10.30500
H          3.54110       -4.31360      -10.21200
H          4.53840       -4.20230       -8.75950
H         10.46380       -0.85500       -9.18900
H         10.53430       -2.60050       -9.18930
H         11.53000       -1.68570      -11.27300
H         10.00770       -0.88780      -11.67320
H         10.10160       -2.65090      -11.65420
H          5.06840        1.87210       -7.24650
H          5.40740        2.12060       -9.66840
H          3.84150        1.07580      -11.25450
H          1.30010       -1.36110      -10.31920
H          2.06090       -0.49950      -11.66580
H         -0.34840        0.09440      -11.47080
H         -0.08540        0.65130       -9.81440
H          0.66560        1.50770      -11.16100
H          1.61770       -0.53460       -7.99260
H         -7.76120       -1.96920        1.03540
H        -10.12520       -2.63340        1.16800
H        -11.61410       -1.59170        2.83130
H        -11.78290       -0.30220        4.90510
H        -10.45150        0.73240        5.43770
H        -10.98690        2.35200        3.61240
H        -12.37860        2.09850        4.67110
H        -12.31600        1.31980        3.08550
H         -8.44600        0.97950        4.05150
H          0.14460       -0.18340       -0.26440
H          1.44260       -0.69360       -1.34580
H          1.21760        2.19830       -0.36920
H          2.21920        0.95670        0.39460
H          2.53880        1.46030       -1.26280
H         -1.49200        1.05070        1.76550
H         -0.60640        1.64430        0.34190
H         -1.52280        3.54450        1.58070
H         -3.15310        2.88380        1.46920
H         -2.31830        3.41830        0.00630
H        -10.73330       -1.11810        9.19510
H        -11.95910       -2.35170        8.80590
H        -10.86540       -2.85680       10.96380
H        -10.43230       -4.10140        9.78360
H         -9.27810       -2.82130       10.19440
H        -10.34090       -4.47600        3.83020
H         -8.74400       -3.75630        3.50610
H         -7.67140       -5.41240        4.98850
H         -9.24380       -6.13090        5.36970
H         -8.59590       -6.23110        3.72750
H         -7.67520        1.31600        9.08750
H         -2.82940        5.28280        8.64550
H         -2.50560        6.83550       10.57210
H         -6.11770        5.42560       12.38230
