185

C         -7.65850       -6.28240       -6.25980
C         -8.77900       -5.55920       -6.52040
C         -9.78470       -6.05170       -7.50310
O         -9.85530       -7.15970       -7.97960
C        -10.62190       -4.87530       -7.81480
C        -11.62670       -4.75750       -8.73140
C        -12.29190       -3.51870       -8.87110
C        -13.33770       -3.34320       -9.80050
C        -13.97170       -2.13870       -9.92860
C        -13.56640       -1.06900       -9.11850
F        -14.20020        0.10940       -9.26120
C        -12.56030       -1.18500       -8.20060
C        -11.89890       -2.41980       -8.05280
C        -10.86350       -2.57360       -7.10250
C        -10.23340       -3.78310       -6.98580
C         -9.18170       -4.23830       -6.08300
C         -8.82800       -3.63220       -4.90570
C         -8.04280       -4.24720       -3.90780
N         -7.45700       -4.71560       -3.03860
C         -9.26380       -2.35000       -4.51950
N         -9.55650       -1.29440       -4.17520
C         -6.44780       -5.80440       -5.69450
S         -5.88960       -4.18080       -5.99220
C         -4.44150       -4.42350       -5.04410
C         -4.40570       -5.73210       -4.54620
C         -3.34590       -6.28600       -3.72090
O         -2.41090       -5.61770       -3.28700
C         -3.46630       -7.71540       -3.44780
C         -2.51320       -8.46060       -2.79730
C         -1.22780       -8.02050       -2.19640
C         -1.45740       -7.43580       -0.79930
S         -3.00180      -10.11580       -2.67530
C         -4.49520       -9.81570       -3.49570
C         -5.47620      -10.91260       -3.69200
C         -6.50760      -10.91780       -2.55920
C         -4.60150       -8.49300       -3.84630
C         -5.73750       -7.91070       -4.55480
O         -6.75800       -8.52140       -4.82460
C         -5.52680       -6.50740       -4.93920
C         -3.58000       -3.31870       -4.85130
C         -3.67310       -2.09640       -5.52680
C         -4.45300       -1.83480       -6.74080
C         -4.21190       -2.57230       -7.89880
C         -4.90670       -2.27950       -9.05540
C         -5.83390       -1.25150       -9.06970
C         -6.06960       -0.49230       -7.93060
C         -7.08750        0.61090       -7.94240
C         -8.45980        0.07760       -7.52750
C         -5.37200       -0.79260       -6.76970
C         -2.85600       -1.12280       -4.95330
S         -2.56490        0.55800       -5.35080
C         -1.45710        0.64150       -4.02240
C         -0.65500        1.58510       -3.36540
C         -0.51490        2.97700       -3.56070
C          0.28050        3.73030       -2.63510
N          0.27420        5.02700       -2.90060
S         -0.64850        5.27800       -4.20740
N         -1.07760        3.74110       -4.48320
C          0.99210        3.04040       -1.62910
C          1.92610        3.49250       -0.68760
S          2.65050        4.97640       -0.16780
C          3.63740        4.06040        0.95250
C          4.62020        4.44220        1.86640
C          5.08540        5.83040        1.93950
C          6.42710        6.13610        1.71540
C          6.83530        7.45480        1.69340
C          5.91560        8.47370        1.87750
C          4.57310        8.18670        2.08530
C          3.55540        9.28320        2.20520
C          2.91510        9.55400        0.84180
C          4.16900        6.85980        2.11300
C          5.12690        3.34480        2.57370
S          4.44160        1.82590        1.99880
C          3.40620        2.67980        0.91270
C          2.42500        2.36140       -0.03140
N          1.82720        1.23340       -0.52660
C          0.92030        1.62190       -1.49340
C         -0.00450        0.90330       -2.29510
N         -0.43060       -0.41550       -2.29280
C         -1.31380       -0.56550       -3.33070
C         -2.11980       -1.58230       -3.85380
S         -2.39600       -3.25850       -3.54820
C         -0.51210       -1.36080       -1.19950
C         -1.54590       -0.91060       -0.16930
C          2.42170       -0.05690       -0.25920
C          2.01850       -0.60830        1.10740
C          5.95190        3.42210        3.72080
S          6.18280        4.98070        4.47030
C          7.11290        4.29720        5.78040
C          7.28650        2.93880        5.59660
C          8.24050        2.12890        6.38690
O          9.19410        2.60450        6.97200
C          7.96220        0.69860        6.29150
C          8.41510       -0.25050        7.16640
C          9.28630       -0.07170        8.35500
C         10.76280       -0.17620        7.96250
S          7.84810       -1.82250        6.70860
C          7.01640       -1.20350        5.32330
C          6.30350       -2.12920        4.40560
C          7.19040       -2.50050        3.21330
C          7.15920        0.16010        5.23710
C          6.54590        0.99350        4.20690
O          5.98810        0.50930        3.22600
C          6.59740        2.42500        4.47300
C          7.54250        5.14510        6.82670
C          7.70420        4.79160        8.13580
C          7.17390        3.55810        8.76480
O          6.67060        2.58880        8.22990
C          7.31120        3.76510       10.21630
C          6.93180        2.93320       11.23030
C          7.16620        3.32570       12.56670
C          6.79570        2.50600       13.65240
C          7.01920        2.90150       14.94190
C          7.62830        4.14220       15.17420
F          7.83910        4.51450       16.44980
C          8.00910        4.97410       14.15820
C          7.78700        4.58280       12.82370
C          8.17250        5.42120       11.75130
C          7.94170        5.01660       10.46380
C          8.22640        5.64960        9.18030
C          8.93530        6.80870        9.00180
C          9.26470        7.37510        7.75220
N          9.58430        7.89300        6.77830
C          9.45430        7.58440       10.05900
N          9.88790        8.26260       10.87770
H         -7.67530       -7.32710       -6.55550
H        -11.91330       -5.60090       -9.34160
H        -13.63220       -4.18140      -10.41390
H        -14.77340       -1.98830      -10.63410
H        -12.27580       -0.34240       -7.59010
H        -10.59030       -1.72650       -6.49460
H         -0.54530       -8.87030       -2.13280
H         -0.78620       -7.24780       -2.82870
H         -0.50640       -7.15220       -0.35700
H         -2.08580       -6.55220       -0.86960
H         -1.94100       -8.16570       -0.15370
H         -5.99870      -10.75580       -4.63750
H         -4.95450      -11.87130       -3.72020
H         -7.20290      -11.74090       -2.69790
H         -6.01730      -11.03050       -1.59440
H         -7.06710       -9.98630       -2.56660
H         -3.47640       -3.36370       -7.88460
H         -4.71900       -2.84970       -9.95320
H         -6.37180       -1.02730       -9.97960
H         -6.78470        1.40010       -7.25240
H         -7.15460        1.03820       -8.94480
H         -9.20270        0.87030       -7.57470
H         -8.76850       -0.72950       -8.19010
H         -8.42390       -0.30280       -6.50910
H         -5.54660       -0.21530       -5.87340
H          7.13750        5.33890        1.55030
H          7.87470        7.69130        1.52210
H          6.24360        9.50260        1.85330
H          4.03110       10.19520        2.57040
H          2.77910        8.99260        2.91570
H          3.67170        9.86360        0.12440
H          2.16910       10.34110        0.92160
H          2.43480        8.65450        0.46340
H          3.12860        6.62020        2.27850
H         -0.81760       -2.31580       -1.63460
H          0.45360       -1.50200       -0.72590
H         -2.52620       -0.82650       -0.63220
H         -1.60580       -1.63590        0.63740
H         -1.27710        0.05960        0.24460
H          3.50930        0.07580       -0.26710
H          2.16960       -0.73650       -1.07430
H          2.39950       -1.61940        1.22180
H          2.44820        0.00740        1.89260
H          0.93950       -0.61850        1.23300
H          9.04870       -0.83000        9.10420
H          9.10220        0.91950        8.77440
H         10.96880       -1.13940        7.50010
H         11.01200        0.61600        7.26160
H         11.38880       -0.06980        8.84420
H          6.01890       -3.03270        4.94840
H          5.40590       -1.63330        4.03030
H          7.41890       -1.61010        2.63430
H          6.67120       -3.20780        2.57230
H          8.11970       -2.95210        3.55330
H          7.67880        6.18380        6.55040
H          6.45830        1.98690       11.01460
H          6.32700        1.55510       13.44780
H          6.74010        2.28770       15.78360
H          8.47710        5.92170       14.37460
H          8.63690        6.36720       11.97890
