
  xtb     02052208293D
 energy: -331.227626743855 gnorm: 0.000982353451 xtb: 6.4.1 (unknown)
185206  0     0  0            999 V2000
   -7.6585   -6.2824   -6.2598 C   0  0  0  0  0  0  0  0  0  0  0  0
   -8.7790   -5.5592   -6.5204 C   0  0  0  0  0  0  0  0  0  0  0  0
   -9.7847   -6.0517   -7.5031 C   0  0  0  0  0  0  0  0  0  0  0  0
   -9.8553   -7.1597   -7.9796 O   0  0  0  0  0  0  0  0  0  0  0  0
  -10.6219   -4.8753   -7.8148 C   0  0  0  0  0  0  0  0  0  0  0  0
  -11.6267   -4.7575   -8.7314 C   0  0  0  0  0  0  0  0  0  0  0  0
  -12.2919   -3.5187   -8.8711 C   0  0  0  0  0  0  0  0  0  0  0  0
  -13.3377   -3.3432   -9.8005 C   0  0  0  0  0  0  0  0  0  0  0  0
  -13.9717   -2.1387   -9.9286 C   0  0  0  0  0  0  0  0  0  0  0  0
  -13.5664   -1.0690   -9.1185 C   0  0  0  0  0  0  0  0  0  0  0  0
  -14.2002    0.1094   -9.2612 F   0  0  0  0  0  0  0  0  0  0  0  0
  -12.5603   -1.1850   -8.2006 C   0  0  0  0  0  0  0  0  0  0  0  0
  -11.8989   -2.4198   -8.0528 C   0  0  0  0  0  0  0  0  0  0  0  0
  -10.8635   -2.5736   -7.1025 C   0  0  0  0  0  0  0  0  0  0  0  0
  -10.2334   -3.7831   -6.9858 C   0  0  0  0  0  0  0  0  0  0  0  0
   -9.1817   -4.2383   -6.0830 C   0  0  0  0  0  0  0  0  0  0  0  0
   -8.8280   -3.6322   -4.9057 C   0  0  0  0  0  0  0  0  0  0  0  0
   -8.0428   -4.2472   -3.9078 C   0  0  0  0  0  0  0  0  0  0  0  0
   -7.4570   -4.7156   -3.0386 N   0  0  0  0  0  0  0  0  0  0  0  0
   -9.2638   -2.3500   -4.5195 C   0  0  0  0  0  0  0  0  0  0  0  0
   -9.5565   -1.2944   -4.1752 N   0  0  0  0  0  0  0  0  0  0  0  0
   -6.4478   -5.8044   -5.6945 C   0  0  0  0  0  0  0  0  0  0  0  0
   -5.8896   -4.1808   -5.9922 S   0  0  0  0  0  0  0  0  0  0  0  0
   -4.4415   -4.4235   -5.0441 C   0  0  0  0  0  0  0  0  0  0  0  0
   -4.4057   -5.7321   -4.5462 C   0  0  0  0  0  0  0  0  0  0  0  0
   -3.3459   -6.2860   -3.7209 C   0  0  0  0  0  0  0  0  0  0  0  0
   -2.4109   -5.6177   -3.2870 O   0  0  0  0  0  0  0  0  0  0  0  0
   -3.4663   -7.7154   -3.4478 C   0  0  0  0  0  0  0  0  0  0  0  0
   -2.5132   -8.4606   -2.7973 C   0  0  0  0  0  0  0  0  0  0  0  0
   -1.2278   -8.0205   -2.1964 C   0  0  0  0  0  0  0  0  0  0  0  0
   -1.4574   -7.4358   -0.7993 C   0  0  0  0  0  0  0  0  0  0  0  0
   -3.0018  -10.1158   -2.6753 S   0  0  0  0  0  0  0  0  0  0  0  0
   -4.4952   -9.8157   -3.4957 C   0  0  0  0  0  0  0  0  0  0  0  0
   -5.4762  -10.9126   -3.6920 C   0  0  0  0  0  0  0  0  0  0  0  0
   -6.5076  -10.9178   -2.5592 C   0  0  0  0  0  0  0  0  0  0  0  0
   -4.6015   -8.4930   -3.8463 C   0  0  0  0  0  0  0  0  0  0  0  0
   -5.7375   -7.9107   -4.5548 C   0  0  0  0  0  0  0  0  0  0  0  0
   -6.7580   -8.5214   -4.8246 O   0  0  0  0  0  0  0  0  0  0  0  0
   -5.5268   -6.5074   -4.9392 C   0  0  0  0  0  0  0  0  0  0  0  0
   -3.5800   -3.3187   -4.8513 C   0  0  0  0  0  0  0  0  0  0  0  0
   -3.6731   -2.0964   -5.5268 C   0  0  0  0  0  0  0  0  0  0  0  0
   -4.4530   -1.8348   -6.7408 C   0  0  0  0  0  0  0  0  0  0  0  0
   -4.2119   -2.5723   -7.8988 C   0  0  0  0  0  0  0  0  0  0  0  0
   -4.9067   -2.2795   -9.0554 C   0  0  0  0  0  0  0  0  0  0  0  0
   -5.8339   -1.2515   -9.0697 C   0  0  0  0  0  0  0  0  0  0  0  0
   -6.0696   -0.4923   -7.9306 C   0  0  0  0  0  0  0  0  0  0  0  0
   -7.0875    0.6109   -7.9424 C   0  0  0  0  0  0  0  0  0  0  0  0
   -8.4598    0.0776   -7.5275 C   0  0  0  0  0  0  0  0  0  0  0  0
   -5.3720   -0.7926   -6.7697 C   0  0  0  0  0  0  0  0  0  0  0  0
   -2.8560   -1.1228   -4.9533 C   0  0  0  0  0  0  0  0  0  0  0  0
   -2.5649    0.5580   -5.3508 S   0  0  0  0  0  0  0  0  0  0  0  0
   -1.4571    0.6415   -4.0224 C   0  0  0  0  0  0  0  0  0  0  0  0
   -0.6550    1.5851   -3.3654 C   0  0  0  0  0  0  0  0  0  0  0  0
   -0.5149    2.9770   -3.5607 C   0  0  0  0  0  0  0  0  0  0  0  0
    0.2805    3.7303   -2.6351 C   0  0  0  0  0  0  0  0  0  0  0  0
    0.2742    5.0270   -2.9006 N   0  0  0  0  0  0  0  0  0  0  0  0
   -0.6485    5.2780   -4.2074 S   0  0  0  0  0  0  0  0  0  0  0  0
   -1.0776    3.7411   -4.4832 N   0  0  0  0  0  0  0  0  0  0  0  0
    0.9921    3.0404   -1.6291 C   0  0  0  0  0  0  0  0  0  0  0  0
    1.9261    3.4925   -0.6876 C   0  0  0  0  0  0  0  0  0  0  0  0
    2.6505    4.9764   -0.1678 S   0  0  0  0  0  0  0  0  0  0  0  0
    3.6374    4.0604    0.9525 C   0  0  0  0  0  0  0  0  0  0  0  0
    4.6202    4.4422    1.8664 C   0  0  0  0  0  0  0  0  0  0  0  0
    5.0854    5.8304    1.9395 C   0  0  0  0  0  0  0  0  0  0  0  0
    6.4271    6.1361    1.7154 C   0  0  0  0  0  0  0  0  0  0  0  0
    6.8353    7.4548    1.6934 C   0  0  0  0  0  0  0  0  0  0  0  0
    5.9156    8.4737    1.8775 C   0  0  0  0  0  0  0  0  0  0  0  0
    4.5731    8.1867    2.0853 C   0  0  0  0  0  0  0  0  0  0  0  0
    3.5554    9.2832    2.2052 C   0  0  0  0  0  0  0  0  0  0  0  0
    2.9151    9.5540    0.8418 C   0  0  0  0  0  0  0  0  0  0  0  0
    4.1690    6.8598    2.1130 C   0  0  0  0  0  0  0  0  0  0  0  0
    5.1269    3.3448    2.5737 C   0  0  0  0  0  0  0  0  0  0  0  0
    4.4416    1.8259    1.9988 S   0  0  0  0  0  0  0  0  0  0  0  0
    3.4062    2.6798    0.9127 C   0  0  0  0  0  0  0  0  0  0  0  0
    2.4250    2.3614   -0.0314 C   0  0  0  0  0  0  0  0  0  0  0  0
    1.8272    1.2334   -0.5266 N   0  0  0  0  0  0  0  0  0  0  0  0
    0.9203    1.6219   -1.4934 C   0  0  0  0  0  0  0  0  0  0  0  0
   -0.0045    0.9033   -2.2951 C   0  0  0  0  0  0  0  0  0  0  0  0
   -0.4306   -0.4155   -2.2928 N   0  0  0  0  0  0  0  0  0  0  0  0
   -1.3138   -0.5655   -3.3307 C   0  0  0  0  0  0  0  0  0  0  0  0
   -2.1198   -1.5823   -3.8538 C   0  0  0  0  0  0  0  0  0  0  0  0
   -2.3960   -3.2585   -3.5482 S   0  0  0  0  0  0  0  0  0  0  0  0
   -0.5121   -1.3608   -1.1995 C   0  0  0  0  0  0  0  0  0  0  0  0
   -1.5459   -0.9106   -0.1693 C   0  0  0  0  0  0  0  0  0  0  0  0
    2.4217   -0.0569   -0.2592 C   0  0  0  0  0  0  0  0  0  0  0  0
    2.0185   -0.6083    1.1074 C   0  0  0  0  0  0  0  0  0  0  0  0
    5.9519    3.4221    3.7208 C   0  0  0  0  0  0  0  0  0  0  0  0
    6.1828    4.9807    4.4703 S   0  0  0  0  0  0  0  0  0  0  0  0
    7.1129    4.2972    5.7804 C   0  0  0  0  0  0  0  0  0  0  0  0
    7.2865    2.9388    5.5966 C   0  0  0  0  0  0  0  0  0  0  0  0
    8.2405    2.1289    6.3869 C   0  0  0  0  0  0  0  0  0  0  0  0
    9.1941    2.6045    6.9720 O   0  0  0  0  0  0  0  0  0  0  0  0
    7.9622    0.6986    6.2915 C   0  0  0  0  0  0  0  0  0  0  0  0
    8.4151   -0.2505    7.1664 C   0  0  0  0  0  0  0  0  0  0  0  0
    9.2863   -0.0717    8.3550 C   0  0  0  0  0  0  0  0  0  0  0  0
   10.7628   -0.1762    7.9625 C   0  0  0  0  0  0  0  0  0  0  0  0
    7.8481   -1.8225    6.7086 S   0  0  0  0  0  0  0  0  0  0  0  0
    7.0164   -1.2035    5.3233 C   0  0  0  0  0  0  0  0  0  0  0  0
    6.3035   -2.1292    4.4056 C   0  0  0  0  0  0  0  0  0  0  0  0
    7.1904   -2.5005    3.2133 C   0  0  0  0  0  0  0  0  0  0  0  0
    7.1592    0.1601    5.2371 C   0  0  0  0  0  0  0  0  0  0  0  0
    6.5459    0.9935    4.2069 C   0  0  0  0  0  0  0  0  0  0  0  0
    5.9881    0.5093    3.2260 O   0  0  0  0  0  0  0  0  0  0  0  0
    6.5974    2.4250    4.4730 C   0  0  0  0  0  0  0  0  0  0  0  0
    7.5425    5.1451    6.8267 C   0  0  0  0  0  0  0  0  0  0  0  0
    7.7042    4.7916    8.1358 C   0  0  0  0  0  0  0  0  0  0  0  0
    7.1739    3.5581    8.7648 C   0  0  0  0  0  0  0  0  0  0  0  0
    6.6706    2.5888    8.2299 O   0  0  0  0  0  0  0  0  0  0  0  0
    7.3112    3.7651   10.2163 C   0  0  0  0  0  0  0  0  0  0  0  0
    6.9318    2.9332   11.2303 C   0  0  0  0  0  0  0  0  0  0  0  0
    7.1662    3.3257   12.5667 C   0  0  0  0  0  0  0  0  0  0  0  0
    6.7957    2.5060   13.6524 C   0  0  0  0  0  0  0  0  0  0  0  0
    7.0192    2.9015   14.9419 C   0  0  0  0  0  0  0  0  0  0  0  0
    7.6283    4.1422   15.1742 C   0  0  0  0  0  0  0  0  0  0  0  0
    7.8391    4.5145   16.4498 F   0  0  0  0  0  0  0  0  0  0  0  0
    8.0091    4.9741   14.1582 C   0  0  0  0  0  0  0  0  0  0  0  0
    7.7870    4.5828   12.8237 C   0  0  0  0  0  0  0  0  0  0  0  0
    8.1725    5.4212   11.7513 C   0  0  0  0  0  0  0  0  0  0  0  0
    7.9417    5.0166   10.4638 C   0  0  0  0  0  0  0  0  0  0  0  0
    8.2264    5.6496    9.1803 C   0  0  0  0  0  0  0  0  0  0  0  0
    8.9353    6.8087    9.0018 C   0  0  0  0  0  0  0  0  0  0  0  0
    9.2647    7.3751    7.7522 C   0  0  0  0  0  0  0  0  0  0  0  0
    9.5843    7.8930    6.7783 N   0  0  0  0  0  0  0  0  0  0  0  0
    9.4543    7.5844   10.0590 C   0  0  0  0  0  0  0  0  0  0  0  0
    9.8879    8.2626   10.8777 N   0  0  0  0  0  0  0  0  0  0  0  0
   -7.6753   -7.3271   -6.5555 H   0  0  0  0  0  0  0  0  0  0  0  0
  -11.9133   -5.6009   -9.3416 H   0  0  0  0  0  0  0  0  0  0  0  0
  -13.6322   -4.1814  -10.4139 H   0  0  0  0  0  0  0  0  0  0  0  0
  -14.7734   -1.9883  -10.6341 H   0  0  0  0  0  0  0  0  0  0  0  0
  -12.2758   -0.3424   -7.5901 H   0  0  0  0  0  0  0  0  0  0  0  0
  -10.5903   -1.7265   -6.4946 H   0  0  0  0  0  0  0  0  0  0  0  0
   -0.5453   -8.8703   -2.1328 H   0  0  0  0  0  0  0  0  0  0  0  0
   -0.7862   -7.2478   -2.8287 H   0  0  0  0  0  0  0  0  0  0  0  0
   -0.5064   -7.1522   -0.3570 H   0  0  0  0  0  0  0  0  0  0  0  0
   -2.0858   -6.5522   -0.8696 H   0  0  0  0  0  0  0  0  0  0  0  0
   -1.9410   -8.1657   -0.1537 H   0  0  0  0  0  0  0  0  0  0  0  0
   -5.9987  -10.7558   -4.6375 H   0  0  0  0  0  0  0  0  0  0  0  0
   -4.9545  -11.8713   -3.7202 H   0  0  0  0  0  0  0  0  0  0  0  0
   -7.2029  -11.7409   -2.6979 H   0  0  0  0  0  0  0  0  0  0  0  0
   -6.0173  -11.0305   -1.5944 H   0  0  0  0  0  0  0  0  0  0  0  0
   -7.0671   -9.9863   -2.5666 H   0  0  0  0  0  0  0  0  0  0  0  0
   -3.4764   -3.3637   -7.8846 H   0  0  0  0  0  0  0  0  0  0  0  0
   -4.7190   -2.8497   -9.9532 H   0  0  0  0  0  0  0  0  0  0  0  0
   -6.3718   -1.0273   -9.9796 H   0  0  0  0  0  0  0  0  0  0  0  0
   -6.7847    1.4001   -7.2524 H   0  0  0  0  0  0  0  0  0  0  0  0
   -7.1546    1.0382   -8.9448 H   0  0  0  0  0  0  0  0  0  0  0  0
   -9.2027    0.8703   -7.5747 H   0  0  0  0  0  0  0  0  0  0  0  0
   -8.7685   -0.7295   -8.1901 H   0  0  0  0  0  0  0  0  0  0  0  0
   -8.4239   -0.3028   -6.5091 H   0  0  0  0  0  0  0  0  0  0  0  0
   -5.5466   -0.2153   -5.8734 H   0  0  0  0  0  0  0  0  0  0  0  0
    7.1375    5.3389    1.5503 H   0  0  0  0  0  0  0  0  0  0  0  0
    7.8747    7.6913    1.5221 H   0  0  0  0  0  0  0  0  0  0  0  0
    6.2436    9.5026    1.8533 H   0  0  0  0  0  0  0  0  0  0  0  0
    4.0311   10.1952    2.5704 H   0  0  0  0  0  0  0  0  0  0  0  0
    2.7791    8.9926    2.9157 H   0  0  0  0  0  0  0  0  0  0  0  0
    3.6717    9.8636    0.1244 H   0  0  0  0  0  0  0  0  0  0  0  0
    2.1691   10.3411    0.9216 H   0  0  0  0  0  0  0  0  0  0  0  0
    2.4348    8.6545    0.4634 H   0  0  0  0  0  0  0  0  0  0  0  0
    3.1286    6.6202    2.2785 H   0  0  0  0  0  0  0  0  0  0  0  0
   -0.8176   -2.3158   -1.6346 H   0  0  0  0  0  0  0  0  0  0  0  0
    0.4536   -1.5020   -0.7259 H   0  0  0  0  0  0  0  0  0  0  0  0
   -2.5262   -0.8265   -0.6322 H   0  0  0  0  0  0  0  0  0  0  0  0
   -1.6058   -1.6359    0.6374 H   0  0  0  0  0  0  0  0  0  0  0  0
   -1.2771    0.0596    0.2446 H   0  0  0  0  0  0  0  0  0  0  0  0
    3.5093    0.0758   -0.2671 H   0  0  0  0  0  0  0  0  0  0  0  0
    2.1696   -0.7365   -1.0743 H   0  0  0  0  0  0  0  0  0  0  0  0
    2.3995   -1.6194    1.2218 H   0  0  0  0  0  0  0  0  0  0  0  0
    2.4482    0.0074    1.8926 H   0  0  0  0  0  0  0  0  0  0  0  0
    0.9395   -0.6185    1.2330 H   0  0  0  0  0  0  0  0  0  0  0  0
    9.0487   -0.8300    9.1042 H   0  0  0  0  0  0  0  0  0  0  0  0
    9.1022    0.9195    8.7744 H   0  0  0  0  0  0  0  0  0  0  0  0
   10.9688   -1.1394    7.5001 H   0  0  0  0  0  0  0  0  0  0  0  0
   11.0120    0.6160    7.2616 H   0  0  0  0  0  0  0  0  0  0  0  0
   11.3888   -0.0698    8.8442 H   0  0  0  0  0  0  0  0  0  0  0  0
    6.0189   -3.0327    4.9484 H   0  0  0  0  0  0  0  0  0  0  0  0
    5.4059   -1.6333    4.0303 H   0  0  0  0  0  0  0  0  0  0  0  0
    7.4189   -1.6101    2.6343 H   0  0  0  0  0  0  0  0  0  0  0  0
    6.6712   -3.2078    2.5723 H   0  0  0  0  0  0  0  0  0  0  0  0
    8.1197   -2.9521    3.5533 H   0  0  0  0  0  0  0  0  0  0  0  0
    7.6788    6.1838    6.5504 H   0  0  0  0  0  0  0  0  0  0  0  0
    6.4583    1.9869   11.0146 H   0  0  0  0  0  0  0  0  0  0  0  0
    6.3270    1.5551   13.4478 H   0  0  0  0  0  0  0  0  0  0  0  0
    6.7401    2.2877   15.7836 H   0  0  0  0  0  0  0  0  0  0  0  0
    8.4771    5.9217   14.3746 H   0  0  0  0  0  0  0  0  0  0  0  0
    8.6369    6.3672   11.9789 H   0  0  0  0  0  0  0  0  0  0  0  0
  1  2  2  0  0  0  0
  2  3  1  0  0  0  0
  3  4  2  0  0  0  0
  3  5  1  0  0  0  0
  5  6  2  0  0  0  0
  6  7  1  0  0  0  0
  7  8  2  0  0  0  0
  8  9  1  0  0  0  0
  9 10  2  0  0  0  0
 10 11  1  0  0  0  0
 10 12  1  0  0  0  0
 12 13  2  0  0  0  0
 13 14  1  0  0  0  0
 14 15  2  0  0  0  0
 15 16  1  0  0  0  0
 16 17  2  0  0  0  0
 17 18  1  0  0  0  0
 18 19  3  0  0  0  0
 17 20  1  0  0  0  0
 20 21  3  0  0  0  0
  1 22  1  0  0  0  0
 22 23  1  0  0  0  0
 23 24  1  0  0  0  0
 24 25  2  0  0  0  0
 25 26  1  0  0  0  0
 26 27  2  0  0  0  0
 26 28  1  0  0  0  0
 28 29  2  0  0  0  0
 29 30  1  0  0  0  0
 30 31  1  0  0  0  0
 29 32  1  0  0  0  0
 32 33  1  0  0  0  0
 33 34  1  0  0  0  0
 34 35  1  0  0  0  0
 33 36  2  0  0  0  0
 36 37  1  0  0  0  0
 37 38  2  0  0  0  0
 37 39  1  0  0  0  0
 24 40  1  0  0  0  0
 40 41  2  0  0  0  0
 41 42  1  0  0  0  0
 42 43  2  0  0  0  0
 43 44  1  0  0  0  0
 44 45  2  0  0  0  0
 45 46  1  0  0  0  0
 46 47  1  0  0  0  0
 47 48  1  0  0  0  0
 46 49  2  0  0  0  0
 41 50  1  0  0  0  0
 50 51  1  0  0  0  0
 51 52  1  0  0  0  0
 52 53  1  0  0  0  0
 53 54  1  0  0  0  0
 54 55  1  0  0  0  0
 55 56  2  0  0  0  0
 56 57  1  0  0  0  0
 57 58  1  0  0  0  0
 55 59  1  0  0  0  0
 59 60  1  0  0  0  0
 60 61  1  0  0  0  0
 61 62  1  0  0  0  0
 62 63  1  0  0  0  0
 63 64  1  0  0  0  0
 64 65  2  0  0  0  0
 65 66  1  0  0  0  0
 66 67  2  0  0  0  0
 67 68  1  0  0  0  0
 68 69  1  0  0  0  0
 69 70  1  0  0  0  0
 68 71  2  0  0  0  0
 63 72  2  0  0  0  0
 72 73  1  0  0  0  0
 73 74  1  0  0  0  0
 74 75  1  0  0  0  0
 75 76  1  0  0  0  0
 76 77  1  0  0  0  0
 77 78  1  0  0  0  0
 78 79  1  0  0  0  0
 79 80  1  0  0  0  0
 80 81  1  0  0  0  0
 81 82  1  0  0  0  0
 79 83  1  0  0  0  0
 83 84  1  0  0  0  0
 76 85  1  0  0  0  0
 85 86  1  0  0  0  0
 72 87  1  0  0  0  0
 87 88  1  0  0  0  0
 88 89  1  0  0  0  0
 89 90  2  0  0  0  0
 90 91  1  0  0  0  0
 91 92  2  0  0  0  0
 91 93  1  0  0  0  0
 93 94  2  0  0  0  0
 94 95  1  0  0  0  0
 95 96  1  0  0  0  0
 94 97  1  0  0  0  0
 97 98  1  0  0  0  0
 98 99  1  0  0  0  0
 99100  1  0  0  0  0
 98101  2  0  0  0  0
101102  1  0  0  0  0
102103  2  0  0  0  0
102104  1  0  0  0  0
 89105  1  0  0  0  0
105106  2  0  0  0  0
106107  1  0  0  0  0
107108  2  0  0  0  0
107109  1  0  0  0  0
109110  2  0  0  0  0
110111  1  0  0  0  0
111112  2  0  0  0  0
112113  1  0  0  0  0
113114  2  0  0  0  0
114115  1  0  0  0  0
114116  1  0  0  0  0
116117  2  0  0  0  0
117118  1  0  0  0  0
118119  2  0  0  0  0
119120  1  0  0  0  0
120121  2  0  0  0  0
121122  1  0  0  0  0
122123  3  0  0  0  0
121124  1  0  0  0  0
124125  3  0  0  0  0
 16  2  1  0  0  0  0
 39 22  2  0  0  0  0
 82 40  1  0  0  0  0
104 87  2  0  0  0  0
120106  1  0  0  0  0
 15  5  1  0  0  0  0
 39 25  1  0  0  0  0
 49 42  1  0  0  0  0
 81 50  2  0  0  0  0
104 90  1  0  0  0  0
119109  1  0  0  0  0
 13  7  1  0  0  0  0
 36 28  1  0  0  0  0
 80 52  2  0  0  0  0
101 93  1  0  0  0  0
117111  1  0  0  0  0
 78 53  2  0  0  0  0
 58 54  2  0  0  0  0
 77 59  2  0  0  0  0
 75 60  2  0  0  0  0
 74 62  2  0  0  0  0
 71 64  1  0  0  0  0
  1126  1  0  0  0  0
  6127  1  0  0  0  0
  8128  1  0  0  0  0
  9129  1  0  0  0  0
 12130  1  0  0  0  0
 14131  1  0  0  0  0
 30132  1  0  0  0  0
 30133  1  0  0  0  0
 31134  1  0  0  0  0
 31135  1  0  0  0  0
 31136  1  0  0  0  0
 34137  1  0  0  0  0
 34138  1  0  0  0  0
 35139  1  0  0  0  0
 35140  1  0  0  0  0
 35141  1  0  0  0  0
 43142  1  0  0  0  0
 44143  1  0  0  0  0
 45144  1  0  0  0  0
 47145  1  0  0  0  0
 47146  1  0  0  0  0
 48147  1  0  0  0  0
 48148  1  0  0  0  0
 48149  1  0  0  0  0
 49150  1  0  0  0  0
 65151  1  0  0  0  0
 66152  1  0  0  0  0
 67153  1  0  0  0  0
 69154  1  0  0  0  0
 69155  1  0  0  0  0
 70156  1  0  0  0  0
 70157  1  0  0  0  0
 70158  1  0  0  0  0
 71159  1  0  0  0  0
 83160  1  0  0  0  0
 83161  1  0  0  0  0
 84162  1  0  0  0  0
 84163  1  0  0  0  0
 84164  1  0  0  0  0
 85165  1  0  0  0  0
 85166  1  0  0  0  0
 86167  1  0  0  0  0
 86168  1  0  0  0  0
 86169  1  0  0  0  0
 95170  1  0  0  0  0
 95171  1  0  0  0  0
 96172  1  0  0  0  0
 96173  1  0  0  0  0
 96174  1  0  0  0  0
 99175  1  0  0  0  0
 99176  1  0  0  0  0
100177  1  0  0  0  0
100178  1  0  0  0  0
100179  1  0  0  0  0
105180  1  0  0  0  0
110181  1  0  0  0  0
112182  1  0  0  0  0
113183  1  0  0  0  0
116184  1  0  0  0  0
118185  1  0  0  0  0
M  END
