
  xtb     02112201113D
 energy: -263.438426762821 gnorm: 0.000641043241 xtb: 6.4.1 (unknown)
144159  0     0  0            999 V2000
   -5.5716   -5.1105   -2.4770 C   0  0  0  0  0  0  0  0  0  0  0  0
   -5.0091   -6.2479   -3.0002 C   0  0  0  0  0  0  0  0  0  0  0  0
   -5.6779   -7.1742   -3.9379 C   0  0  0  0  0  0  0  0  0  0  0  0
   -6.7633   -7.0474   -4.4676 O   0  0  0  0  0  0  0  0  0  0  0  0
   -4.7518   -8.3160   -4.0903 C   0  0  0  0  0  0  0  0  0  0  0  0
   -4.9177   -9.4584   -4.8166 C   0  0  0  0  0  0  0  0  0  0  0  0
   -3.8984  -10.4375   -4.8056 C   0  0  0  0  0  0  0  0  0  0  0  0
   -4.0184  -11.6364   -5.5367 C   0  0  0  0  0  0  0  0  0  0  0  0
   -3.0269  -12.5779   -5.5140 C   0  0  0  0  0  0  0  0  0  0  0  0
   -1.8792  -12.3345   -4.7483 C   0  0  0  0  0  0  0  0  0  0  0  0
   -0.9134  -13.2730   -4.7380 F   0  0  0  0  0  0  0  0  0  0  0  0
   -1.7118  -11.1887   -4.0216 C   0  0  0  0  0  0  0  0  0  0  0  0
   -2.7228  -10.2082   -4.0340 C   0  0  0  0  0  0  0  0  0  0  0  0
   -2.5775   -9.0114   -3.2935 C   0  0  0  0  0  0  0  0  0  0  0  0
   -3.5768   -8.0762   -3.3227 C   0  0  0  0  0  0  0  0  0  0  0  0
   -3.7030   -6.7703   -2.6790 C   0  0  0  0  0  0  0  0  0  0  0  0
   -2.7156   -6.1422   -1.9560 C   0  0  0  0  0  0  0  0  0  0  0  0
   -1.4551   -6.7116   -1.6851 C   0  0  0  0  0  0  0  0  0  0  0  0
   -0.4116   -7.1148   -1.4240 N   0  0  0  0  0  0  0  0  0  0  0  0
   -2.7799   -4.8420   -1.4187 C   0  0  0  0  0  0  0  0  0  0  0  0
   -2.7214   -3.7868   -0.9636 N   0  0  0  0  0  0  0  0  0  0  0  0
   -6.8062   -4.5458   -2.8323 C   0  0  0  0  0  0  0  0  0  0  0  0
   -7.1957   -3.3737   -2.2441 C   0  0  0  0  0  0  0  0  0  0  0  0
   -8.3564   -2.6353   -2.5363 C   0  0  0  0  0  0  0  0  0  0  0  0
   -8.6252   -1.3767   -2.0692 C   0  0  0  0  0  0  0  0  0  0  0  0
   -7.7633   -0.5033   -1.3684 C   0  0  0  0  0  0  0  0  0  0  0  0
   -8.1305    0.6768   -0.7135 C   0  0  0  0  0  0  0  0  0  0  0  0
   -9.5062    1.1277   -0.5260 C   0  0  0  0  0  0  0  0  0  0  0  0
  -10.5202    0.2369   -0.1771 C   0  0  0  0  0  0  0  0  0  0  0  0
  -11.8113    0.6975   -0.0008 C   0  0  0  0  0  0  0  0  0  0  0  0
  -12.1044    2.0401   -0.1651 C   0  0  0  0  0  0  0  0  0  0  0  0
  -11.1033    2.9461   -0.4945 C   0  0  0  0  0  0  0  0  0  0  0  0
  -11.4157    4.3993   -0.7053 C   0  0  0  0  0  0  0  0  0  0  0  0
  -11.6946    4.6771   -2.1839 C   0  0  0  0  0  0  0  0  0  0  0  0
   -9.8107    2.4790   -0.6716 C   0  0  0  0  0  0  0  0  0  0  0  0
   -7.0125    1.3651   -0.2163 C   0  0  0  0  0  0  0  0  0  0  0  0
   -6.8261    2.8212    0.7419 S   0  0  0  0  0  0  0  0  0  0  0  0
   -5.1147    2.5532    0.7812 C   0  0  0  0  0  0  0  0  0  0  0  0
   -3.9569    3.1141    1.3378 C   0  0  0  0  0  0  0  0  0  0  0  0
   -3.7943    4.1960    2.2306 C   0  0  0  0  0  0  0  0  0  0  0  0
   -2.4872    4.4747    2.7489 C   0  0  0  0  0  0  0  0  0  0  0  0
   -2.4883    5.4779    3.6124 N   0  0  0  0  0  0  0  0  0  0  0  0
   -4.0044    6.0275    3.7577 S   0  0  0  0  0  0  0  0  0  0  0  0
   -4.7184    5.0053    2.7237 N   0  0  0  0  0  0  0  0  0  0  0  0
   -1.3896    3.7306    2.2640 C   0  0  0  0  0  0  0  0  0  0  0  0
   -0.0132    3.8754    2.4922 C   0  0  0  0  0  0  0  0  0  0  0  0
    1.0676    4.8370    3.4419 S   0  0  0  0  0  0  0  0  0  0  0  0
    2.4181    4.0412    2.6690 C   0  0  0  0  0  0  0  0  0  0  0  0
    3.8155    4.1724    2.8089 C   0  0  0  0  0  0  0  0  0  0  0  0
    4.4527    5.0068    3.8257 C   0  0  0  0  0  0  0  0  0  0  0  0
    5.5427    4.5297    4.5515 C   0  0  0  0  0  0  0  0  0  0  0  0
    6.1119    5.3153    5.5341 C   0  0  0  0  0  0  0  0  0  0  0  0
    5.5999    6.5722    5.8081 C   0  0  0  0  0  0  0  0  0  0  0  0
    4.5108    7.0608    5.0985 C   0  0  0  0  0  0  0  0  0  0  0  0
    3.9082    8.3969    5.4225 C   0  0  0  0  0  0  0  0  0  0  0  0
    2.6858    8.2201    6.3258 C   0  0  0  0  0  0  0  0  0  0  0  0
    3.9454    6.2693    4.1105 C   0  0  0  0  0  0  0  0  0  0  0  0
    4.4799    3.3230    1.9431 C   0  0  0  0  0  0  0  0  0  0  0  0
    3.3929    2.3216    0.9998 S   0  0  0  0  0  0  0  0  0  0  0  0
    2.0296    3.0791    1.7343 C   0  0  0  0  0  0  0  0  0  0  0  0
    0.6348    2.9759    1.6426 C   0  0  0  0  0  0  0  0  0  0  0  0
   -0.2834    2.2532    0.9333 N   0  0  0  0  0  0  0  0  0  0  0  0
   -1.5445    2.6925    1.2999 C   0  0  0  0  0  0  0  0  0  0  0  0
   -2.8575    2.3076    0.9156 C   0  0  0  0  0  0  0  0  0  0  0  0
   -3.3528    1.2667    0.1498 N   0  0  0  0  0  0  0  0  0  0  0  0
   -4.7103    1.4145    0.0781 C   0  0  0  0  0  0  0  0  0  0  0  0
   -5.7920    0.7345   -0.4850 C   0  0  0  0  0  0  0  0  0  0  0  0
   -6.0142   -0.7250   -1.3655 S   0  0  0  0  0  0  0  0  0  0  0  0
   -2.7648   -0.0036   -0.2230 C   0  0  0  0  0  0  0  0  0  0  0  0
   -2.3366   -0.8153    0.9947 C   0  0  0  0  0  0  0  0  0  0  0  0
    0.1461    1.4790   -0.2092 C   0  0  0  0  0  0  0  0  0  0  0  0
   -0.2630    2.1444   -1.5209 C   0  0  0  0  0  0  0  0  0  0  0  0
    5.8973    3.2429    1.6732 C   0  0  0  0  0  0  0  0  0  0  0  0
    6.7025    4.3884    1.5930 C   0  0  0  0  0  0  0  0  0  0  0  0
    6.1550    5.6012    1.7488 F   0  0  0  0  0  0  0  0  0  0  0  0
    8.0520    4.3029    1.3034 C   0  0  0  0  0  0  0  0  0  0  0  0
    8.7796    5.4256    1.2232 F   0  0  0  0  0  0  0  0  0  0  0  0
    8.6704    3.0825    1.0196 C   0  0  0  0  0  0  0  0  0  0  0  0
    7.8730    1.9363    1.1031 C   0  0  0  0  0  0  0  0  0  0  0  0
    8.4318    0.7330    0.9404 F   0  0  0  0  0  0  0  0  0  0  0  0
    6.5313    2.0168    1.4243 C   0  0  0  0  0  0  0  0  0  0  0  0
    5.8224    0.8829    1.5266 F   0  0  0  0  0  0  0  0  0  0  0  0
   10.0783    3.0218    0.6692 C   0  0  0  0  0  0  0  0  0  0  0  0
   10.5508    2.3248   -0.3844 C   0  0  0  0  0  0  0  0  0  0  0  0
    9.6863    1.7908   -1.4861 C   0  0  0  0  0  0  0  0  0  0  0  0
    8.4800    1.8314   -1.5560 O   0  0  0  0  0  0  0  0  0  0  0  0
   10.6239    1.3160   -2.5164 C   0  0  0  0  0  0  0  0  0  0  0  0
   10.3302    0.7568   -3.7436 C   0  0  0  0  0  0  0  0  0  0  0  0
   11.3763    0.3852   -4.5846 C   0  0  0  0  0  0  0  0  0  0  0  0
   11.0988   -0.2511   -5.9079 C   0  0  0  0  0  0  0  0  0  0  0  0
   12.6894    0.5975   -4.1637 C   0  0  0  0  0  0  0  0  0  0  0  0
   12.9929    1.1612   -2.9350 C   0  0  0  0  0  0  0  0  0  0  0  0
   11.9501    1.5254   -2.0939 C   0  0  0  0  0  0  0  0  0  0  0  0
   11.9436    2.1197   -0.7655 C   0  0  0  0  0  0  0  0  0  0  0  0
   13.0367    2.3676    0.0164 C   0  0  0  0  0  0  0  0  0  0  0  0
   12.9857    2.8715    1.3347 C   0  0  0  0  0  0  0  0  0  0  0  0
   13.0156    3.2576    2.4149 N   0  0  0  0  0  0  0  0  0  0  0  0
   14.3684    2.1255   -0.3858 C   0  0  0  0  0  0  0  0  0  0  0  0
   15.4703    1.9595   -0.6591 N   0  0  0  0  0  0  0  0  0  0  0  0
   -5.0074   -4.5749   -1.7225 H   0  0  0  0  0  0  0  0  0  0  0  0
   -5.8173   -9.6153   -5.3930 H   0  0  0  0  0  0  0  0  0  0  0  0
   -4.9126  -11.8014   -6.1188 H   0  0  0  0  0  0  0  0  0  0  0  0
   -3.1036  -13.5006   -6.0671 H   0  0  0  0  0  0  0  0  0  0  0  0
   -0.8137  -11.0342   -3.4440 H   0  0  0  0  0  0  0  0  0  0  0  0
   -1.6772   -8.8698   -2.7174 H   0  0  0  0  0  0  0  0  0  0  0  0
   -7.4029   -5.0168   -3.5987 H   0  0  0  0  0  0  0  0  0  0  0  0
   -6.5408   -2.9886   -1.4739 H   0  0  0  0  0  0  0  0  0  0  0  0
   -9.0997   -3.1087   -3.1637 H   0  0  0  0  0  0  0  0  0  0  0  0
   -9.6046   -0.9620   -2.2761 H   0  0  0  0  0  0  0  0  0  0  0  0
  -10.2877   -0.8046   -0.0114 H   0  0  0  0  0  0  0  0  0  0  0  0
  -12.5935    0.0048    0.2729 H   0  0  0  0  0  0  0  0  0  0  0  0
  -13.1166    2.3908   -0.0253 H   0  0  0  0  0  0  0  0  0  0  0  0
  -12.2900    4.6793   -0.1148 H   0  0  0  0  0  0  0  0  0  0  0  0
  -10.5710    5.0081   -0.3774 H   0  0  0  0  0  0  0  0  0  0  0  0
  -12.5410    4.0863   -2.5276 H   0  0  0  0  0  0  0  0  0  0  0  0
  -11.9211    5.7295   -2.3364 H   0  0  0  0  0  0  0  0  0  0  0  0
  -10.8283    4.4173   -2.7882 H   0  0  0  0  0  0  0  0  0  0  0  0
   -9.0277    3.1725   -0.9414 H   0  0  0  0  0  0  0  0  0  0  0  0
    5.9269    3.5383    4.3580 H   0  0  0  0  0  0  0  0  0  0  0  0
    6.9565    4.9428    6.0949 H   0  0  0  0  0  0  0  0  0  0  0  0
    6.0505    7.1784    6.5806 H   0  0  0  0  0  0  0  0  0  0  0  0
    3.6043    8.8971    4.5009 H   0  0  0  0  0  0  0  0  0  0  0  0
    4.6447    9.0250    5.9266 H   0  0  0  0  0  0  0  0  0  0  0  0
    2.2442    9.1857    6.5608 H   0  0  0  0  0  0  0  0  0  0  0  0
    1.9363    7.6048    5.8333 H   0  0  0  0  0  0  0  0  0  0  0  0
    2.9708    7.7330    7.2558 H   0  0  0  0  0  0  0  0  0  0  0  0
    3.1113    6.6483    3.5390 H   0  0  0  0  0  0  0  0  0  0  0  0
   -3.5375   -0.5600   -0.7576 H   0  0  0  0  0  0  0  0  0  0  0  0
   -1.9420    0.1407   -0.9218 H   0  0  0  0  0  0  0  0  0  0  0  0
   -1.9755   -1.7859    0.6668 H   0  0  0  0  0  0  0  0  0  0  0  0
   -3.1881   -0.9706    1.6534 H   0  0  0  0  0  0  0  0  0  0  0  0
   -1.5565   -0.3112    1.5607 H   0  0  0  0  0  0  0  0  0  0  0  0
    1.2364    1.4277   -0.1581 H   0  0  0  0  0  0  0  0  0  0  0  0
   -0.2241    0.4562   -0.1418 H   0  0  0  0  0  0  0  0  0  0  0  0
    0.2091    3.1206   -1.6050 H   0  0  0  0  0  0  0  0  0  0  0  0
    0.0550    1.5327   -2.3607 H   0  0  0  0  0  0  0  0  0  0  0  0
   -1.3404    2.2837   -1.5736 H   0  0  0  0  0  0  0  0  0  0  0  0
   10.7424    3.6088    1.2903 H   0  0  0  0  0  0  0  0  0  0  0  0
    9.3004    0.6115   -4.0335 H   0  0  0  0  0  0  0  0  0  0  0  0
   11.1051   -1.3366   -5.8015 H   0  0  0  0  0  0  0  0  0  0  0  0
   11.8599    0.0171   -6.6367 H   0  0  0  0  0  0  0  0  0  0  0  0
   10.1225    0.0437   -6.2840 H   0  0  0  0  0  0  0  0  0  0  0  0
   13.4988    0.3138   -4.8205 H   0  0  0  0  0  0  0  0  0  0  0  0
   14.0223    1.3136   -2.6544 H   0  0  0  0  0  0  0  0  0  0  0  0
  1  2  2  0  0  0  0
  2  3  1  0  0  0  0
  3  4  2  0  0  0  0
  3  5  1  0  0  0  0
  5  6  2  0  0  0  0
  6  7  1  0  0  0  0
  7  8  2  0  0  0  0
  8  9  1  0  0  0  0
  9 10  2  0  0  0  0
 10 11  1  0  0  0  0
 10 12  1  0  0  0  0
 12 13  2  0  0  0  0
 13 14  1  0  0  0  0
 14 15  2  0  0  0  0
 15 16  1  0  0  0  0
 16 17  2  0  0  0  0
 17 18  1  0  0  0  0
 18 19  3  0  0  0  0
 17 20  1  0  0  0  0
 20 21  3  0  0  0  0
  1 22  1  0  0  0  0
 22 23  2  0  0  0  0
 23 24  1  0  0  0  0
 24 25  2  0  0  0  0
 25 26  1  0  0  0  0
 26 27  2  0  0  0  0
 27 28  1  0  0  0  0
 28 29  2  0  0  0  0
 29 30  1  0  0  0  0
 30 31  2  0  0  0  0
 31 32  1  0  0  0  0
 32 33  1  0  0  0  0
 33 34  1  0  0  0  0
 32 35  2  0  0  0  0
 27 36  1  0  0  0  0
 36 37  1  0  0  0  0
 37 38  1  0  0  0  0
 38 39  1  0  0  0  0
 39 40  1  0  0  0  0
 40 41  1  0  0  0  0
 41 42  2  0  0  0  0
 42 43  1  0  0  0  0
 43 44  1  0  0  0  0
 41 45  1  0  0  0  0
 45 46  1  0  0  0  0
 46 47  1  0  0  0  0
 47 48  1  0  0  0  0
 48 49  1  0  0  0  0
 49 50  1  0  0  0  0
 50 51  2  0  0  0  0
 51 52  1  0  0  0  0
 52 53  2  0  0  0  0
 53 54  1  0  0  0  0
 54 55  1  0  0  0  0
 55 56  1  0  0  0  0
 54 57  2  0  0  0  0
 49 58  2  0  0  0  0
 58 59  1  0  0  0  0
 59 60  1  0  0  0  0
 60 61  1  0  0  0  0
 61 62  1  0  0  0  0
 62 63  1  0  0  0  0
 63 64  1  0  0  0  0
 64 65  1  0  0  0  0
 65 66  1  0  0  0  0
 66 67  1  0  0  0  0
 67 68  1  0  0  0  0
 65 69  1  0  0  0  0
 69 70  1  0  0  0  0
 62 71  1  0  0  0  0
 71 72  1  0  0  0  0
 58 73  1  0  0  0  0
 73 74  2  0  0  0  0
 74 75  1  0  0  0  0
 74 76  1  0  0  0  0
 76 77  1  0  0  0  0
 76 78  2  0  0  0  0
 78 79  1  0  0  0  0
 79 80  1  0  0  0  0
 79 81  2  0  0  0  0
 81 82  1  0  0  0  0
 78 83  1  0  0  0  0
 83 84  2  0  0  0  0
 84 85  1  0  0  0  0
 85 86  2  0  0  0  0
 85 87  1  0  0  0  0
 87 88  2  0  0  0  0
 88 89  1  0  0  0  0
 89 90  1  0  0  0  0
 89 91  2  0  0  0  0
 91 92  1  0  0  0  0
 92 93  2  0  0  0  0
 93 94  1  0  0  0  0
 94 95  2  0  0  0  0
 95 96  1  0  0  0  0
 96 97  3  0  0  0  0
 95 98  1  0  0  0  0
 98 99  3  0  0  0  0
 16  2  1  0  0  0  0
 68 26  1  0  0  0  0
 81 73  1  0  0  0  0
 94 84  1  0  0  0  0
 15  5  1  0  0  0  0
 35 28  1  0  0  0  0
 67 36  2  0  0  0  0
 93 87  1  0  0  0  0
 13  7  1  0  0  0  0
 66 38  2  0  0  0  0
 64 39  2  0  0  0  0
 44 40  2  0  0  0  0
 63 45  2  0  0  0  0
 61 46  2  0  0  0  0
 60 48  2  0  0  0  0
 57 50  1  0  0  0  0
  1100  1  0  0  0  0
  6101  1  0  0  0  0
  8102  1  0  0  0  0
  9103  1  0  0  0  0
 12104  1  0  0  0  0
 14105  1  0  0  0  0
 22106  1  0  0  0  0
 23107  1  0  0  0  0
 24108  1  0  0  0  0
 25109  1  0  0  0  0
 29110  1  0  0  0  0
 30111  1  0  0  0  0
 31112  1  0  0  0  0
 33113  1  0  0  0  0
 33114  1  0  0  0  0
 34115  1  0  0  0  0
 34116  1  0  0  0  0
 34117  1  0  0  0  0
 35118  1  0  0  0  0
 51119  1  0  0  0  0
 52120  1  0  0  0  0
 53121  1  0  0  0  0
 55122  1  0  0  0  0
 55123  1  0  0  0  0
 56124  1  0  0  0  0
 56125  1  0  0  0  0
 56126  1  0  0  0  0
 57127  1  0  0  0  0
 69128  1  0  0  0  0
 69129  1  0  0  0  0
 70130  1  0  0  0  0
 70131  1  0  0  0  0
 70132  1  0  0  0  0
 71133  1  0  0  0  0
 71134  1  0  0  0  0
 72135  1  0  0  0  0
 72136  1  0  0  0  0
 72137  1  0  0  0  0
 83138  1  0  0  0  0
 88139  1  0  0  0  0
 90140  1  0  0  0  0
 90141  1  0  0  0  0
 90142  1  0  0  0  0
 91143  1  0  0  0  0
 92144  1  0  0  0  0
M  END
