
  xtb     02102222413D
 energy: -242.227473219607 gnorm: 0.000834719298 xtb: 6.4.1 (unknown)
142156  0     0  0            999 V2000
    2.8364   -2.7840    4.3149 C   0  0  0  0  0  0  0  0  0  0  0  0
    3.4510   -3.6304    3.4288 C   0  0  0  0  0  0  0  0  0  0  0  0
    4.9097   -3.6711    3.1685 C   0  0  0  0  0  0  0  0  0  0  0  0
    5.7934   -3.1154    3.7882 O   0  0  0  0  0  0  0  0  0  0  0  0
    5.0742   -4.5261    1.9757 C   0  0  0  0  0  0  0  0  0  0  0  0
    6.2170   -4.8396    1.2998 C   0  0  0  0  0  0  0  0  0  0  0  0
    6.1353   -5.6559    0.1490 C   0  0  0  0  0  0  0  0  0  0  0  0
    7.2828   -6.0019   -0.5928 C   0  0  0  0  0  0  0  0  0  0  0  0
    7.1906   -6.7860   -1.7092 C   0  0  0  0  0  0  0  0  0  0  0  0
    5.9298   -7.2459   -2.1121 C   0  0  0  0  0  0  0  0  0  0  0  0
    5.8600   -8.0186   -3.2126 F   0  0  0  0  0  0  0  0  0  0  0  0
    4.7858   -6.9411   -1.4288 C   0  0  0  0  0  0  0  0  0  0  0  0
    4.8624   -6.1357   -0.2758 C   0  0  0  0  0  0  0  0  0  0  0  0
    3.6970   -5.8047    0.4532 C   0  0  0  0  0  0  0  0  0  0  0  0
    3.8009   -5.0080    1.5614 C   0  0  0  0  0  0  0  0  0  0  0  0
    2.7902   -4.5012    2.4823 C   0  0  0  0  0  0  0  0  0  0  0  0
    1.4519   -4.8100    2.4351 C   0  0  0  0  0  0  0  0  0  0  0  0
    0.8435   -5.5787    1.4238 C   0  0  0  0  0  0  0  0  0  0  0  0
    0.2597   -6.1629    0.6244 N   0  0  0  0  0  0  0  0  0  0  0  0
    0.4889   -4.3906    3.3705 C   0  0  0  0  0  0  0  0  0  0  0  0
   -0.3620   -4.0986    4.0875 N   0  0  0  0  0  0  0  0  0  0  0  0
    3.4750   -1.8004    5.0958 C   0  0  0  0  0  0  0  0  0  0  0  0
    2.7425   -0.7877    5.6428 C   0  0  0  0  0  0  0  0  0  0  0  0
    3.2901    0.3785    6.2324 C   0  0  0  0  0  0  0  0  0  0  0  0
    2.7409    1.6261    6.1837 C   0  0  0  0  0  0  0  0  0  0  0  0
    1.6532    2.0657    5.3899 C   0  0  0  0  0  0  0  0  0  0  0  0
    1.3245    3.4010    5.1328 C   0  0  0  0  0  0  0  0  0  0  0  0
    1.8479    4.5457    5.8736 C   0  0  0  0  0  0  0  0  0  0  0  0
    1.9092    4.5312    7.2665 C   0  0  0  0  0  0  0  0  0  0  0  0
    2.3758    5.6399    7.9465 C   0  0  0  0  0  0  0  0  0  0  0  0
    2.7788    6.7686    7.2533 C   0  0  0  0  0  0  0  0  0  0  0  0
    2.7202    6.8029    5.8658 C   0  0  0  0  0  0  0  0  0  0  0  0
    3.0970    8.0383    5.1009 C   0  0  0  0  0  0  0  0  0  0  0  0
    1.8436    8.8381    4.7396 C   0  0  0  0  0  0  0  0  0  0  0  0
    2.2532    5.6872    5.1886 C   0  0  0  0  0  0  0  0  0  0  0  0
    0.4372    3.5185    4.0482 C   0  0  0  0  0  0  0  0  0  0  0  0
   -0.1859    4.8749    3.1245 S   0  0  0  0  0  0  0  0  0  0  0  0
   -0.9387    3.7690    2.0198 C   0  0  0  0  0  0  0  0  0  0  0  0
   -1.5847    3.7654    0.7674 C   0  0  0  0  0  0  0  0  0  0  0  0
   -2.0102    4.7829   -0.1163 C   0  0  0  0  0  0  0  0  0  0  0  0
   -2.5599    4.4201   -1.3988 C   0  0  0  0  0  0  0  0  0  0  0  0
   -2.9268    5.4783   -2.1037 N   0  0  0  0  0  0  0  0  0  0  0  0
   -2.6112    6.8107   -1.2423 S   0  0  0  0  0  0  0  0  0  0  0  0
   -1.9873    6.0931    0.0680 N   0  0  0  0  0  0  0  0  0  0  0  0
   -2.5674    3.0619   -1.7938 C   0  0  0  0  0  0  0  0  0  0  0  0
   -2.7816    2.4274   -3.0332 C   0  0  0  0  0  0  0  0  0  0  0  0
   -3.1635    2.8169   -4.6811 S   0  0  0  0  0  0  0  0  0  0  0  0
   -2.8579    1.1530   -5.1391 C   0  0  0  0  0  0  0  0  0  0  0  0
   -2.8617    0.4524   -6.3659 C   0  0  0  0  0  0  0  0  0  0  0  0
   -3.1704    1.0636   -7.6563 C   0  0  0  0  0  0  0  0  0  0  0  0
   -3.9216    0.3859   -8.6146 C   0  0  0  0  0  0  0  0  0  0  0  0
   -4.2009    0.9895   -9.8262 C   0  0  0  0  0  0  0  0  0  0  0  0
   -3.7401    2.2664  -10.0948 C   0  0  0  0  0  0  0  0  0  0  0  0
   -2.9995    2.9626   -9.1471 C   0  0  0  0  0  0  0  0  0  0  0  0
   -2.4625    4.3334   -9.4421 C   0  0  0  0  0  0  0  0  0  0  0  0
   -1.0662    4.2381  -10.0601 C   0  0  0  0  0  0  0  0  0  0  0  0
   -2.7212    2.3519   -7.9349 C   0  0  0  0  0  0  0  0  0  0  0  0
   -2.5515   -0.8890   -6.1898 C   0  0  0  0  0  0  0  0  0  0  0  0
   -2.2661   -1.2848   -4.5094 S   0  0  0  0  0  0  0  0  0  0  0  0
   -2.5192    0.3545   -4.0486 C   0  0  0  0  0  0  0  0  0  0  0  0
   -2.4568    1.0808   -2.8556 C   0  0  0  0  0  0  0  0  0  0  0  0
   -2.0735    0.8384   -1.5637 N   0  0  0  0  0  0  0  0  0  0  0  0
   -2.1356    2.0501   -0.8950 C   0  0  0  0  0  0  0  0  0  0  0  0
   -1.7669    2.3993    0.4211 C   0  0  0  0  0  0  0  0  0  0  0  0
   -1.3332    1.5990    1.4599 N   0  0  0  0  0  0  0  0  0  0  0  0
   -0.7780    2.4309    2.3975 C   0  0  0  0  0  0  0  0  0  0  0  0
    0.0235    2.2896    3.5285 C   0  0  0  0  0  0  0  0  0  0  0  0
    0.7626    0.9665    4.3415 S   0  0  0  0  0  0  0  0  0  0  0  0
   -1.8476    0.2945    1.8209 C   0  0  0  0  0  0  0  0  0  0  0  0
   -2.6438    0.3377    3.1237 C   0  0  0  0  0  0  0  0  0  0  0  0
   -1.2143   -0.2978   -1.2936 C   0  0  0  0  0  0  0  0  0  0  0  0
    0.2478    0.1182   -1.1637 C   0  0  0  0  0  0  0  0  0  0  0  0
   -2.3131   -1.8360   -7.2418 C   0  0  0  0  0  0  0  0  0  0  0  0
   -2.5787   -3.1537   -7.3349 C   0  0  0  0  0  0  0  0  0  0  0  0
   -3.3180   -4.0519   -6.4793 C   0  0  0  0  0  0  0  0  0  0  0  0
   -3.1870   -4.4133   -5.1847 C   0  0  0  0  0  0  0  0  0  0  0  0
   -2.0990   -4.1109   -4.3188 C   0  0  0  0  0  0  0  0  0  0  0  0
   -2.1688   -4.2205   -2.9608 C   0  0  0  0  0  0  0  0  0  0  0  0
   -3.4164   -4.5080   -2.2022 C   0  0  0  0  0  0  0  0  0  0  0  0
   -4.4767   -4.9126   -2.6273 O   0  0  0  0  0  0  0  0  0  0  0  0
   -3.1136   -4.1537   -0.8009 C   0  0  0  0  0  0  0  0  0  0  0  0
   -3.9643   -4.1462    0.2841 C   0  0  0  0  0  0  0  0  0  0  0  0
   -3.4836   -3.7036    1.5150 C   0  0  0  0  0  0  0  0  0  0  0  0
   -4.3748   -3.6775    2.7148 C   0  0  0  0  0  0  0  0  0  0  0  0
   -2.1649   -3.2655    1.6065 C   0  0  0  0  0  0  0  0  0  0  0  0
   -1.2996   -3.2897    0.5234 C   0  0  0  0  0  0  0  0  0  0  0  0
   -1.7716   -3.7507   -0.6961 C   0  0  0  0  0  0  0  0  0  0  0  0
   -1.1334   -3.8872   -1.9994 C   0  0  0  0  0  0  0  0  0  0  0  0
    0.2101   -3.7679   -2.2419 C   0  0  0  0  0  0  0  0  0  0  0  0
    1.1618   -3.4809   -1.2450 C   0  0  0  0  0  0  0  0  0  0  0  0
    1.9825   -3.2388   -0.4772 N   0  0  0  0  0  0  0  0  0  0  0  0
    0.8184   -3.9492   -3.5013 C   0  0  0  0  0  0  0  0  0  0  0  0
    1.3803   -4.0858   -4.4932 N   0  0  0  0  0  0  0  0  0  0  0  0
    1.7539   -2.7874    4.3546 H   0  0  0  0  0  0  0  0  0  0  0  0
    7.1729   -4.4647    1.6344 H   0  0  0  0  0  0  0  0  0  0  0  0
    8.2433   -5.6343   -0.2638 H   0  0  0  0  0  0  0  0  0  0  0  0
    8.0586   -7.0588   -2.2884 H   0  0  0  0  0  0  0  0  0  0  0  0
    3.8312   -7.3107   -1.7695 H   0  0  0  0  0  0  0  0  0  0  0  0
    2.7486   -6.1840    0.1086 H   0  0  0  0  0  0  0  0  0  0  0  0
    4.5539   -1.7853    5.1369 H   0  0  0  0  0  0  0  0  0  0  0  0
    1.6645   -0.8506    5.5585 H   0  0  0  0  0  0  0  0  0  0  0  0
    4.2696    0.2847    6.6827 H   0  0  0  0  0  0  0  0  0  0  0  0
    3.2716    2.4273    6.6822 H   0  0  0  0  0  0  0  0  0  0  0  0
    1.5630    3.6648    7.8106 H   0  0  0  0  0  0  0  0  0  0  0  0
    2.4186    5.6270    9.0257 H   0  0  0  0  0  0  0  0  0  0  0  0
    3.1386    7.6318    7.7943 H   0  0  0  0  0  0  0  0  0  0  0  0
    3.6205    7.7594    4.1841 H   0  0  0  0  0  0  0  0  0  0  0  0
    3.7642    8.6595    5.7012 H   0  0  0  0  0  0  0  0  0  0  0  0
    1.1730    8.2365    4.1302 H   0  0  0  0  0  0  0  0  0  0  0  0
    2.1115    9.7329    4.1830 H   0  0  0  0  0  0  0  0  0  0  0  0
    1.3124    9.1355    5.6411 H   0  0  0  0  0  0  0  0  0  0  0  0
    2.2193    5.6986    4.1092 H   0  0  0  0  0  0  0  0  0  0  0  0
   -4.3075   -0.5986   -8.3953 H   0  0  0  0  0  0  0  0  0  0  0  0
   -4.7874    0.4622  -10.5642 H   0  0  0  0  0  0  0  0  0  0  0  0
   -3.9644    2.7313  -11.0439 H   0  0  0  0  0  0  0  0  0  0  0  0
   -2.4092    4.9135   -8.5189 H   0  0  0  0  0  0  0  0  0  0  0  0
   -3.1285    4.8511  -10.1348 H   0  0  0  0  0  0  0  0  0  0  0  0
   -0.6723    5.2308  -10.2642 H   0  0  0  0  0  0  0  0  0  0  0  0
   -0.3865    3.7278   -9.3813 H   0  0  0  0  0  0  0  0  0  0  0  0
   -1.1012    3.6795  -10.9929 H   0  0  0  0  0  0  0  0  0  0  0  0
   -2.1341    2.8803   -7.1984 H   0  0  0  0  0  0  0  0  0  0  0  0
   -1.0165   -0.4119    1.9191 H   0  0  0  0  0  0  0  0  0  0  0  0
   -2.5210   -0.0310    1.0290 H   0  0  0  0  0  0  0  0  0  0  0  0
   -3.4333    1.0836    3.0595 H   0  0  0  0  0  0  0  0  0  0  0  0
   -3.0952   -0.6352    3.2965 H   0  0  0  0  0  0  0  0  0  0  0  0
   -2.0063    0.5744    3.9702 H   0  0  0  0  0  0  0  0  0  0  0  0
   -1.3273   -0.9746   -2.1440 H   0  0  0  0  0  0  0  0  0  0  0  0
   -1.5360   -0.8418   -0.4066 H   0  0  0  0  0  0  0  0  0  0  0  0
    0.8697   -0.7582   -1.0032 H   0  0  0  0  0  0  0  0  0  0  0  0
    0.5787    0.6172   -2.0718 H   0  0  0  0  0  0  0  0  0  0  0  0
    0.3856    0.7974   -0.3266 H   0  0  0  0  0  0  0  0  0  0  0  0
   -1.9101   -1.3638   -8.1325 H   0  0  0  0  0  0  0  0  0  0  0  0
   -2.3758   -3.5962   -8.3059 H   0  0  0  0  0  0  0  0  0  0  0  0
   -4.1302   -4.5305   -7.0217 H   0  0  0  0  0  0  0  0  0  0  0  0
   -3.9674   -5.0290   -4.7598 H   0  0  0  0  0  0  0  0  0  0  0  0
   -1.1793   -3.7742   -4.7818 H   0  0  0  0  0  0  0  0  0  0  0  0
   -4.9848   -4.4803    0.1706 H   0  0  0  0  0  0  0  0  0  0  0  0
   -3.7895   -3.6283    3.6292 H   0  0  0  0  0  0  0  0  0  0  0  0
   -5.0322   -2.8078    2.6750 H   0  0  0  0  0  0  0  0  0  0  0  0
   -5.0029   -4.5649    2.7430 H   0  0  0  0  0  0  0  0  0  0  0  0
   -1.7997   -2.9180    2.5613 H   0  0  0  0  0  0  0  0  0  0  0  0
   -0.2832   -2.9479    0.6409 H   0  0  0  0  0  0  0  0  0  0  0  0
  1  2  2  0  0  0  0
  2  3  1  0  0  0  0
  3  4  2  0  0  0  0
  3  5  1  0  0  0  0
  5  6  2  0  0  0  0
  6  7  1  0  0  0  0
  7  8  2  0  0  0  0
  8  9  1  0  0  0  0
  9 10  2  0  0  0  0
 10 11  1  0  0  0  0
 10 12  1  0  0  0  0
 12 13  2  0  0  0  0
 13 14  1  0  0  0  0
 14 15  2  0  0  0  0
 15 16  1  0  0  0  0
 16 17  2  0  0  0  0
 17 18  1  0  0  0  0
 18 19  3  0  0  0  0
 17 20  1  0  0  0  0
 20 21  3  0  0  0  0
  1 22  1  0  0  0  0
 22 23  2  0  0  0  0
 23 24  1  0  0  0  0
 24 25  2  0  0  0  0
 25 26  1  0  0  0  0
 26 27  2  0  0  0  0
 27 28  1  0  0  0  0
 28 29  2  0  0  0  0
 29 30  1  0  0  0  0
 30 31  2  0  0  0  0
 31 32  1  0  0  0  0
 32 33  1  0  0  0  0
 33 34  1  0  0  0  0
 32 35  2  0  0  0  0
 27 36  1  0  0  0  0
 36 37  1  0  0  0  0
 37 38  1  0  0  0  0
 38 39  1  0  0  0  0
 39 40  1  0  0  0  0
 40 41  1  0  0  0  0
 41 42  2  0  0  0  0
 42 43  1  0  0  0  0
 43 44  1  0  0  0  0
 41 45  1  0  0  0  0
 45 46  1  0  0  0  0
 46 47  1  0  0  0  0
 47 48  1  0  0  0  0
 48 49  1  0  0  0  0
 49 50  1  0  0  0  0
 50 51  2  0  0  0  0
 51 52  1  0  0  0  0
 52 53  2  0  0  0  0
 53 54  1  0  0  0  0
 54 55  1  0  0  0  0
 55 56  1  0  0  0  0
 54 57  2  0  0  0  0
 49 58  2  0  0  0  0
 58 59  1  0  0  0  0
 59 60  1  0  0  0  0
 60 61  1  0  0  0  0
 61 62  1  0  0  0  0
 62 63  1  0  0  0  0
 63 64  1  0  0  0  0
 64 65  1  0  0  0  0
 65 66  1  0  0  0  0
 66 67  1  0  0  0  0
 67 68  1  0  0  0  0
 65 69  1  0  0  0  0
 69 70  1  0  0  0  0
 62 71  1  0  0  0  0
 71 72  1  0  0  0  0
 58 73  1  0  0  0  0
 73 74  2  0  0  0  0
 74 75  1  0  0  0  0
 75 76  2  0  0  0  0
 76 77  1  0  0  0  0
 77 78  2  0  0  0  0
 78 79  1  0  0  0  0
 79 80  2  0  0  0  0
 79 81  1  0  0  0  0
 81 82  2  0  0  0  0
 82 83  1  0  0  0  0
 83 84  1  0  0  0  0
 83 85  2  0  0  0  0
 85 86  1  0  0  0  0
 86 87  2  0  0  0  0
 87 88  1  0  0  0  0
 88 89  2  0  0  0  0
 89 90  1  0  0  0  0
 90 91  3  0  0  0  0
 89 92  1  0  0  0  0
 92 93  3  0  0  0  0
 16  2  1  0  0  0  0
 68 26  1  0  0  0  0
 88 78  1  0  0  0  0
 15  5  1  0  0  0  0
 35 28  1  0  0  0  0
 67 36  2  0  0  0  0
 87 81  1  0  0  0  0
 13  7  1  0  0  0  0
 66 38  2  0  0  0  0
 64 39  2  0  0  0  0
 44 40  2  0  0  0  0
 63 45  2  0  0  0  0
 61 46  2  0  0  0  0
 60 48  2  0  0  0  0
 57 50  1  0  0  0  0
  1 94  1  0  0  0  0
  6 95  1  0  0  0  0
  8 96  1  0  0  0  0
  9 97  1  0  0  0  0
 12 98  1  0  0  0  0
 14 99  1  0  0  0  0
 22100  1  0  0  0  0
 23101  1  0  0  0  0
 24102  1  0  0  0  0
 25103  1  0  0  0  0
 29104  1  0  0  0  0
 30105  1  0  0  0  0
 31106  1  0  0  0  0
 33107  1  0  0  0  0
 33108  1  0  0  0  0
 34109  1  0  0  0  0
 34110  1  0  0  0  0
 34111  1  0  0  0  0
 35112  1  0  0  0  0
 51113  1  0  0  0  0
 52114  1  0  0  0  0
 53115  1  0  0  0  0
 55116  1  0  0  0  0
 55117  1  0  0  0  0
 56118  1  0  0  0  0
 56119  1  0  0  0  0
 56120  1  0  0  0  0
 57121  1  0  0  0  0
 69122  1  0  0  0  0
 69123  1  0  0  0  0
 70124  1  0  0  0  0
 70125  1  0  0  0  0
 70126  1  0  0  0  0
 71127  1  0  0  0  0
 71128  1  0  0  0  0
 72129  1  0  0  0  0
 72130  1  0  0  0  0
 72131  1  0  0  0  0
 73132  1  0  0  0  0
 74133  1  0  0  0  0
 75134  1  0  0  0  0
 76135  1  0  0  0  0
 77136  1  0  0  0  0
 82137  1  0  0  0  0
 84138  1  0  0  0  0
 84139  1  0  0  0  0
 84140  1  0  0  0  0
 85141  1  0  0  0  0
 86142  1  0  0  0  0
M  END
