
  xtb     02072206183D
 energy: -358.109356806932 gnorm: 0.000758811677 xtb: 6.4.1 (unknown)
207231  0     0  0            999 V2000
    7.2539   -5.5486   10.7848 C   0  0  0  0  0  0  0  0  0  0  0  0
    8.5096   -5.0331   10.9705 C   0  0  0  0  0  0  0  0  0  0  0  0
    9.0069   -3.7502   10.4463 C   0  0  0  0  0  0  0  0  0  0  0  0
    8.3972   -2.9208    9.7984 O   0  0  0  0  0  0  0  0  0  0  0  0
   10.4154   -3.6566   10.8680 C   0  0  0  0  0  0  0  0  0  0  0  0
   11.3150   -2.6617   10.6176 C   0  0  0  0  0  0  0  0  0  0  0  0
   12.6305   -2.7820   11.1178 C   0  0  0  0  0  0  0  0  0  0  0  0
   13.6022   -1.7870   10.8881 C   0  0  0  0  0  0  0  0  0  0  0  0
   14.8729   -1.9176   11.3756 C   0  0  0  0  0  0  0  0  0  0  0  0
   15.2011   -3.0627   12.1137 C   0  0  0  0  0  0  0  0  0  0  0  0
   16.4570   -3.1737   12.5851 F   0  0  0  0  0  0  0  0  0  0  0  0
   14.2971   -4.0567   12.3660 C   0  0  0  0  0  0  0  0  0  0  0  0
   12.9836   -3.9390   11.8711 C   0  0  0  0  0  0  0  0  0  0  0  0
   12.0271   -4.9522   12.1158 C   0  0  0  0  0  0  0  0  0  0  0  0
   10.7573   -4.8141   11.6215 C   0  0  0  0  0  0  0  0  0  0  0  0
    9.5796   -5.6746   11.7105 C   0  0  0  0  0  0  0  0  0  0  0  0
    9.5261   -6.8641   12.3928 C   0  0  0  0  0  0  0  0  0  0  0  0
    8.3991   -7.7023   12.5170 C   0  0  0  0  0  0  0  0  0  0  0  0
    7.5328   -8.4394   12.6822 N   0  0  0  0  0  0  0  0  0  0  0  0
   10.6161   -7.4231   13.0922 C   0  0  0  0  0  0  0  0  0  0  0  0
   11.4599   -7.9377   13.6768 N   0  0  0  0  0  0  0  0  0  0  0  0
    6.1445   -5.0364   10.0883 C   0  0  0  0  0  0  0  0  0  0  0  0
    4.9431   -5.7260   10.0337 C   0  0  0  0  0  0  0  0  0  0  0  0
    3.9408   -5.0813    9.2996 C   0  0  0  0  0  0  0  0  0  0  0  0
    2.6244   -5.5377    9.0259 C   0  0  0  0  0  0  0  0  0  0  0  0
    2.0869   -6.7141    9.6671 C   0  0  0  0  0  0  0  0  0  0  0  0
    2.2891   -7.1401   10.9540 C   0  0  0  0  0  0  0  0  0  0  0  0
    1.5823   -8.3135   11.2716 C   0  0  0  0  0  0  0  0  0  0  0  0
    0.8440   -8.7975   10.2338 C   0  0  0  0  0  0  0  0  0  0  0  0
   -0.0713   -9.9719   10.2129 C   0  0  0  0  0  0  0  0  0  0  0  0
   -1.5134   -9.5313   10.4777 C   0  0  0  0  0  0  0  0  0  0  0  0
    0.9959   -7.7889    8.8356 S   0  0  0  0  0  0  0  0  0  0  0  0
    1.8923   -4.7743    8.1300 C   0  0  0  0  0  0  0  0  0  0  0  0
    2.3672   -3.5649    7.5562 C   0  0  0  0  0  0  0  0  0  0  0  0
    3.6545   -3.0843    7.8710 C   0  0  0  0  0  0  0  0  0  0  0  0
    4.1949   -1.8626    7.3108 C   0  0  0  0  0  0  0  0  0  0  0  0
    4.9950   -0.9394    7.9243 C   0  0  0  0  0  0  0  0  0  0  0  0
    5.3822    0.1178    7.0780 C   0  0  0  0  0  0  0  0  0  0  0  0
    4.9019    0.0038    5.8104 C   0  0  0  0  0  0  0  0  0  0  0  0
    5.0710    0.9349    4.6598 C   0  0  0  0  0  0  0  0  0  0  0  0
    3.7597    1.6492    4.3264 C   0  0  0  0  0  0  0  0  0  0  0  0
    3.9359   -1.4247    5.6430 S   0  0  0  0  0  0  0  0  0  0  0  0
    4.4136   -3.8635    8.7399 C   0  0  0  0  0  0  0  0  0  0  0  0
    6.0576   -3.5278    9.2035 S   0  0  0  0  0  0  0  0  0  0  0  0
    1.3949   -2.9707    6.7231 C   0  0  0  0  0  0  0  0  0  0  0  0
    0.2288   -3.6798    6.6325 C   0  0  0  0  0  0  0  0  0  0  0  0
    0.2652   -5.1322    7.6064 S   0  0  0  0  0  0  0  0  0  0  0  0
   -0.8735   -3.3714    5.7897 C   0  0  0  0  0  0  0  0  0  0  0  0
   -2.1010   -3.9958    5.6823 C   0  0  0  0  0  0  0  0  0  0  0  0
   -2.5893   -5.0566    6.5710 C   0  0  0  0  0  0  0  0  0  0  0  0
   -2.7404   -4.8206    7.9341 C   0  0  0  0  0  0  0  0  0  0  0  0
   -3.2290   -5.8207    8.7526 C   0  0  0  0  0  0  0  0  0  0  0  0
   -3.5612   -7.0548    8.2223 C   0  0  0  0  0  0  0  0  0  0  0  0
   -3.4149   -7.3057    6.8639 C   0  0  0  0  0  0  0  0  0  0  0  0
   -3.7150   -8.6631    6.2976 C   0  0  0  0  0  0  0  0  0  0  0  0
   -2.4695   -9.5495    6.3660 C   0  0  0  0  0  0  0  0  0  0  0  0
   -2.9358   -6.2944    6.0449 C   0  0  0  0  0  0  0  0  0  0  0  0
   -2.8501   -3.4761    4.6103 C   0  0  0  0  0  0  0  0  0  0  0  0
   -4.4316   -3.8665    3.9780 S   0  0  0  0  0  0  0  0  0  0  0  0
   -4.2150   -2.6513    2.7626 C   0  0  0  0  0  0  0  0  0  0  0  0
   -4.8771   -2.1437    1.6337 C   0  0  0  0  0  0  0  0  0  0  0  0
   -6.0834   -2.5410    1.0179 C   0  0  0  0  0  0  0  0  0  0  0  0
   -6.4518   -1.9428   -0.2318 C   0  0  0  0  0  0  0  0  0  0  0  0
   -7.5735   -2.4460   -0.7232 N   0  0  0  0  0  0  0  0  0  0  0  0
   -8.1217   -3.5721    0.3029 S   0  0  0  0  0  0  0  0  0  0  0  0
   -6.9470   -3.4639    1.4119 N   0  0  0  0  0  0  0  0  0  0  0  0
   -5.6442   -0.9122   -0.7587 C   0  0  0  0  0  0  0  0  0  0  0  0
   -5.7911   -0.1315   -1.9160 C   0  0  0  0  0  0  0  0  0  0  0  0
   -6.8337   -0.0052   -3.2928 S   0  0  0  0  0  0  0  0  0  0  0  0
   -5.8574    1.3228   -3.8753 C   0  0  0  0  0  0  0  0  0  0  0  0
   -5.9077    2.0849   -5.0573 C   0  0  0  0  0  0  0  0  0  0  0  0
   -6.9297    1.8583   -6.0870 C   0  0  0  0  0  0  0  0  0  0  0  0
   -8.2755    1.9162   -5.7433 C   0  0  0  0  0  0  0  0  0  0  0  0
   -9.2424    1.7117   -6.7109 C   0  0  0  0  0  0  0  0  0  0  0  0
   -8.8767    1.4516   -8.0189 C   0  0  0  0  0  0  0  0  0  0  0  0
   -7.5357    1.3768   -8.3775 C   0  0  0  0  0  0  0  0  0  0  0  0
   -7.1376    1.0697   -9.7921 C   0  0  0  0  0  0  0  0  0  0  0  0
   -7.0624   -0.4417  -10.0134 C   0  0  0  0  0  0  0  0  0  0  0  0
   -6.5717    1.5628   -7.3991 C   0  0  0  0  0  0  0  0  0  0  0  0
   -4.8815    3.0158   -5.0962 C   0  0  0  0  0  0  0  0  0  0  0  0
   -3.8496    2.9345   -3.6755 S   0  0  0  0  0  0  0  0  0  0  0  0
   -4.7940    1.6426   -3.0278 C   0  0  0  0  0  0  0  0  0  0  0  0
   -4.7554    0.8048   -1.9069 C   0  0  0  0  0  0  0  0  0  0  0  0
   -3.9633    0.6233   -0.8049 N   0  0  0  0  0  0  0  0  0  0  0  0
   -4.4793   -0.4449   -0.0854 C   0  0  0  0  0  0  0  0  0  0  0  0
   -4.0399   -1.1348    1.0763 C   0  0  0  0  0  0  0  0  0  0  0  0
   -2.8920   -1.0524    1.8493 N   0  0  0  0  0  0  0  0  0  0  0  0
   -2.9962   -1.9759    2.8536 C   0  0  0  0  0  0  0  0  0  0  0  0
   -2.2113   -2.4493    3.9121 C   0  0  0  0  0  0  0  0  0  0  0  0
   -0.6539   -2.1114    4.5797 S   0  0  0  0  0  0  0  0  0  0  0  0
   -1.6012   -0.4735    1.5544 C   0  0  0  0  0  0  0  0  0  0  0  0
   -0.9910   -1.0768    0.2915 C   0  0  0  0  0  0  0  0  0  0  0  0
   -3.0816    1.6916   -0.3891 C   0  0  0  0  0  0  0  0  0  0  0  0
   -3.6012    2.3891    0.8657 C   0  0  0  0  0  0  0  0  0  0  0  0
   -4.5797    3.9920   -6.0867 C   0  0  0  0  0  0  0  0  0  0  0  0
   -5.2986    4.3226   -7.2014 C   0  0  0  0  0  0  0  0  0  0  0  0
   -4.6716    5.2775   -8.0267 C   0  0  0  0  0  0  0  0  0  0  0  0
   -5.1263    5.7517   -9.2752 C   0  0  0  0  0  0  0  0  0  0  0  0
   -6.3709    5.3003   -9.8663 C   0  0  0  0  0  0  0  0  0  0  0  0
   -6.6033    4.9723  -11.1730 C   0  0  0  0  0  0  0  0  0  0  0  0
   -7.9302    4.5710  -11.4210 C   0  0  0  0  0  0  0  0  0  0  0  0
   -8.7219    4.5996  -10.3146 C   0  0  0  0  0  0  0  0  0  0  0  0
  -10.1754    4.2961  -10.1994 C   0  0  0  0  0  0  0  0  0  0  0  0
  -11.0055    5.5814  -10.1648 C   0  0  0  0  0  0  0  0  0  0  0  0
   -7.8299    5.1254   -8.9277 S   0  0  0  0  0  0  0  0  0  0  0  0
   -4.2883    6.6435   -9.9319 C   0  0  0  0  0  0  0  0  0  0  0  0
   -3.0576    7.1047   -9.3869 C   0  0  0  0  0  0  0  0  0  0  0  0
   -2.6211    6.6522   -8.1153 C   0  0  0  0  0  0  0  0  0  0  0  0
   -1.4151    7.1699   -7.5131 C   0  0  0  0  0  0  0  0  0  0  0  0
   -0.9273    8.4498   -7.5531 C   0  0  0  0  0  0  0  0  0  0  0  0
    0.2674    8.6116   -6.8288 C   0  0  0  0  0  0  0  0  0  0  0  0
    0.7074    7.4645   -6.2403 C   0  0  0  0  0  0  0  0  0  0  0  0
    1.9030    7.2624   -5.3757 C   0  0  0  0  0  0  0  0  0  0  0  0
    1.4986    7.0988   -3.9088 C   0  0  0  0  0  0  0  0  0  0  0  0
   -0.3726    6.1493   -6.5580 S   0  0  0  0  0  0  0  0  0  0  0  0
   -3.4299    5.7109   -7.4943 C   0  0  0  0  0  0  0  0  0  0  0  0
   -3.0941    4.9173   -5.9780 S   0  0  0  0  0  0  0  0  0  0  0  0
   -2.3811    7.9707  -10.2606 C   0  0  0  0  0  0  0  0  0  0  0  0
   -3.0609    8.2318  -11.4296 C   0  0  0  0  0  0  0  0  0  0  0  0
   -4.5868    7.3496  -11.4905 S   0  0  0  0  0  0  0  0  0  0  0  0
   -2.7200    8.9933  -12.5631 C   0  0  0  0  0  0  0  0  0  0  0  0
   -1.7207    9.9132  -12.7526 C   0  0  0  0  0  0  0  0  0  0  0  0
   -0.8683   10.5563  -11.7290 C   0  0  0  0  0  0  0  0  0  0  0  0
   -0.7698   10.3052  -10.5450 O   0  0  0  0  0  0  0  0  0  0  0  0
   -0.1609   11.6474  -12.4307 C   0  0  0  0  0  0  0  0  0  0  0  0
    0.7214   12.5736  -11.9078 C   0  0  0  0  0  0  0  0  0  0  0  0
    1.2643   13.5235  -12.7580 C   0  0  0  0  0  0  0  0  0  0  0  0
    0.9080   13.5233  -14.1001 C   0  0  0  0  0  0  0  0  0  0  0  0
    1.6571   14.8426  -15.2449 Br  0  0  0  0  0  0  0  0  0  0  0  0
    0.0239   12.5979  -14.6418 C   0  0  0  0  0  0  0  0  0  0  0  0
   -0.5133   11.6472  -13.7900 C   0  0  0  0  0  0  0  0  0  0  0  0
   -1.4454   10.5458  -14.0297 C   0  0  0  0  0  0  0  0  0  0  0  0
   -1.8942   10.1501  -15.2625 C   0  0  0  0  0  0  0  0  0  0  0  0
   -2.7009    9.0218  -15.5257 C   0  0  0  0  0  0  0  0  0  0  0  0
   -3.3284    8.1119  -15.8369 N   0  0  0  0  0  0  0  0  0  0  0  0
   -1.5689   10.8066  -16.4686 C   0  0  0  0  0  0  0  0  0  0  0  0
   -1.3488   11.3003  -17.4813 N   0  0  0  0  0  0  0  0  0  0  0  0
    7.0538   -6.5134   11.2354 H   0  0  0  0  0  0  0  0  0  0  0  0
   11.0261   -1.7941   10.0433 H   0  0  0  0  0  0  0  0  0  0  0  0
   13.3251   -0.9139   10.3165 H   0  0  0  0  0  0  0  0  0  0  0  0
   15.6284   -1.1663   11.2084 H   0  0  0  0  0  0  0  0  0  0  0  0
   14.5849   -4.9245   12.9387 H   0  0  0  0  0  0  0  0  0  0  0  0
   12.3290   -5.8137   12.6890 H   0  0  0  0  0  0  0  0  0  0  0  0
    4.8242   -6.6919   10.4910 H   0  0  0  0  0  0  0  0  0  0  0  0
    2.8855   -6.5995   11.6668 H   0  0  0  0  0  0  0  0  0  0  0  0
    1.6220   -8.7850   12.2375 H   0  0  0  0  0  0  0  0  0  0  0  0
    0.2421  -10.6862   10.9769 H   0  0  0  0  0  0  0  0  0  0  0  0
   -0.0171  -10.4621    9.2383 H   0  0  0  0  0  0  0  0  0  0  0  0
   -1.5968   -9.0871   11.4670 H   0  0  0  0  0  0  0  0  0  0  0  0
   -2.1862  -10.3836   10.4206 H   0  0  0  0  0  0  0  0  0  0  0  0
   -1.8173   -8.7893    9.7420 H   0  0  0  0  0  0  0  0  0  0  0  0
    5.2740   -0.9952    8.9604 H   0  0  0  0  0  0  0  0  0  0  0  0
    6.0032    0.9343    7.4012 H   0  0  0  0  0  0  0  0  0  0  0  0
    5.8378    1.6695    4.9139 H   0  0  0  0  0  0  0  0  0  0  0  0
    5.4080    0.3784    3.7813 H   0  0  0  0  0  0  0  0  0  0  0  0
    3.4126    2.2213    5.1839 H   0  0  0  0  0  0  0  0  0  0  0  0
    2.9935    0.9232    4.0624 H   0  0  0  0  0  0  0  0  0  0  0  0
    3.9010    2.3279    3.4889 H   0  0  0  0  0  0  0  0  0  0  0  0
    1.5372   -2.0417    6.2018 H   0  0  0  0  0  0  0  0  0  0  0  0
   -2.4855   -3.8533    8.3417 H   0  0  0  0  0  0  0  0  0  0  0  0
   -3.3530   -5.6364    9.8096 H   0  0  0  0  0  0  0  0  0  0  0  0
   -3.9492   -7.8302    8.8676 H   0  0  0  0  0  0  0  0  0  0  0  0
   -4.0345   -8.5682    5.2583 H   0  0  0  0  0  0  0  0  0  0  0  0
   -4.5230   -9.1318    6.8629 H   0  0  0  0  0  0  0  0  0  0  0  0
   -1.6499   -9.0935    5.8152 H   0  0  0  0  0  0  0  0  0  0  0  0
   -2.1536   -9.6794    7.3983 H   0  0  0  0  0  0  0  0  0  0  0  0
   -2.6753  -10.5285    5.9396 H   0  0  0  0  0  0  0  0  0  0  0  0
   -2.8196   -6.4710    4.9851 H   0  0  0  0  0  0  0  0  0  0  0  0
   -8.5595    2.1367   -4.7254 H   0  0  0  0  0  0  0  0  0  0  0  0
  -10.2872    1.7620   -6.4417 H   0  0  0  0  0  0  0  0  0  0  0  0
   -9.6354    1.3007   -8.7734 H   0  0  0  0  0  0  0  0  0  0  0  0
   -6.1649    1.5172  -10.0071 H   0  0  0  0  0  0  0  0  0  0  0  0
   -7.8678    1.5016  -10.4801 H   0  0  0  0  0  0  0  0  0  0  0  0
   -8.0281   -0.9016   -9.8164 H   0  0  0  0  0  0  0  0  0  0  0  0
   -6.7746   -0.6621  -11.0386 H   0  0  0  0  0  0  0  0  0  0  0  0
   -6.3299   -0.8858   -9.3431 H   0  0  0  0  0  0  0  0  0  0  0  0
   -5.5246    1.4908   -7.6584 H   0  0  0  0  0  0  0  0  0  0  0  0
   -0.9575   -0.7017    2.4076 H   0  0  0  0  0  0  0  0  0  0  0  0
   -1.6727    0.6122    1.4901 H   0  0  0  0  0  0  0  0  0  0  0  0
   -0.0316   -0.6108    0.0832 H   0  0  0  0  0  0  0  0  0  0  0  0
   -1.6448   -0.9397   -0.5666 H   0  0  0  0  0  0  0  0  0  0  0  0
   -0.8341   -2.1438    0.4307 H   0  0  0  0  0  0  0  0  0  0  0  0
   -3.0548    2.4084   -1.2136 H   0  0  0  0  0  0  0  0  0  0  0  0
   -2.0640    1.3246   -0.2540 H   0  0  0  0  0  0  0  0  0  0  0  0
   -3.7130    1.6874    1.6890 H   0  0  0  0  0  0  0  0  0  0  0  0
   -4.5735    2.8339    0.6666 H   0  0  0  0  0  0  0  0  0  0  0  0
   -2.9147    3.1769    1.1637 H   0  0  0  0  0  0  0  0  0  0  0  0
   -6.2490    3.8833   -7.4275 H   0  0  0  0  0  0  0  0  0  0  0  0
   -5.8398    4.9823  -11.9297 H   0  0  0  0  0  0  0  0  0  0  0  0
   -8.2830    4.2675  -12.3908 H   0  0  0  0  0  0  0  0  0  0  0  0
  -10.4785    3.6876  -11.0544 H   0  0  0  0  0  0  0  0  0  0  0  0
  -10.3582    3.7273   -9.2847 H   0  0  0  0  0  0  0  0  0  0  0  0
  -10.8406    6.1626  -11.0692 H   0  0  0  0  0  0  0  0  0  0  0  0
  -12.0640    5.3452  -10.0901 H   0  0  0  0  0  0  0  0  0  0  0  0
  -10.7224    6.1880   -9.3076 H   0  0  0  0  0  0  0  0  0  0  0  0
   -1.4244    9.2618   -8.0511 H   0  0  0  0  0  0  0  0  0  0  0  0
    0.7859    9.5505   -6.7512 H   0  0  0  0  0  0  0  0  0  0  0  0
    2.4450    6.3703   -5.6987 H   0  0  0  0  0  0  0  0  0  0  0  0
    2.5651    8.1241   -5.4823 H   0  0  0  0  0  0  0  0  0  0  0  0
    2.3795    6.9544   -3.2883 H   0  0  0  0  0  0  0  0  0  0  0  0
    0.9691    7.9834   -3.5622 H   0  0  0  0  0  0  0  0  0  0  0  0
    0.8443    6.2376   -3.7939 H   0  0  0  0  0  0  0  0  0  0  0  0
   -1.4054    8.3695  -10.0634 H   0  0  0  0  0  0  0  0  0  0  0  0
   -3.3821    8.8258  -13.4048 H   0  0  0  0  0  0  0  0  0  0  0  0
    0.9761   12.5491  -10.8597 H   0  0  0  0  0  0  0  0  0  0  0  0
    1.9578   14.2624  -12.3876 H   0  0  0  0  0  0  0  0  0  0  0  0
   -0.2257   12.6401  -15.6893 H   0  0  0  0  0  0  0  0  0  0  0  0
  1  2  2  0  0  0  0
  2  3  1  0  0  0  0
  3  4  2  0  0  0  0
  3  5  1  0  0  0  0
  5  6  2  0  0  0  0
  6  7  1  0  0  0  0
  7  8  2  0  0  0  0
  8  9  1  0  0  0  0
  9 10  2  0  0  0  0
 10 11  1  0  0  0  0
 10 12  1  0  0  0  0
 12 13  2  0  0  0  0
 13 14  1  0  0  0  0
 14 15  2  0  0  0  0
 15 16  1  0  0  0  0
 16 17  2  0  0  0  0
 17 18  1  0  0  0  0
 18 19  3  0  0  0  0
 17 20  1  0  0  0  0
 20 21  3  0  0  0  0
  1 22  1  0  0  0  0
 22 23  2  0  0  0  0
 23 24  1  0  0  0  0
 24 25  2  0  0  0  0
 25 26  1  0  0  0  0
 26 27  2  0  0  0  0
 27 28  1  0  0  0  0
 28 29  2  0  0  0  0
 29 30  1  0  0  0  0
 30 31  1  0  0  0  0
 29 32  1  0  0  0  0
 25 33  1  0  0  0  0
 33 34  2  0  0  0  0
 34 35  1  0  0  0  0
 35 36  1  0  0  0  0
 36 37  2  0  0  0  0
 37 38  1  0  0  0  0
 38 39  2  0  0  0  0
 39 40  1  0  0  0  0
 40 41  1  0  0  0  0
 39 42  1  0  0  0  0
 35 43  2  0  0  0  0
 43 44  1  0  0  0  0
 34 45  1  0  0  0  0
 45 46  2  0  0  0  0
 46 47  1  0  0  0  0
 46 48  1  0  0  0  0
 48 49  2  0  0  0  0
 49 50  1  0  0  0  0
 50 51  2  0  0  0  0
 51 52  1  0  0  0  0
 52 53  2  0  0  0  0
 53 54  1  0  0  0  0
 54 55  1  0  0  0  0
 55 56  1  0  0  0  0
 54 57  2  0  0  0  0
 49 58  1  0  0  0  0
 58 59  1  0  0  0  0
 59 60  1  0  0  0  0
 60 61  1  0  0  0  0
 61 62  1  0  0  0  0
 62 63  1  0  0  0  0
 63 64  2  0  0  0  0
 64 65  1  0  0  0  0
 65 66  1  0  0  0  0
 63 67  1  0  0  0  0
 67 68  1  0  0  0  0
 68 69  1  0  0  0  0
 69 70  1  0  0  0  0
 70 71  1  0  0  0  0
 71 72  1  0  0  0  0
 72 73  2  0  0  0  0
 73 74  1  0  0  0  0
 74 75  2  0  0  0  0
 75 76  1  0  0  0  0
 76 77  1  0  0  0  0
 77 78  1  0  0  0  0
 76 79  2  0  0  0  0
 71 80  2  0  0  0  0
 80 81  1  0  0  0  0
 81 82  1  0  0  0  0
 82 83  1  0  0  0  0
 83 84  1  0  0  0  0
 84 85  1  0  0  0  0
 85 86  1  0  0  0  0
 86 87  1  0  0  0  0
 87 88  1  0  0  0  0
 88 89  1  0  0  0  0
 89 90  1  0  0  0  0
 87 91  1  0  0  0  0
 91 92  1  0  0  0  0
 84 93  1  0  0  0  0
 93 94  1  0  0  0  0
 80 95  1  0  0  0  0
 95 96  2  0  0  0  0
 96 97  1  0  0  0  0
 97 98  2  0  0  0  0
 98 99  1  0  0  0  0
 99100  2  0  0  0  0
100101  1  0  0  0  0
101102  2  0  0  0  0
102103  1  0  0  0  0
103104  1  0  0  0  0
102105  1  0  0  0  0
 98106  1  0  0  0  0
106107  2  0  0  0  0
107108  1  0  0  0  0
108109  1  0  0  0  0
109110  2  0  0  0  0
110111  1  0  0  0  0
111112  2  0  0  0  0
112113  1  0  0  0  0
113114  1  0  0  0  0
112115  1  0  0  0  0
108116  2  0  0  0  0
116117  1  0  0  0  0
107118  1  0  0  0  0
118119  2  0  0  0  0
119120  1  0  0  0  0
119121  1  0  0  0  0
121122  2  0  0  0  0
122123  1  0  0  0  0
123124  2  0  0  0  0
123125  1  0  0  0  0
125126  2  0  0  0  0
126127  1  0  0  0  0
127128  2  0  0  0  0
128129  1  0  0  0  0
128130  1  0  0  0  0
130131  2  0  0  0  0
131132  1  0  0  0  0
132133  2  0  0  0  0
133134  1  0  0  0  0
134135  3  0  0  0  0
133136  1  0  0  0  0
136137  3  0  0  0  0
 16  2  1  0  0  0  0
 44 22  1  0  0  0  0
 90 48  1  0  0  0  0
117 95  1  0  0  0  0
132122  1  0  0  0  0
 15  5  1  0  0  0  0
 43 24  1  0  0  0  0
 57 50  1  0  0  0  0
 89 58  2  0  0  0  0
116 97  1  0  0  0  0
131125  1  0  0  0  0
 13  7  1  0  0  0  0
 32 26  1  0  0  0  0
 47 33  1  0  0  0  0
 88 60  2  0  0  0  0
105 99  1  0  0  0  0
120106  1  0  0  0  0
 42 36  1  0  0  0  0
 86 61  2  0  0  0  0
115109  1  0  0  0  0
 66 62  2  0  0  0  0
 85 67  2  0  0  0  0
 83 68  2  0  0  0  0
 82 70  2  0  0  0  0
 79 72  1  0  0  0  0
  1138  1  0  0  0  0
  6139  1  0  0  0  0
  8140  1  0  0  0  0
  9141  1  0  0  0  0
 12142  1  0  0  0  0
 14143  1  0  0  0  0
 23144  1  0  0  0  0
 27145  1  0  0  0  0
 28146  1  0  0  0  0
 30147  1  0  0  0  0
 30148  1  0  0  0  0
 31149  1  0  0  0  0
 31150  1  0  0  0  0
 31151  1  0  0  0  0
 37152  1  0  0  0  0
 38153  1  0  0  0  0
 40154  1  0  0  0  0
 40155  1  0  0  0  0
 41156  1  0  0  0  0
 41157  1  0  0  0  0
 41158  1  0  0  0  0
 45159  1  0  0  0  0
 51160  1  0  0  0  0
 52161  1  0  0  0  0
 53162  1  0  0  0  0
 55163  1  0  0  0  0
 55164  1  0  0  0  0
 56165  1  0  0  0  0
 56166  1  0  0  0  0
 56167  1  0  0  0  0
 57168  1  0  0  0  0
 73169  1  0  0  0  0
 74170  1  0  0  0  0
 75171  1  0  0  0  0
 77172  1  0  0  0  0
 77173  1  0  0  0  0
 78174  1  0  0  0  0
 78175  1  0  0  0  0
 78176  1  0  0  0  0
 79177  1  0  0  0  0
 91178  1  0  0  0  0
 91179  1  0  0  0  0
 92180  1  0  0  0  0
 92181  1  0  0  0  0
 92182  1  0  0  0  0
 93183  1  0  0  0  0
 93184  1  0  0  0  0
 94185  1  0  0  0  0
 94186  1  0  0  0  0
 94187  1  0  0  0  0
 96188  1  0  0  0  0
100189  1  0  0  0  0
101190  1  0  0  0  0
103191  1  0  0  0  0
103192  1  0  0  0  0
104193  1  0  0  0  0
104194  1  0  0  0  0
104195  1  0  0  0  0
110196  1  0  0  0  0
111197  1  0  0  0  0
113198  1  0  0  0  0
113199  1  0  0  0  0
114200  1  0  0  0  0
114201  1  0  0  0  0
114202  1  0  0  0  0
118203  1  0  0  0  0
121204  1  0  0  0  0
126205  1  0  0  0  0
127206  1  0  0  0  0
130207  1  0  0  0  0
M  END
