147

C          6.07970       -4.65690       -1.67900
C          6.83420       -4.93040       -0.56600
C          8.28350       -5.22370       -0.57400
O          9.04340       -5.21190       -1.52120
C          8.62730       -5.55330        0.82450
C          9.83350       -5.92570        1.34140
C          9.93440       -6.21060        2.72190
C         11.15460       -6.60370        3.30770
C         11.23780       -6.87980        4.64440
C         10.08520       -6.76530        5.43280
F         10.18640       -7.04120        6.74700
C          8.87750       -6.38750        4.91560
C          8.77360       -6.10030        3.54060
C          7.53670       -5.70950        2.97600
C          7.46300       -5.43950        1.63580
C          6.34540       -5.02650        0.78920
C          5.07300       -4.75410        1.23440
C          4.66660       -4.86760        2.57960
N          4.26550       -4.93770        3.65370
C          3.99380       -4.30800        0.44720
N          3.05730       -3.93090       -0.10430
C          6.54760       -4.52790       -2.99640
C          5.65980       -4.25180       -3.99950
C          5.97420       -4.08940       -5.36110
C          5.08610       -3.73970       -6.34130
C          3.74450       -3.31470       -6.19850
C          2.78580       -3.25820       -7.21460
C          2.97930       -3.76280       -8.57060
C          3.63510       -4.96970       -8.80860
C          3.78940       -5.42610      -10.10410
C          3.29210       -4.69460      -11.16820
C          2.62010       -3.49750      -10.94940
C          2.10520       -2.68290      -12.10050
C          3.17150       -1.69280      -12.57340
C          2.47090       -3.04280       -9.64930
C          1.58020       -2.70180       -6.75850
S          0.01520       -2.45020       -7.50480
C         -0.58890       -1.84640       -5.99780
C         -1.78620       -1.36610       -5.44010
C         -3.11860       -1.30500       -5.91070
C         -4.16670       -0.90580       -5.00600
N         -5.36440       -0.97590       -5.56350
S         -5.19630       -1.48720       -7.08980
N         -3.58480       -1.64330       -7.10170
C         -3.82280       -0.42460       -3.72130
C         -4.56080        0.19040       -2.69380
S         -6.20360        0.56720       -2.30130
C         -5.65260        1.37710       -0.85410
C         -6.32430        2.05200        0.18430
C         -7.77870        2.11630        0.31170
C         -8.57530        2.34150       -0.80680
C         -9.94940        2.39660       -0.67240
C        -10.53850        2.22350        0.56700
C         -9.75930        1.98540        1.69340
C        -10.40230        1.74460        3.02910
C        -10.81670        0.27830        3.16640
C         -8.38270        1.92820        1.55280
C         -5.42370        2.54720        1.11370
S         -3.75960        2.13210        0.74500
C         -4.26400        1.33690       -0.69690
C         -3.64040        0.64970       -1.74400
N         -2.36410        0.31280       -2.11830
C         -2.46460       -0.37320       -3.31330
C         -1.48010       -1.00950       -4.09900
N         -0.16730       -1.33130       -3.82120
C          0.37310       -1.82830       -4.97910
C          1.60440       -2.32310       -5.41140
S          3.13000       -2.64640       -4.68740
C          0.39790       -1.69360       -2.53380
C          0.40580       -3.20710       -2.32890
C         -1.23690        1.10990       -1.67640
C         -1.39590        2.57060       -2.09740
C         -5.67770        3.41580        2.23700
C         -6.60400        4.46940        2.17400
F         -7.28160        4.69420        1.04270
C         -6.80410        5.32290        3.24090
F         -7.69940        6.31090        3.12660
C         -6.04780        5.23690        4.41840
C         -5.12900        4.18220        4.48350
F         -4.41900        3.99510        5.60760
C         -4.95830        3.29970        3.43550
F         -4.08360        2.29320        3.58290
C         -6.27000        6.17950        5.48650
C         -5.39990        6.69590        6.38130
C         -5.95070        7.39100        7.59060
O         -7.09710        7.73000        7.75840
C         -4.81560        7.51000        8.51910
C         -4.80660        7.96580        9.80670
C         -3.59240        7.97030       10.52720
C         -3.52610        8.43920       11.85570
C         -2.34600        8.43530       12.54540
C         -1.19130        7.95440       11.91200
F         -0.04060        7.95900       12.60680
C         -1.20000        7.48790       10.62680
C         -2.40630        7.48740        9.89960
C         -2.44450        7.02390        8.56430
C         -3.63000        7.04560        7.87910
C         -3.95190        6.67750        6.50420
C         -3.04360        6.56690        5.48770
C         -1.64640        6.66380        5.66830
N         -0.50480        6.73380        5.75640
C         -3.38170        6.42020        4.12780
N         -3.60410        6.32230        3.00600
H          5.01360       -4.52130       -1.54280
H         10.70160       -6.00420        0.70420
H         12.02890       -6.68510        2.67960
H         12.16320       -7.18280        5.10790
H          8.01030       -6.30920        5.55270
H          6.67720       -5.63830        3.62290
H          7.60420       -4.62690       -3.19410
H          4.61920       -4.18210       -3.71260
H          6.99280       -4.29980       -5.65870
H          5.43200       -3.77520       -7.36760
H          3.98980       -5.56190       -7.97820
H          4.29490       -6.36350      -10.28390
H          3.41530       -5.06030      -12.17720
H          1.83360       -3.34190      -12.92730
H          1.21360       -2.13340      -11.79290
H          2.79960       -1.10440      -13.40860
H          4.06610       -2.22290      -12.89300
H          3.44480       -1.01650      -11.76650
H          1.96330       -2.10640       -9.46930
H         -8.11640        2.49860       -1.77040
H        -10.56450        2.58140       -1.54030
H        -11.61320        2.27440        0.66560
H         -9.70400        1.99860        3.82940
H        -11.28490        2.37900        3.13220
H        -11.52530        0.01040        2.38610
H        -11.28190        0.10340        4.13360
H         -9.94800       -0.37020        3.07590
H         -7.76740        1.72130        2.41830
H          1.42200       -1.31070       -2.48700
H         -0.19540       -1.24550       -1.73970
H          0.94940       -3.70740       -3.12510
H         -0.61150       -3.59190       -2.30700
H          0.89580       -3.43770       -1.38740
H         -1.16710        1.04080       -0.58650
H         -0.32500        0.72190       -2.12520
H         -2.26820        3.02100       -1.63260
H         -0.51700        3.13240       -1.79450
H         -1.50090        2.64010       -3.17820
H         -7.29970        6.50450        5.60770
H         -5.71610        8.31920       10.26890
H         -4.42870        8.80430       12.32200
H         -2.27770        8.79080       13.56130
H         -0.29110        7.12830       10.17030
H         -1.53520        6.65280        8.11910
