
  xtb     02052201193D
 energy: -354.844192426374 gnorm: 0.000480865560 xtb: 6.4.1 (unknown)
181200  0     0  0            999 V2000
    3.6555  -10.4272   -4.4351 C   0  0  0  0  0  0  0  0  0  0  0  0
    3.1370  -11.5456   -3.8299 C   0  0  0  0  0  0  0  0  0  0  0  0
    2.5291  -11.5684   -2.4810 C   0  0  0  0  0  0  0  0  0  0  0  0
    2.4385  -10.6577   -1.6811 O   0  0  0  0  0  0  0  0  0  0  0  0
    2.0327  -12.9458   -2.2914 C   0  0  0  0  0  0  0  0  0  0  0  0
    1.3689  -13.4722   -1.2220 C   0  0  0  0  0  0  0  0  0  0  0  0
    0.9712  -14.8274   -1.2563 C   0  0  0  0  0  0  0  0  0  0  0  0
    0.2808  -15.4225   -0.1810 C   0  0  0  0  0  0  0  0  0  0  0  0
   -0.1003  -16.7347   -0.2283 C   0  0  0  0  0  0  0  0  0  0  0  0
    0.2067  -17.4885   -1.3689 C   0  0  0  0  0  0  0  0  0  0  0  0
   -0.1767  -18.7792   -1.3971 F   0  0  0  0  0  0  0  0  0  0  0  0
    0.8739  -16.9609   -2.4390 C   0  0  0  0  0  0  0  0  0  0  0  0
    1.2738  -15.6107   -2.4073 C   0  0  0  0  0  0  0  0  0  0  0  0
    1.9649  -15.0367   -3.5001 C   0  0  0  0  0  0  0  0  0  0  0  0
    2.3408  -13.7213   -3.4437 C   0  0  0  0  0  0  0  0  0  0  0  0
    3.0487  -12.8712   -4.3995 C   0  0  0  0  0  0  0  0  0  0  0  0
    3.5512  -13.2920   -5.6068 C   0  0  0  0  0  0  0  0  0  0  0  0
    4.2669  -12.4952   -6.5228 C   0  0  0  0  0  0  0  0  0  0  0  0
    4.8628  -11.9215   -7.3207 N   0  0  0  0  0  0  0  0  0  0  0  0
    3.4334  -14.6081   -6.0972 C   0  0  0  0  0  0  0  0  0  0  0  0
    3.3722  -15.6595   -6.5556 N   0  0  0  0  0  0  0  0  0  0  0  0
    3.7269   -9.1549   -3.8479 C   0  0  0  0  0  0  0  0  0  0  0  0
    4.2196   -8.0754   -4.5254 C   0  0  0  0  0  0  0  0  0  0  0  0
    4.2887   -6.7740   -4.0008 C   0  0  0  0  0  0  0  0  0  0  0  0
    4.7544   -5.6209   -4.6393 C   0  0  0  0  0  0  0  0  0  0  0  0
    5.4173   -5.5890   -5.9399 C   0  0  0  0  0  0  0  0  0  0  0  0
    6.4001   -6.5204   -6.2724 C   0  0  0  0  0  0  0  0  0  0  0  0
    7.0331   -6.4452   -7.4983 C   0  0  0  0  0  0  0  0  0  0  0  0
    6.7042   -5.4440   -8.3961 C   0  0  0  0  0  0  0  0  0  0  0  0
    5.7356   -4.5002   -8.0775 C   0  0  0  0  0  0  0  0  0  0  0  0
    5.4167   -3.3696   -9.0119 C   0  0  0  0  0  0  0  0  0  0  0  0
    6.2024   -2.1191   -8.6108 C   0  0  0  0  0  0  0  0  0  0  0  0
    5.1003   -4.5828   -6.8484 C   0  0  0  0  0  0  0  0  0  0  0  0
    4.5290   -4.4814   -3.8555 C   0  0  0  0  0  0  0  0  0  0  0  0
    4.8552   -2.7803   -4.1073 S   0  0  0  0  0  0  0  0  0  0  0  0
    4.1918   -2.4426   -2.5466 C   0  0  0  0  0  0  0  0  0  0  0  0
    3.9458   -1.3394   -1.7126 C   0  0  0  0  0  0  0  0  0  0  0  0
    4.2621    0.0349   -1.8116 C   0  0  0  0  0  0  0  0  0  0  0  0
    3.9812    0.8997   -0.6951 C   0  0  0  0  0  0  0  0  0  0  0  0
    4.3772    2.1440   -0.9102 N   0  0  0  0  0  0  0  0  0  0  0  0
    5.0355    2.2246   -2.3904 S   0  0  0  0  0  0  0  0  0  0  0  0
    4.8478    0.6744   -2.8103 N   0  0  0  0  0  0  0  0  0  0  0  0
    3.2598    0.3858    0.4055 C   0  0  0  0  0  0  0  0  0  0  0  0
    2.6719    0.9990    1.5223 C   0  0  0  0  0  0  0  0  0  0  0  0
    2.5912    2.5687    2.2408 S   0  0  0  0  0  0  0  0  0  0  0  0
    1.3756    1.9700    3.3402 C   0  0  0  0  0  0  0  0  0  0  0  0
    0.5260    2.6218    4.2473 C   0  0  0  0  0  0  0  0  0  0  0  0
    0.5701    4.0313    4.6273 C   0  0  0  0  0  0  0  0  0  0  0  0
    0.8324    5.0255    3.6888 C   0  0  0  0  0  0  0  0  0  0  0  0
    0.7831    6.3528    4.0665 C   0  0  0  0  0  0  0  0  0  0  0  0
    0.4914    6.7003    5.3751 C   0  0  0  0  0  0  0  0  0  0  0  0
    0.2628    5.7219    6.3334 C   0  0  0  0  0  0  0  0  0  0  0  0
   -0.0385    6.0789    7.7611 C   0  0  0  0  0  0  0  0  0  0  0  0
   -1.4306    5.6014    8.1749 C   0  0  0  0  0  0  0  0  0  0  0  0
    0.3035    4.3917    5.9440 C   0  0  0  0  0  0  0  0  0  0  0  0
   -0.4176    1.7502    4.7711 C   0  0  0  0  0  0  0  0  0  0  0  0
   -0.2051    0.1081    4.2067 S   0  0  0  0  0  0  0  0  0  0  0  0
    1.0880    0.6126    3.1729 C   0  0  0  0  0  0  0  0  0  0  0  0
    1.8466    0.0494    2.1367 C   0  0  0  0  0  0  0  0  0  0  0  0
    1.9438   -1.1503    1.4768 N   0  0  0  0  0  0  0  0  0  0  0  0
    2.8226   -0.9636    0.4245 C   0  0  0  0  0  0  0  0  0  0  0  0
    3.3140   -1.8572   -0.5507 C   0  0  0  0  0  0  0  0  0  0  0  0
    3.2381   -3.2333   -0.6397 N   0  0  0  0  0  0  0  0  0  0  0  0
    3.7548   -3.5856   -1.8630 C   0  0  0  0  0  0  0  0  0  0  0  0
    3.9424   -4.7500   -2.6103 C   0  0  0  0  0  0  0  0  0  0  0  0
    3.6238   -6.4312   -2.4038 S   0  0  0  0  0  0  0  0  0  0  0  0
    3.2665   -4.1666    0.4693 C   0  0  0  0  0  0  0  0  0  0  0  0
    4.6799   -4.6946    0.7135 C   0  0  0  0  0  0  0  0  0  0  0  0
    0.8343   -2.0839    1.5064 C   0  0  0  0  0  0  0  0  0  0  0  0
   -0.4091   -1.4807    0.8555 C   0  0  0  0  0  0  0  0  0  0  0  0
   -1.7094    2.2449    5.2119 C   0  0  0  0  0  0  0  0  0  0  0  0
   -2.3091    3.1570    4.2893 C   0  0  0  0  0  0  0  0  0  0  0  0
   -1.6967    3.3287    3.1208 N   0  0  0  0  0  0  0  0  0  0  0  0
   -2.2091    4.1085    2.2056 C   0  0  0  0  0  0  0  0  0  0  0  0
   -1.3595    4.1685    1.0041 C   0  0  0  0  0  0  0  0  0  0  0  0
   -0.9511    5.3375    0.3777 C   0  0  0  0  0  0  0  0  0  0  0  0
    0.0051    5.3415   -0.6323 C   0  0  0  0  0  0  0  0  0  0  0  0
    0.6115    4.1595   -1.0777 C   0  0  0  0  0  0  0  0  0  0  0  0
    1.5309    4.0076   -2.0340 O   0  0  0  0  0  0  0  0  0  0  0  0
    2.4368    5.0597   -2.3670 C   0  0  0  0  0  0  0  0  0  0  0  0
    3.3468    5.4084   -1.1975 C   0  0  0  0  0  0  0  0  0  0  0  0
    0.1562    2.9758   -0.4696 C   0  0  0  0  0  0  0  0  0  0  0  0
   -0.7835    2.9806    0.5415 C   0  0  0  0  0  0  0  0  0  0  0  0
   -1.1482    1.8097    1.0695 F   0  0  0  0  0  0  0  0  0  0  0  0
    0.6738    1.8095   -0.8803 F   0  0  0  0  0  0  0  0  0  0  0  0
    0.3332    6.5349   -1.1669 F   0  0  0  0  0  0  0  0  0  0  0  0
   -1.4679    6.5156    0.7641 F   0  0  0  0  0  0  0  0  0  0  0  0
   -3.4633    4.7395    2.4399 C   0  0  0  0  0  0  0  0  0  0  0  0
   -4.1329    5.5405    1.4045 C   0  0  0  0  0  0  0  0  0  0  0  0
   -4.7243    6.7699    1.7029 C   0  0  0  0  0  0  0  0  0  0  0  0
   -4.7030    7.2377    2.9515 F   0  0  0  0  0  0  0  0  0  0  0  0
   -5.3114    7.5475    0.7229 C   0  0  0  0  0  0  0  0  0  0  0  0
   -5.8488    8.7287    1.0581 F   0  0  0  0  0  0  0  0  0  0  0  0
   -5.3729    7.1518   -0.6269 C   0  0  0  0  0  0  0  0  0  0  0  0
   -5.9915    8.0018   -1.4483 O   0  0  0  0  0  0  0  0  0  0  0  0
   -5.9748    7.8424   -2.8652 C   0  0  0  0  0  0  0  0  0  0  0  0
   -4.6155    8.1745   -3.4659 C   0  0  0  0  0  0  0  0  0  0  0  0
   -4.8080    5.9033   -0.9126 C   0  0  0  0  0  0  0  0  0  0  0  0
   -4.8224    5.3897   -2.1593 F   0  0  0  0  0  0  0  0  0  0  0  0
   -4.2087    5.1339    0.0763 C   0  0  0  0  0  0  0  0  0  0  0  0
   -3.7261    3.9349   -0.2877 F   0  0  0  0  0  0  0  0  0  0  0  0
   -4.0853    4.5762    3.5860 N   0  0  0  0  0  0  0  0  0  0  0  0
   -3.5338    3.8152    4.5426 C   0  0  0  0  0  0  0  0  0  0  0  0
   -4.2030    3.5633    5.7759 C   0  0  0  0  0  0  0  0  0  0  0  0
   -3.6600    2.5927    6.6024 C   0  0  0  0  0  0  0  0  0  0  0  0
   -2.4416    1.9409    6.3363 C   0  0  0  0  0  0  0  0  0  0  0  0
   -1.9771    1.0600    7.2344 F   0  0  0  0  0  0  0  0  0  0  0  0
   -4.2816    2.3042    7.7541 F   0  0  0  0  0  0  0  0  0  0  0  0
   -5.4353    4.2401    6.1006 C   0  0  0  0  0  0  0  0  0  0  0  0
   -5.6263    5.5637    5.8984 C   0  0  0  0  0  0  0  0  0  0  0  0
   -4.5142    6.5429    5.7049 C   0  0  0  0  0  0  0  0  0  0  0  0
   -3.3283    6.3036    5.6414 O   0  0  0  0  0  0  0  0  0  0  0  0
   -5.1490    7.8684    5.7422 C   0  0  0  0  0  0  0  0  0  0  0  0
   -4.5611    9.0935    5.6085 C   0  0  0  0  0  0  0  0  0  0  0  0
   -5.3654   10.2525    5.6561 C   0  0  0  0  0  0  0  0  0  0  0  0
   -4.8125   11.5414    5.5093 C   0  0  0  0  0  0  0  0  0  0  0  0
   -5.6016   12.6565    5.5585 C   0  0  0  0  0  0  0  0  0  0  0  0
   -6.9808   12.5035    5.7583 C   0  0  0  0  0  0  0  0  0  0  0  0
   -7.7401   13.6126    5.8058 F   0  0  0  0  0  0  0  0  0  0  0  0
   -7.5686   11.2781    5.9053 C   0  0  0  0  0  0  0  0  0  0  0  0
   -6.7709   10.1181    5.8554 C   0  0  0  0  0  0  0  0  0  0  0  0
   -7.3514    8.8371    5.9958 C   0  0  0  0  0  0  0  0  0  0  0  0
   -6.5525    7.7252    5.9340 C   0  0  0  0  0  0  0  0  0  0  0  0
   -6.8719    6.3062    6.0152 C   0  0  0  0  0  0  0  0  0  0  0  0
   -8.1258    5.7649    6.0908 C   0  0  0  0  0  0  0  0  0  0  0  0
   -8.4080    4.3816    6.0698 C   0  0  0  0  0  0  0  0  0  0  0  0
   -8.7157    3.2763    6.0404 N   0  0  0  0  0  0  0  0  0  0  0  0
   -9.3138    6.5233    6.1697 C   0  0  0  0  0  0  0  0  0  0  0  0
  -10.3131    7.0825    6.2447 N   0  0  0  0  0  0  0  0  0  0  0  0
    4.0325  -10.5132   -5.4463 H   0  0  0  0  0  0  0  0  0  0  0  0
    1.1481  -12.8607   -0.3597 H   0  0  0  0  0  0  0  0  0  0  0  0
    0.0556  -14.8210    0.6869 H   0  0  0  0  0  0  0  0  0  0  0  0
   -0.6293  -17.2051    0.5854 H   0  0  0  0  0  0  0  0  0  0  0  0
    1.0936  -17.5712   -3.3011 H   0  0  0  0  0  0  0  0  0  0  0  0
    2.1755  -15.6570   -4.3562 H   0  0  0  0  0  0  0  0  0  0  0  0
    3.3758   -9.0373   -2.8323 H   0  0  0  0  0  0  0  0  0  0  0  0
    4.5602   -8.2027   -5.5456 H   0  0  0  0  0  0  0  0  0  0  0  0
    6.6891   -7.2773   -5.5586 H   0  0  0  0  0  0  0  0  0  0  0  0
    7.7933   -7.1686   -7.7523 H   0  0  0  0  0  0  0  0  0  0  0  0
    7.2071   -5.3918   -9.3507 H   0  0  0  0  0  0  0  0  0  0  0  0
    5.6746   -3.6478  -10.0353 H   0  0  0  0  0  0  0  0  0  0  0  0
    4.3480   -3.1489   -8.9752 H   0  0  0  0  0  0  0  0  0  0  0  0
    7.2715   -2.3153   -8.6530 H   0  0  0  0  0  0  0  0  0  0  0  0
    5.9492   -1.8221   -7.5955 H   0  0  0  0  0  0  0  0  0  0  0  0
    5.9738   -1.2951   -9.2824 H   0  0  0  0  0  0  0  0  0  0  0  0
    4.3332   -3.8645   -6.5985 H   0  0  0  0  0  0  0  0  0  0  0  0
    1.0457    4.7543    2.6654 H   0  0  0  0  0  0  0  0  0  0  0  0
    0.9662    7.1254    3.3339 H   0  0  0  0  0  0  0  0  0  0  0  0
    0.4490    7.7426    5.6554 H   0  0  0  0  0  0  0  0  0  0  0  0
    0.0230    7.1615    7.8846 H   0  0  0  0  0  0  0  0  0  0  0  0
    0.7098    5.6223    8.4151 H   0  0  0  0  0  0  0  0  0  0  0  0
   -1.6845    5.9802    9.1622 H   0  0  0  0  0  0  0  0  0  0  0  0
   -2.1684    5.9546    7.4589 H   0  0  0  0  0  0  0  0  0  0  0  0
   -1.4764    4.5152    8.2035 H   0  0  0  0  0  0  0  0  0  0  0  0
    0.1467    3.6165    6.6800 H   0  0  0  0  0  0  0  0  0  0  0  0
    2.5929   -5.0005    0.2476 H   0  0  0  0  0  0  0  0  0  0  0  0
    2.9347   -3.6540    1.3708 H   0  0  0  0  0  0  0  0  0  0  0  0
    4.6774   -5.3433    1.5848 H   0  0  0  0  0  0  0  0  0  0  0  0
    5.0383   -5.2659   -0.1379 H   0  0  0  0  0  0  0  0  0  0  0  0
    5.3640   -3.8680    0.8940 H   0  0  0  0  0  0  0  0  0  0  0  0
    1.1027   -2.9869    0.9633 H   0  0  0  0  0  0  0  0  0  0  0  0
    0.6289   -2.3352    2.5513 H   0  0  0  0  0  0  0  0  0  0  0  0
   -0.7600   -0.6139    1.4060 H   0  0  0  0  0  0  0  0  0  0  0  0
   -1.2032   -2.2217    0.8337 H   0  0  0  0  0  0  0  0  0  0  0  0
   -0.1853   -1.1745   -0.1640 H   0  0  0  0  0  0  0  0  0  0  0  0
    1.8998    5.9391   -2.7338 H   0  0  0  0  0  0  0  0  0  0  0  0
    3.0186    4.6340   -3.1876 H   0  0  0  0  0  0  0  0  0  0  0  0
    3.7930    4.5006   -0.7959 H   0  0  0  0  0  0  0  0  0  0  0  0
    4.1349    6.0718   -1.5401 H   0  0  0  0  0  0  0  0  0  0  0  0
    2.7945    5.9093   -0.4059 H   0  0  0  0  0  0  0  0  0  0  0  0
   -6.7218    8.5634   -3.2050 H   0  0  0  0  0  0  0  0  0  0  0  0
   -6.3000    6.8388   -3.1509 H   0  0  0  0  0  0  0  0  0  0  0  0
   -4.6904    8.1603   -4.5490 H   0  0  0  0  0  0  0  0  0  0  0  0
   -3.8620    7.4522   -3.1636 H   0  0  0  0  0  0  0  0  0  0  0  0
   -4.3001    9.1646   -3.1458 H   0  0  0  0  0  0  0  0  0  0  0  0
   -6.2187    3.6268    6.5275 H   0  0  0  0  0  0  0  0  0  0  0  0
   -3.4956    9.1730    5.4555 H   0  0  0  0  0  0  0  0  0  0  0  0
   -3.7480   11.6339    5.3553 H   0  0  0  0  0  0  0  0  0  0  0  0
   -5.1949   13.6492    5.4477 H   0  0  0  0  0  0  0  0  0  0  0  0
   -8.6340   11.1980    6.0549 H   0  0  0  0  0  0  0  0  0  0  0  0
   -8.4166    8.7681    6.1484 H   0  0  0  0  0  0  0  0  0  0  0  0
  1  2  2  0  0  0  0
  2  3  1  0  0  0  0
  3  4  2  0  0  0  0
  3  5  1  0  0  0  0
  5  6  2  0  0  0  0
  6  7  1  0  0  0  0
  7  8  2  0  0  0  0
  8  9  1  0  0  0  0
  9 10  2  0  0  0  0
 10 11  1  0  0  0  0
 10 12  1  0  0  0  0
 12 13  2  0  0  0  0
 13 14  1  0  0  0  0
 14 15  2  0  0  0  0
 15 16  1  0  0  0  0
 16 17  2  0  0  0  0
 17 18  1  0  0  0  0
 18 19  3  0  0  0  0
 17 20  1  0  0  0  0
 20 21  3  0  0  0  0
  1 22  1  0  0  0  0
 22 23  2  0  0  0  0
 23 24  1  0  0  0  0
 24 25  2  0  0  0  0
 25 26  1  0  0  0  0
 26 27  2  0  0  0  0
 27 28  1  0  0  0  0
 28 29  2  0  0  0  0
 29 30  1  0  0  0  0
 30 31  1  0  0  0  0
 31 32  1  0  0  0  0
 30 33  2  0  0  0  0
 25 34  1  0  0  0  0
 34 35  1  0  0  0  0
 35 36  1  0  0  0  0
 36 37  1  0  0  0  0
 37 38  1  0  0  0  0
 38 39  1  0  0  0  0
 39 40  2  0  0  0  0
 40 41  1  0  0  0  0
 41 42  1  0  0  0  0
 39 43  1  0  0  0  0
 43 44  1  0  0  0  0
 44 45  1  0  0  0  0
 45 46  1  0  0  0  0
 46 47  1  0  0  0  0
 47 48  1  0  0  0  0
 48 49  2  0  0  0  0
 49 50  1  0  0  0  0
 50 51  2  0  0  0  0
 51 52  1  0  0  0  0
 52 53  1  0  0  0  0
 53 54  1  0  0  0  0
 52 55  2  0  0  0  0
 47 56  2  0  0  0  0
 56 57  1  0  0  0  0
 57 58  1  0  0  0  0
 58 59  1  0  0  0  0
 59 60  1  0  0  0  0
 60 61  1  0  0  0  0
 61 62  1  0  0  0  0
 62 63  1  0  0  0  0
 63 64  1  0  0  0  0
 64 65  1  0  0  0  0
 65 66  1  0  0  0  0
 63 67  1  0  0  0  0
 67 68  1  0  0  0  0
 60 69  1  0  0  0  0
 69 70  1  0  0  0  0
 56 71  1  0  0  0  0
 71 72  1  0  0  0  0
 72 73  2  0  0  0  0
 73 74  1  0  0  0  0
 74 75  1  0  0  0  0
 75 76  2  0  0  0  0
 76 77  1  0  0  0  0
 77 78  2  0  0  0  0
 78 79  1  0  0  0  0
 79 80  1  0  0  0  0
 80 81  1  0  0  0  0
 78 82  1  0  0  0  0
 82 83  2  0  0  0  0
 83 84  1  0  0  0  0
 82 85  1  0  0  0  0
 77 86  1  0  0  0  0
 76 87  1  0  0  0  0
 74 88  2  0  0  0  0
 88 89  1  0  0  0  0
 89 90  2  0  0  0  0
 90 91  1  0  0  0  0
 90 92  1  0  0  0  0
 92 93  1  0  0  0  0
 92 94  2  0  0  0  0
 94 95  1  0  0  0  0
 95 96  1  0  0  0  0
 96 97  1  0  0  0  0
 94 98  1  0  0  0  0
 98 99  1  0  0  0  0
 98100  2  0  0  0  0
100101  1  0  0  0  0
 88102  1  0  0  0  0
102103  2  0  0  0  0
103104  1  0  0  0  0
104105  2  0  0  0  0
105106  1  0  0  0  0
106107  1  0  0  0  0
105108  1  0  0  0  0
104109  1  0  0  0  0
109110  2  0  0  0  0
110111  1  0  0  0  0
111112  2  0  0  0  0
111113  1  0  0  0  0
113114  2  0  0  0  0
114115  1  0  0  0  0
115116  2  0  0  0  0
116117  1  0  0  0  0
117118  2  0  0  0  0
118119  1  0  0  0  0
118120  1  0  0  0  0
120121  2  0  0  0  0
121122  1  0  0  0  0
122123  2  0  0  0  0
123124  1  0  0  0  0
124125  2  0  0  0  0
125126  1  0  0  0  0
126127  3  0  0  0  0
125128  1  0  0  0  0
128129  3  0  0  0  0
 16  2  1  0  0  0  0
 66 24  1  0  0  0  0
106 71  2  0  0  0  0
124110  1  0  0  0  0
 15  5  1  0  0  0  0
 33 26  1  0  0  0  0
 65 34  2  0  0  0  0
103 72  1  0  0  0  0
123113  1  0  0  0  0
 13  7  1  0  0  0  0
 64 36  2  0  0  0  0
 83 75  1  0  0  0  0
100 89  1  0  0  0  0
121115  1  0  0  0  0
 62 37  2  0  0  0  0
 42 38  2  0  0  0  0
 61 43  2  0  0  0  0
 59 44  2  0  0  0  0
 58 46  2  0  0  0  0
 55 48  1  0  0  0  0
  1130  1  0  0  0  0
  6131  1  0  0  0  0
  8132  1  0  0  0  0
  9133  1  0  0  0  0
 12134  1  0  0  0  0
 14135  1  0  0  0  0
 22136  1  0  0  0  0
 23137  1  0  0  0  0
 27138  1  0  0  0  0
 28139  1  0  0  0  0
 29140  1  0  0  0  0
 31141  1  0  0  0  0
 31142  1  0  0  0  0
 32143  1  0  0  0  0
 32144  1  0  0  0  0
 32145  1  0  0  0  0
 33146  1  0  0  0  0
 49147  1  0  0  0  0
 50148  1  0  0  0  0
 51149  1  0  0  0  0
 53150  1  0  0  0  0
 53151  1  0  0  0  0
 54152  1  0  0  0  0
 54153  1  0  0  0  0
 54154  1  0  0  0  0
 55155  1  0  0  0  0
 67156  1  0  0  0  0
 67157  1  0  0  0  0
 68158  1  0  0  0  0
 68159  1  0  0  0  0
 68160  1  0  0  0  0
 69161  1  0  0  0  0
 69162  1  0  0  0  0
 70163  1  0  0  0  0
 70164  1  0  0  0  0
 70165  1  0  0  0  0
 80166  1  0  0  0  0
 80167  1  0  0  0  0
 81168  1  0  0  0  0
 81169  1  0  0  0  0
 81170  1  0  0  0  0
 96171  1  0  0  0  0
 96172  1  0  0  0  0
 97173  1  0  0  0  0
 97174  1  0  0  0  0
 97175  1  0  0  0  0
109176  1  0  0  0  0
114177  1  0  0  0  0
116178  1  0  0  0  0
117179  1  0  0  0  0
120180  1  0  0  0  0
122181  1  0  0  0  0
M  END
