
  xtb     02052222533D
 energy: -286.149837848419 gnorm: 0.000476008023 xtb: 6.4.1 (unknown)
151170  0     0  0            999 V2000
    3.7484   -9.7729   -3.4982 C   0  0  0  0  0  0  0  0  0  0  0  0
    3.6896  -10.6572   -4.5285 C   0  0  0  0  0  0  0  0  0  0  0  0
    2.6626  -10.6266   -5.6054 C   0  0  0  0  0  0  0  0  0  0  0  0
    1.6716   -9.9305   -5.6612 O   0  0  0  0  0  0  0  0  0  0  0  0
    3.0117  -11.7302   -6.5163 C   0  0  0  0  0  0  0  0  0  0  0  0
    2.4189  -12.0831   -7.6942 C   0  0  0  0  0  0  0  0  0  0  0  0
    2.9203  -13.1900   -8.4142 C   0  0  0  0  0  0  0  0  0  0  0  0
    2.3551  -13.5908   -9.6422 C   0  0  0  0  0  0  0  0  0  0  0  0
    2.8501  -14.6645  -10.3285 C   0  0  0  0  0  0  0  0  0  0  0  0
    3.9369  -15.3695   -9.7930 C   0  0  0  0  0  0  0  0  0  0  0  0
    4.4110  -16.4218  -10.4839 F   0  0  0  0  0  0  0  0  0  0  0  0
    4.5218  -15.0241   -8.6067 C   0  0  0  0  0  0  0  0  0  0  0  0
    4.0247  -13.9203   -7.8864 C   0  0  0  0  0  0  0  0  0  0  0  0
    4.6105  -13.5385   -6.6574 C   0  0  0  0  0  0  0  0  0  0  0  0
    4.1135  -12.4554   -5.9812 C   0  0  0  0  0  0  0  0  0  0  0  0
    4.5188  -11.8334   -4.7245 C   0  0  0  0  0  0  0  0  0  0  0  0
    5.5328  -12.2691   -3.9129 C   0  0  0  0  0  0  0  0  0  0  0  0
    5.9340  -11.6587   -2.7059 C   0  0  0  0  0  0  0  0  0  0  0  0
    6.3210  -11.2214   -1.7170 N   0  0  0  0  0  0  0  0  0  0  0  0
    6.3186  -13.4126   -4.1701 C   0  0  0  0  0  0  0  0  0  0  0  0
    6.9913  -14.3311   -4.3174 N   0  0  0  0  0  0  0  0  0  0  0  0
    3.0815   -8.5053   -3.4731 C   0  0  0  0  0  0  0  0  0  0  0  0
    2.6077   -7.9590   -2.2893 C   0  0  0  0  0  0  0  0  0  0  0  0
    1.9066   -6.7588   -2.2633 C   0  0  0  0  0  0  0  0  0  0  0  0
    1.4260   -6.3639   -1.0642 F   0  0  0  0  0  0  0  0  0  0  0  0
    1.6320   -5.9826   -3.3851 C   0  0  0  0  0  0  0  0  0  0  0  0
    2.2374   -6.4497   -4.5840 C   0  0  0  0  0  0  0  0  0  0  0  0
    2.9394   -7.7016   -4.6359 C   0  0  0  0  0  0  0  0  0  0  0  0
    3.4751   -7.9197   -5.8339 N   0  0  0  0  0  0  0  0  0  0  0  0
    3.1136   -6.6860   -6.7973 S   0  0  0  0  0  0  0  0  0  0  0  0
    2.2868   -5.8031   -5.7454 N   0  0  0  0  0  0  0  0  0  0  0  0
    0.8426   -4.7864   -3.3561 C   0  0  0  0  0  0  0  0  0  0  0  0
    0.0413   -4.2666   -4.3629 C   0  0  0  0  0  0  0  0  0  0  0  0
   -0.3000   -4.9512   -5.6088 C   0  0  0  0  0  0  0  0  0  0  0  0
   -0.3521   -4.2368   -6.8026 C   0  0  0  0  0  0  0  0  0  0  0  0
   -0.6702   -4.8859   -7.9794 C   0  0  0  0  0  0  0  0  0  0  0  0
   -0.9399   -6.2433   -7.9784 C   0  0  0  0  0  0  0  0  0  0  0  0
   -0.9045   -6.9713   -6.7954 C   0  0  0  0  0  0  0  0  0  0  0  0
   -1.2160   -8.4401   -6.7771 C   0  0  0  0  0  0  0  0  0  0  0  0
   -2.6219   -8.6932   -6.2306 C   0  0  0  0  0  0  0  0  0  0  0  0
   -0.5962   -6.3110   -5.6159 C   0  0  0  0  0  0  0  0  0  0  0  0
   -0.4835   -3.0141   -3.9937 C   0  0  0  0  0  0  0  0  0  0  0  0
   -1.5346   -1.8799   -4.8112 S   0  0  0  0  0  0  0  0  0  0  0  0
   -1.4386   -0.8343   -3.4353 C   0  0  0  0  0  0  0  0  0  0  0  0
   -1.8733    0.4362   -3.0307 C   0  0  0  0  0  0  0  0  0  0  0  0
   -2.5844    1.4355   -3.7307 C   0  0  0  0  0  0  0  0  0  0  0  0
   -2.7555    2.7207   -3.1187 C   0  0  0  0  0  0  0  0  0  0  0  0
   -3.3845    3.5774   -3.9079 N   0  0  0  0  0  0  0  0  0  0  0  0
   -3.7370    2.8286   -5.2993 S   0  0  0  0  0  0  0  0  0  0  0  0
   -3.0969    1.3833   -4.9501 N   0  0  0  0  0  0  0  0  0  0  0  0
   -2.2983    2.9136   -1.7967 C   0  0  0  0  0  0  0  0  0  0  0  0
   -2.3878    4.0236   -0.9446 C   0  0  0  0  0  0  0  0  0  0  0  0
   -2.9300    5.6668   -0.9799 S   0  0  0  0  0  0  0  0  0  0  0  0
   -2.4443    5.8323    0.6927 C   0  0  0  0  0  0  0  0  0  0  0  0
   -2.4440    6.9231    1.5750 C   0  0  0  0  0  0  0  0  0  0  0  0
   -2.8257    8.2758    1.1623 C   0  0  0  0  0  0  0  0  0  0  0  0
   -4.0305    8.5033    0.5048 C   0  0  0  0  0  0  0  0  0  0  0  0
   -4.3629    9.7859    0.1100 C   0  0  0  0  0  0  0  0  0  0  0  0
   -3.5022   10.8407    0.3601 C   0  0  0  0  0  0  0  0  0  0  0  0
   -2.2838   10.6263    0.9936 C   0  0  0  0  0  0  0  0  0  0  0  0
   -1.3492   11.7615    1.2981 C   0  0  0  0  0  0  0  0  0  0  0  0
   -1.3456   12.0744    2.7958 C   0  0  0  0  0  0  0  0  0  0  0  0
   -1.9536    9.3377    1.3829 C   0  0  0  0  0  0  0  0  0  0  0  0
   -1.9256    6.5685    2.8158 C   0  0  0  0  0  0  0  0  0  0  0  0
   -1.3816    4.9010    2.8656 S   0  0  0  0  0  0  0  0  0  0  0  0
   -1.9029    4.6612    1.2361 C   0  0  0  0  0  0  0  0  0  0  0  0
   -1.8657    3.6300    0.2917 C   0  0  0  0  0  0  0  0  0  0  0  0
   -1.4370    2.3313    0.2306 N   0  0  0  0  0  0  0  0  0  0  0  0
   -1.6722    1.8695   -1.0548 C   0  0  0  0  0  0  0  0  0  0  0  0
   -1.3624    0.6531   -1.7177 C   0  0  0  0  0  0  0  0  0  0  0  0
   -0.6159   -0.4568   -1.3555 N   0  0  0  0  0  0  0  0  0  0  0  0
   -0.6537   -1.3436   -2.3966 C   0  0  0  0  0  0  0  0  0  0  0  0
   -0.1048   -2.5907   -2.7157 C   0  0  0  0  0  0  0  0  0  0  0  0
    0.9027   -3.7532   -1.9390 S   0  0  0  0  0  0  0  0  0  0  0  0
    0.3844   -0.6145   -0.3239 C   0  0  0  0  0  0  0  0  0  0  0  0
    1.5027    0.4150   -0.4659 C   0  0  0  0  0  0  0  0  0  0  0  0
   -1.2243    1.5982    1.4595 C   0  0  0  0  0  0  0  0  0  0  0  0
   -2.3088    0.5461    1.6770 C   0  0  0  0  0  0  0  0  0  0  0  0
   -1.8238    7.3508    4.0061 C   0  0  0  0  0  0  0  0  0  0  0  0
   -2.5773    8.4928    4.2546 C   0  0  0  0  0  0  0  0  0  0  0  0
   -2.3887    9.2518    5.4027 C   0  0  0  0  0  0  0  0  0  0  0  0
   -3.1448   10.3576    5.5338 F   0  0  0  0  0  0  0  0  0  0  0  0
   -1.4345    8.9901    6.3822 C   0  0  0  0  0  0  0  0  0  0  0  0
   -0.7273    7.7724    6.2071 C   0  0  0  0  0  0  0  0  0  0  0  0
   -0.9301    6.9594    5.0414 C   0  0  0  0  0  0  0  0  0  0  0  0
   -0.2040    5.8463    5.0780 N   0  0  0  0  0  0  0  0  0  0  0  0
    0.6336    5.8172    6.4515 S   0  0  0  0  0  0  0  0  0  0  0  0
    0.1155    7.2064    7.0656 N   0  0  0  0  0  0  0  0  0  0  0  0
   -1.2295    9.8457    7.5104 C   0  0  0  0  0  0  0  0  0  0  0  0
   -0.0132   10.0784    8.0737 C   0  0  0  0  0  0  0  0  0  0  0  0
    1.2818    9.8493    7.3780 C   0  0  0  0  0  0  0  0  0  0  0  0
    1.4601    9.4179    6.2590 O   0  0  0  0  0  0  0  0  0  0  0  0
    2.3132   10.4003    8.2762 C   0  0  0  0  0  0  0  0  0  0  0  0
    3.6656   10.4364    8.0946 C   0  0  0  0  0  0  0  0  0  0  0  0
    4.4786   11.0339    9.0830 C   0  0  0  0  0  0  0  0  0  0  0  0
    5.8811   11.0904    8.9502 C   0  0  0  0  0  0  0  0  0  0  0  0
    6.6566   11.6767    9.9114 C   0  0  0  0  0  0  0  0  0  0  0  0
    6.0357   12.2255   11.0417 C   0  0  0  0  0  0  0  0  0  0  0  0
    6.8158   12.7977   11.9770 F   0  0  0  0  0  0  0  0  0  0  0  0
    4.6806   12.1977   11.2202 C   0  0  0  0  0  0  0  0  0  0  0  0
    3.8662   11.5971   10.2403 C   0  0  0  0  0  0  0  0  0  0  0  0
    2.4614   11.5508   10.3977 C   0  0  0  0  0  0  0  0  0  0  0  0
    1.6945   10.9554    9.4314 C   0  0  0  0  0  0  0  0  0  0  0  0
    0.2536   10.7488    9.3313 C   0  0  0  0  0  0  0  0  0  0  0  0
   -0.6670   11.0461   10.3013 C   0  0  0  0  0  0  0  0  0  0  0  0
   -2.0439   10.7473   10.2250 C   0  0  0  0  0  0  0  0  0  0  0  0
   -3.1685   10.5172   10.2478 N   0  0  0  0  0  0  0  0  0  0  0  0
   -0.3506   11.6655   11.5283 C   0  0  0  0  0  0  0  0  0  0  0  0
   -0.1557   12.1714   12.5402 N   0  0  0  0  0  0  0  0  0  0  0  0
    4.3353  -10.0115   -2.6207 H   0  0  0  0  0  0  0  0  0  0  0  0
    1.5811  -11.5188   -8.0758 H   0  0  0  0  0  0  0  0  0  0  0  0
    1.5183  -13.0327  -10.0346 H   0  0  0  0  0  0  0  0  0  0  0  0
    2.4293  -14.9844  -11.2685 H   0  0  0  0  0  0  0  0  0  0  0  0
    5.3572  -15.5896   -8.2242 H   0  0  0  0  0  0  0  0  0  0  0  0
    5.4409  -14.1154   -6.2836 H   0  0  0  0  0  0  0  0  0  0  0  0
    2.7203   -8.4986   -1.3611 H   0  0  0  0  0  0  0  0  0  0  0  0
   -0.1169   -3.1839   -6.8093 H   0  0  0  0  0  0  0  0  0  0  0  0
   -0.7030   -4.3305   -8.9051 H   0  0  0  0  0  0  0  0  0  0  0  0
   -1.1799   -6.7446   -8.9053 H   0  0  0  0  0  0  0  0  0  0  0  0
   -1.1480   -8.8401   -7.7908 H   0  0  0  0  0  0  0  0  0  0  0  0
   -0.4836   -8.9605   -6.1571 H   0  0  0  0  0  0  0  0  0  0  0  0
   -3.3654   -8.2003   -6.8540 H   0  0  0  0  0  0  0  0  0  0  0  0
   -2.7142   -8.3050   -5.2190 H   0  0  0  0  0  0  0  0  0  0  0  0
   -2.8354   -9.7594   -6.2122 H   0  0  0  0  0  0  0  0  0  0  0  0
   -0.5793   -6.8662   -4.6883 H   0  0  0  0  0  0  0  0  0  0  0  0
   -4.7060    7.6813    0.3224 H   0  0  0  0  0  0  0  0  0  0  0  0
   -5.3014    9.9644   -0.3931 H   0  0  0  0  0  0  0  0  0  0  0  0
   -3.7753   11.8403    0.0548 H   0  0  0  0  0  0  0  0  0  0  0  0
   -0.3362   11.4964    0.9862 H   0  0  0  0  0  0  0  0  0  0  0  0
   -1.6548   12.6500    0.7428 H   0  0  0  0  0  0  0  0  0  0  0  0
   -2.3520   12.3035    3.1393 H   0  0  0  0  0  0  0  0  0  0  0  0
   -0.7060   12.9293    3.0020 H   0  0  0  0  0  0  0  0  0  0  0  0
   -0.9757   11.2243    3.3650 H   0  0  0  0  0  0  0  0  0  0  0  0
   -1.0041    9.1501    1.8642 H   0  0  0  0  0  0  0  0  0  0  0  0
   -0.0736   -0.5787    0.6644 H   0  0  0  0  0  0  0  0  0  0  0  0
    0.8011   -1.6171   -0.4465 H   0  0  0  0  0  0  0  0  0  0  0  0
    1.1138    1.4294   -0.4194 H   0  0  0  0  0  0  0  0  0  0  0  0
    2.0038    0.2877   -1.4226 H   0  0  0  0  0  0  0  0  0  0  0  0
    2.2330    0.2804    0.3274 H   0  0  0  0  0  0  0  0  0  0  0  0
   -0.2265    1.1591    1.4811 H   0  0  0  0  0  0  0  0  0  0  0  0
   -1.2674    2.3328    2.2675 H   0  0  0  0  0  0  0  0  0  0  0  0
   -2.3444   -0.1623    0.8528 H   0  0  0  0  0  0  0  0  0  0  0  0
   -2.1192    0.0037    2.5993 H   0  0  0  0  0  0  0  0  0  0  0  0
   -3.2817    1.0263    1.7517 H   0  0  0  0  0  0  0  0  0  0  0  0
   -3.3241    8.8212    3.5508 H   0  0  0  0  0  0  0  0  0  0  0  0
   -2.1106   10.3424    7.8978 H   0  0  0  0  0  0  0  0  0  0  0  0
    4.1104   10.0105    7.2076 H   0  0  0  0  0  0  0  0  0  0  0  0
    6.3362   10.6612    8.0702 H   0  0  0  0  0  0  0  0  0  0  0  0
    7.7303   11.7292    9.8248 H   0  0  0  0  0  0  0  0  0  0  0  0
    4.2370   12.6294   12.1038 H   0  0  0  0  0  0  0  0  0  0  0  0
    2.0277   11.9934   11.2800 H   0  0  0  0  0  0  0  0  0  0  0  0
  1  2  2  0  0  0  0
  2  3  1  0  0  0  0
  3  4  2  0  0  0  0
  3  5  1  0  0  0  0
  5  6  2  0  0  0  0
  6  7  1  0  0  0  0
  7  8  2  0  0  0  0
  8  9  1  0  0  0  0
  9 10  2  0  0  0  0
 10 11  1  0  0  0  0
 10 12  1  0  0  0  0
 12 13  2  0  0  0  0
 13 14  1  0  0  0  0
 14 15  2  0  0  0  0
 15 16  1  0  0  0  0
 16 17  2  0  0  0  0
 17 18  1  0  0  0  0
 18 19  3  0  0  0  0
 17 20  1  0  0  0  0
 20 21  3  0  0  0  0
  1 22  1  0  0  0  0
 22 23  2  0  0  0  0
 23 24  1  0  0  0  0
 24 25  1  0  0  0  0
 24 26  2  0  0  0  0
 26 27  1  0  0  0  0
 27 28  1  0  0  0  0
 28 29  2  0  0  0  0
 29 30  1  0  0  0  0
 30 31  1  0  0  0  0
 26 32  1  0  0  0  0
 32 33  2  0  0  0  0
 33 34  1  0  0  0  0
 34 35  2  0  0  0  0
 35 36  1  0  0  0  0
 36 37  2  0  0  0  0
 37 38  1  0  0  0  0
 38 39  1  0  0  0  0
 39 40  1  0  0  0  0
 38 41  2  0  0  0  0
 33 42  1  0  0  0  0
 42 43  1  0  0  0  0
 43 44  1  0  0  0  0
 44 45  1  0  0  0  0
 45 46  1  0  0  0  0
 46 47  1  0  0  0  0
 47 48  2  0  0  0  0
 48 49  1  0  0  0  0
 49 50  1  0  0  0  0
 47 51  1  0  0  0  0
 51 52  1  0  0  0  0
 52 53  1  0  0  0  0
 53 54  1  0  0  0  0
 54 55  1  0  0  0  0
 55 56  1  0  0  0  0
 56 57  2  0  0  0  0
 57 58  1  0  0  0  0
 58 59  2  0  0  0  0
 59 60  1  0  0  0  0
 60 61  1  0  0  0  0
 61 62  1  0  0  0  0
 60 63  2  0  0  0  0
 55 64  2  0  0  0  0
 64 65  1  0  0  0  0
 65 66  1  0  0  0  0
 66 67  1  0  0  0  0
 67 68  1  0  0  0  0
 68 69  1  0  0  0  0
 69 70  1  0  0  0  0
 70 71  1  0  0  0  0
 71 72  1  0  0  0  0
 72 73  1  0  0  0  0
 73 74  1  0  0  0  0
 71 75  1  0  0  0  0
 75 76  1  0  0  0  0
 68 77  1  0  0  0  0
 77 78  1  0  0  0  0
 64 79  1  0  0  0  0
 79 80  2  0  0  0  0
 80 81  1  0  0  0  0
 81 82  1  0  0  0  0
 81 83  2  0  0  0  0
 83 84  1  0  0  0  0
 84 85  1  0  0  0  0
 85 86  2  0  0  0  0
 86 87  1  0  0  0  0
 87 88  1  0  0  0  0
 83 89  1  0  0  0  0
 89 90  2  0  0  0  0
 90 91  1  0  0  0  0
 91 92  2  0  0  0  0
 91 93  1  0  0  0  0
 93 94  2  0  0  0  0
 94 95  1  0  0  0  0
 95 96  2  0  0  0  0
 96 97  1  0  0  0  0
 97 98  2  0  0  0  0
 98 99  1  0  0  0  0
 98100  1  0  0  0  0
100101  2  0  0  0  0
101102  1  0  0  0  0
102103  2  0  0  0  0
103104  1  0  0  0  0
104105  2  0  0  0  0
105106  1  0  0  0  0
106107  3  0  0  0  0
105108  1  0  0  0  0
108109  3  0  0  0  0
 16  2  1  0  0  0  0
 28 22  1  0  0  0  0
 74 32  1  0  0  0  0
 85 79  1  0  0  0  0
104 90  1  0  0  0  0
 15  5  1  0  0  0  0
 31 27  2  0  0  0  0
 41 34  1  0  0  0  0
 73 42  2  0  0  0  0
 88 84  2  0  0  0  0
103 93  1  0  0  0  0
 13  7  1  0  0  0  0
 72 44  2  0  0  0  0
101 95  1  0  0  0  0
 70 45  2  0  0  0  0
 50 46  2  0  0  0  0
 69 51  2  0  0  0  0
 67 52  2  0  0  0  0
 66 54  2  0  0  0  0
 63 56  1  0  0  0  0
  1110  1  0  0  0  0
  6111  1  0  0  0  0
  8112  1  0  0  0  0
  9113  1  0  0  0  0
 12114  1  0  0  0  0
 14115  1  0  0  0  0
 23116  1  0  0  0  0
 35117  1  0  0  0  0
 36118  1  0  0  0  0
 37119  1  0  0  0  0
 39120  1  0  0  0  0
 39121  1  0  0  0  0
 40122  1  0  0  0  0
 40123  1  0  0  0  0
 40124  1  0  0  0  0
 41125  1  0  0  0  0
 57126  1  0  0  0  0
 58127  1  0  0  0  0
 59128  1  0  0  0  0
 61129  1  0  0  0  0
 61130  1  0  0  0  0
 62131  1  0  0  0  0
 62132  1  0  0  0  0
 62133  1  0  0  0  0
 63134  1  0  0  0  0
 75135  1  0  0  0  0
 75136  1  0  0  0  0
 76137  1  0  0  0  0
 76138  1  0  0  0  0
 76139  1  0  0  0  0
 77140  1  0  0  0  0
 77141  1  0  0  0  0
 78142  1  0  0  0  0
 78143  1  0  0  0  0
 78144  1  0  0  0  0
 80145  1  0  0  0  0
 89146  1  0  0  0  0
 94147  1  0  0  0  0
 96148  1  0  0  0  0
 97149  1  0  0  0  0
100150  1  0  0  0  0
102151  1  0  0  0  0
M  END
