
  xtb     02052201233D
 energy: -298.338350131354 gnorm: 0.000566610055 xtb: 6.4.1 (unknown)
160180  0     0  0            999 V2000
  -10.2736   -4.0963    6.3371 C   0  0  0  0  0  0  0  0  0  0  0  0
  -10.0173   -5.4144    6.1318 C   0  0  0  0  0  0  0  0  0  0  0  0
   -8.9393   -5.9197    5.2309 C   0  0  0  0  0  0  0  0  0  0  0  0
   -8.1041   -5.2702    4.6426 O   0  0  0  0  0  0  0  0  0  0  0  0
   -9.1877   -7.3650    5.0981 C   0  0  0  0  0  0  0  0  0  0  0  0
   -8.4833   -8.2811    4.3710 C   0  0  0  0  0  0  0  0  0  0  0  0
   -8.8952   -9.6317    4.3805 C   0  0  0  0  0  0  0  0  0  0  0  0
   -8.1975  -10.6206    3.6570 C   0  0  0  0  0  0  0  0  0  0  0  0
   -8.6085  -11.9243    3.6705 C   0  0  0  0  0  0  0  0  0  0  0  0
   -9.7419  -12.2703    4.4194 C   0  0  0  0  0  0  0  0  0  0  0  0
  -10.1307  -13.5578    4.4202 F   0  0  0  0  0  0  0  0  0  0  0  0
  -10.4540  -11.3516    5.1391 C   0  0  0  0  0  0  0  0  0  0  0  0
  -10.0445  -10.0038    5.1378 C   0  0  0  0  0  0  0  0  0  0  0  0
  -10.7574   -9.0315    5.8769 C   0  0  0  0  0  0  0  0  0  0  0  0
  -10.3318   -7.7293    5.8630 C   0  0  0  0  0  0  0  0  0  0  0  0
  -10.8435   -6.5388    6.5315 C   0  0  0  0  0  0  0  0  0  0  0  0
  -11.8577   -6.5032    7.4507 C   0  0  0  0  0  0  0  0  0  0  0  0
  -12.6157   -7.6296    7.8340 C   0  0  0  0  0  0  0  0  0  0  0  0
  -13.2691   -8.5075    8.1800 N   0  0  0  0  0  0  0  0  0  0  0  0
  -12.2543   -5.3491    8.1599 C   0  0  0  0  0  0  0  0  0  0  0  0
  -12.6084   -4.4568    8.7893 N   0  0  0  0  0  0  0  0  0  0  0  0
   -9.3465   -3.0404    6.0536 C   0  0  0  0  0  0  0  0  0  0  0  0
   -7.9814   -3.1039    6.2907 C   0  0  0  0  0  0  0  0  0  0  0  0
   -7.4636   -4.1580    6.9274 F   0  0  0  0  0  0  0  0  0  0  0  0
   -7.0918   -2.0580    5.9881 C   0  0  0  0  0  0  0  0  0  0  0  0
   -5.7995   -2.2623    6.3003 F   0  0  0  0  0  0  0  0  0  0  0  0
   -7.4707   -0.8400    5.4390 C   0  0  0  0  0  0  0  0  0  0  0  0
   -8.8708   -0.7341    5.1913 C   0  0  0  0  0  0  0  0  0  0  0  0
   -9.7836   -1.8027    5.5141 C   0  0  0  0  0  0  0  0  0  0  0  0
  -10.9865   -1.4138    5.1434 N   0  0  0  0  0  0  0  0  0  0  0  0
  -10.8375   -0.1975    4.6220 O   0  0  0  0  0  0  0  0  0  0  0  0
   -9.5797    0.2243    4.6332 N   0  0  0  0  0  0  0  0  0  0  0  0
   -6.5450    0.1957    5.1031 C   0  0  0  0  0  0  0  0  0  0  0  0
   -6.7573    1.5702    5.0723 C   0  0  0  0  0  0  0  0  0  0  0  0
   -7.9395    2.2346    5.6136 C   0  0  0  0  0  0  0  0  0  0  0  0
   -8.5264    3.3004    4.9385 C   0  0  0  0  0  0  0  0  0  0  0  0
   -9.6577    3.8999    5.4569 C   0  0  0  0  0  0  0  0  0  0  0  0
  -10.2090    3.4489    6.6435 C   0  0  0  0  0  0  0  0  0  0  0  0
   -9.6199    2.4046    7.3454 C   0  0  0  0  0  0  0  0  0  0  0  0
  -10.2255    1.8766    8.6147 C   0  0  0  0  0  0  0  0  0  0  0  0
  -10.9444    0.5508    8.3556 C   0  0  0  0  0  0  0  0  0  0  0  0
   -8.4796    1.8137    6.8253 C   0  0  0  0  0  0  0  0  0  0  0  0
   -5.6389    2.2404    4.5513 C   0  0  0  0  0  0  0  0  0  0  0  0
   -5.3011    3.9289    4.2454 S   0  0  0  0  0  0  0  0  0  0  0  0
   -3.7426    3.4849    3.6372 C   0  0  0  0  0  0  0  0  0  0  0  0
   -2.6408    4.0776    3.0019 C   0  0  0  0  0  0  0  0  0  0  0  0
   -2.4283    5.3865    2.5122 C   0  0  0  0  0  0  0  0  0  0  0  0
   -1.2993    5.6381    1.6585 C   0  0  0  0  0  0  0  0  0  0  0  0
   -1.2786    6.8809    1.2036 N   0  0  0  0  0  0  0  0  0  0  0  0
   -2.5581    7.6704    1.8034 S   0  0  0  0  0  0  0  0  0  0  0  0
   -3.1948    6.4548    2.6617 N   0  0  0  0  0  0  0  0  0  0  0  0
   -0.3618    4.6045    1.4369 C   0  0  0  0  0  0  0  0  0  0  0  0
    0.8267    4.5463    0.6879 C   0  0  0  0  0  0  0  0  0  0  0  0
    1.7396    5.5177   -0.4182 S   0  0  0  0  0  0  0  0  0  0  0  0
    2.8780    4.2026   -0.6075 C   0  0  0  0  0  0  0  0  0  0  0  0
    4.0348    4.0383   -1.3974 C   0  0  0  0  0  0  0  0  0  0  0  0
    4.6023    5.1136   -2.2120 C   0  0  0  0  0  0  0  0  0  0  0  0
    5.9683    5.3881   -2.1769 C   0  0  0  0  0  0  0  0  0  0  0  0
    6.4779    6.4405   -2.9118 C   0  0  0  0  0  0  0  0  0  0  0  0
    5.6376    7.2313   -3.6780 C   0  0  0  0  0  0  0  0  0  0  0  0
    4.2729    6.9771   -3.7187 C   0  0  0  0  0  0  0  0  0  0  0  0
    3.3420    7.8675   -4.4888 C   0  0  0  0  0  0  0  0  0  0  0  0
    2.7594    8.9397   -3.5656 C   0  0  0  0  0  0  0  0  0  0  0  0
    3.7674    5.9160   -2.9816 C   0  0  0  0  0  0  0  0  0  0  0  0
    4.5741    2.7726   -1.2308 C   0  0  0  0  0  0  0  0  0  0  0  0
    3.6923    1.8093   -0.0556 S   0  0  0  0  0  0  0  0  0  0  0  0
    2.5628    3.0920    0.1772 C   0  0  0  0  0  0  0  0  0  0  0  0
    1.3899    3.2875    0.9134 C   0  0  0  0  0  0  0  0  0  0  0  0
    0.6030    2.5594    1.7675 N   0  0  0  0  0  0  0  0  0  0  0  0
   -0.5034    3.3376    2.0673 C   0  0  0  0  0  0  0  0  0  0  0  0
   -1.7133    3.0308    2.7341 C   0  0  0  0  0  0  0  0  0  0  0  0
   -2.2585    1.8358    3.1590 N   0  0  0  0  0  0  0  0  0  0  0  0
   -3.4870    2.1088    3.6993 C   0  0  0  0  0  0  0  0  0  0  0  0
   -4.5730    1.3957    4.2128 C   0  0  0  0  0  0  0  0  0  0  0  0
   -4.9416   -0.2527    4.5476 S   0  0  0  0  0  0  0  0  0  0  0  0
   -1.8982    0.4772    2.8163 C   0  0  0  0  0  0  0  0  0  0  0  0
   -1.4693   -0.3347    4.0386 C   0  0  0  0  0  0  0  0  0  0  0  0
    1.2127    1.5304    2.5835 C   0  0  0  0  0  0  0  0  0  0  0  0
    2.3491    2.0982    3.4339 C   0  0  0  0  0  0  0  0  0  0  0  0
    5.6155    2.1301   -1.9601 C   0  0  0  0  0  0  0  0  0  0  0  0
    6.3762    0.6985   -1.2752 S   0  0  0  0  0  0  0  0  0  0  0  0
    7.2955    0.4857   -2.7176 C   0  0  0  0  0  0  0  0  0  0  0  0
    8.2044   -0.3826   -3.3123 C   0  0  0  0  0  0  0  0  0  0  0  0
    8.4575    0.1300   -4.6135 C   0  0  0  0  0  0  0  0  0  0  0  0
    7.7537    1.2925   -4.7984 N   0  0  0  0  0  0  0  0  0  0  0  0
    7.5720    1.9668   -6.0593 C   0  0  0  0  0  0  0  0  0  0  0  0
    6.4464    1.3259   -6.8685 C   0  0  0  0  0  0  0  0  0  0  0  0
    7.0181    1.5002   -3.6636 C   0  0  0  0  0  0  0  0  0  0  0  0
    6.0682    2.4272   -3.2289 C   0  0  0  0  0  0  0  0  0  0  0  0
    9.2982   -0.6690   -5.3717 C   0  0  0  0  0  0  0  0  0  0  0  0
    9.6973   -1.8069   -4.6785 C   0  0  0  0  0  0  0  0  0  0  0  0
    9.0565   -1.8433   -3.0298 S   0  0  0  0  0  0  0  0  0  0  0  0
   10.5285   -2.8642   -5.0746 C   0  0  0  0  0  0  0  0  0  0  0  0
   10.9692   -3.2402   -6.3168 C   0  0  0  0  0  0  0  0  0  0  0  0
   12.1660   -4.1188   -6.3900 C   0  0  0  0  0  0  0  0  0  0  0  0
   12.6952   -4.6994   -5.4681 O   0  0  0  0  0  0  0  0  0  0  0  0
   12.5905   -4.0900   -7.8030 C   0  0  0  0  0  0  0  0  0  0  0  0
   13.6930   -4.6467   -8.3824 C   0  0  0  0  0  0  0  0  0  0  0  0
   13.9117   -4.4616   -9.7665 C   0  0  0  0  0  0  0  0  0  0  0  0
   15.0316   -5.0180  -10.4172 C   0  0  0  0  0  0  0  0  0  0  0  0
   15.2354   -4.8278  -11.7558 C   0  0  0  0  0  0  0  0  0  0  0  0
   14.3097   -4.0657  -12.4805 C   0  0  0  0  0  0  0  0  0  0  0  0
   14.5271   -3.8877  -13.7972 F   0  0  0  0  0  0  0  0  0  0  0  0
   13.2073   -3.5039  -11.8991 C   0  0  0  0  0  0  0  0  0  0  0  0
   12.9806   -3.6920  -10.5220 C   0  0  0  0  0  0  0  0  0  0  0  0
   11.8425   -3.1327   -9.8943 C   0  0  0  0  0  0  0  0  0  0  0  0
   11.6462   -3.3362   -8.5558 C   0  0  0  0  0  0  0  0  0  0  0  0
   10.5636   -2.9230   -7.6613 C   0  0  0  0  0  0  0  0  0  0  0  0
    9.3158   -2.5381   -8.0921 C   0  0  0  0  0  0  0  0  0  0  0  0
    8.9820   -2.3077   -9.4413 C   0  0  0  0  0  0  0  0  0  0  0  0
    8.6486   -2.0672  -10.5140 N   0  0  0  0  0  0  0  0  0  0  0  0
    8.1884   -2.3885   -7.2657 C   0  0  0  0  0  0  0  0  0  0  0  0
    7.2210   -2.2585   -6.6593 N   0  0  0  0  0  0  0  0  0  0  0  0
  -11.2454   -3.7729    6.6865 H   0  0  0  0  0  0  0  0  0  0  0  0
   -7.6179   -7.9783    3.8007 H   0  0  0  0  0  0  0  0  0  0  0  0
   -7.3275  -10.3294    3.0879 H   0  0  0  0  0  0  0  0  0  0  0  0
   -8.0869  -12.6928    3.1223 H   0  0  0  0  0  0  0  0  0  0  0  0
  -11.3206  -11.6546    5.7059 H   0  0  0  0  0  0  0  0  0  0  0  0
  -11.6266   -9.3426    6.4339 H   0  0  0  0  0  0  0  0  0  0  0  0
   -8.1126    3.6348    4.0000 H   0  0  0  0  0  0  0  0  0  0  0  0
  -10.1196    4.7193    4.9270 H   0  0  0  0  0  0  0  0  0  0  0  0
  -11.1028    3.9143    7.0330 H   0  0  0  0  0  0  0  0  0  0  0  0
   -9.4430    1.7199    9.3609 H   0  0  0  0  0  0  0  0  0  0  0  0
  -10.9377    2.6004    9.0138 H   0  0  0  0  0  0  0  0  0  0  0  0
  -10.2400   -0.2069    8.0166 H   0  0  0  0  0  0  0  0  0  0  0  0
  -11.7082    0.6759    7.5910 H   0  0  0  0  0  0  0  0  0  0  0  0
  -11.4201    0.1901    9.2640 H   0  0  0  0  0  0  0  0  0  0  0  0
   -7.9979    1.0145    7.3726 H   0  0  0  0  0  0  0  0  0  0  0  0
    6.6199    4.7831   -1.5643 H   0  0  0  0  0  0  0  0  0  0  0  0
    7.5367    6.6524   -2.8806 H   0  0  0  0  0  0  0  0  0  0  0  0
    6.0444    8.0562   -4.2450 H   0  0  0  0  0  0  0  0  0  0  0  0
    3.8783    8.3478   -5.3095 H   0  0  0  0  0  0  0  0  0  0  0  0
    2.5268    7.2761   -4.9106 H   0  0  0  0  0  0  0  0  0  0  0  0
    2.2137    8.4771   -2.7464 H   0  0  0  0  0  0  0  0  0  0  0  0
    3.5563    9.5490   -3.1447 H   0  0  0  0  0  0  0  0  0  0  0  0
    2.0805    9.5869   -4.1157 H   0  0  0  0  0  0  0  0  0  0  0  0
    2.7088    5.7035   -3.0150 H   0  0  0  0  0  0  0  0  0  0  0  0
   -1.1217    0.4998    2.0513 H   0  0  0  0  0  0  0  0  0  0  0  0
   -2.7819    0.0004    2.3770 H   0  0  0  0  0  0  0  0  0  0  0  0
   -0.6991    0.1754    4.6130 H   0  0  0  0  0  0  0  0  0  0  0  0
   -1.0878   -1.3005    3.7203 H   0  0  0  0  0  0  0  0  0  0  0  0
   -2.3173   -0.5027    4.6965 H   0  0  0  0  0  0  0  0  0  0  0  0
    0.4655    1.1122    3.2479 H   0  0  0  0  0  0  0  0  0  0  0  0
    1.5991    0.7469    1.9239 H   0  0  0  0  0  0  0  0  0  0  0  0
    3.1517    2.4820    2.8106 H   0  0  0  0  0  0  0  0  0  0  0  0
    2.7526    1.3145    4.0692 H   0  0  0  0  0  0  0  0  0  0  0  0
    1.9805    2.9053    4.0638 H   0  0  0  0  0  0  0  0  0  0  0  0
    7.3470    3.0171   -5.8553 H   0  0  0  0  0  0  0  0  0  0  0  0
    8.5136    1.9127   -6.6119 H   0  0  0  0  0  0  0  0  0  0  0  0
    6.6409    0.2647   -7.0104 H   0  0  0  0  0  0  0  0  0  0  0  0
    5.4991    1.4330   -6.3455 H   0  0  0  0  0  0  0  0  0  0  0  0
    6.3659    1.8023   -7.8413 H   0  0  0  0  0  0  0  0  0  0  0  0
    5.6948    3.2535   -3.8043 H   0  0  0  0  0  0  0  0  0  0  0  0
    9.6458   -0.4345   -6.3613 H   0  0  0  0  0  0  0  0  0  0  0  0
   10.9469   -3.4560   -4.2649 H   0  0  0  0  0  0  0  0  0  0  0  0
   14.3907   -5.2226   -7.7931 H   0  0  0  0  0  0  0  0  0  0  0  0
   15.7310   -5.6013   -9.8374 H   0  0  0  0  0  0  0  0  0  0  0  0
   16.0866   -5.2469  -12.2685 H   0  0  0  0  0  0  0  0  0  0  0  0
   12.5129   -2.9263  -12.4891 H   0  0  0  0  0  0  0  0  0  0  0  0
   11.1591   -2.5501  -10.4915 H   0  0  0  0  0  0  0  0  0  0  0  0
  1  2  2  0  0  0  0
  2  3  1  0  0  0  0
  3  4  2  0  0  0  0
  3  5  1  0  0  0  0
  5  6  2  0  0  0  0
  6  7  1  0  0  0  0
  7  8  2  0  0  0  0
  8  9  1  0  0  0  0
  9 10  2  0  0  0  0
 10 11  1  0  0  0  0
 10 12  1  0  0  0  0
 12 13  2  0  0  0  0
 13 14  1  0  0  0  0
 14 15  2  0  0  0  0
 15 16  1  0  0  0  0
 16 17  2  0  0  0  0
 17 18  1  0  0  0  0
 18 19  3  0  0  0  0
 17 20  1  0  0  0  0
 20 21  3  0  0  0  0
  1 22  1  0  0  0  0
 22 23  2  0  0  0  0
 23 24  1  0  0  0  0
 23 25  1  0  0  0  0
 25 26  1  0  0  0  0
 25 27  2  0  0  0  0
 27 28  1  0  0  0  0
 28 29  1  0  0  0  0
 29 30  2  0  0  0  0
 30 31  1  0  0  0  0
 31 32  1  0  0  0  0
 27 33  1  0  0  0  0
 33 34  2  0  0  0  0
 34 35  1  0  0  0  0
 35 36  2  0  0  0  0
 36 37  1  0  0  0  0
 37 38  2  0  0  0  0
 38 39  1  0  0  0  0
 39 40  1  0  0  0  0
 40 41  1  0  0  0  0
 39 42  2  0  0  0  0
 34 43  1  0  0  0  0
 43 44  1  0  0  0  0
 44 45  1  0  0  0  0
 45 46  1  0  0  0  0
 46 47  1  0  0  0  0
 47 48  1  0  0  0  0
 48 49  2  0  0  0  0
 49 50  1  0  0  0  0
 50 51  1  0  0  0  0
 48 52  1  0  0  0  0
 52 53  1  0  0  0  0
 53 54  1  0  0  0  0
 54 55  1  0  0  0  0
 55 56  1  0  0  0  0
 56 57  1  0  0  0  0
 57 58  2  0  0  0  0
 58 59  1  0  0  0  0
 59 60  2  0  0  0  0
 60 61  1  0  0  0  0
 61 62  1  0  0  0  0
 62 63  1  0  0  0  0
 61 64  2  0  0  0  0
 56 65  2  0  0  0  0
 65 66  1  0  0  0  0
 66 67  1  0  0  0  0
 67 68  1  0  0  0  0
 68 69  1  0  0  0  0
 69 70  1  0  0  0  0
 70 71  1  0  0  0  0
 71 72  1  0  0  0  0
 72 73  1  0  0  0  0
 73 74  1  0  0  0  0
 74 75  1  0  0  0  0
 72 76  1  0  0  0  0
 76 77  1  0  0  0  0
 69 78  1  0  0  0  0
 78 79  1  0  0  0  0
 65 80  1  0  0  0  0
 80 81  1  0  0  0  0
 81 82  1  0  0  0  0
 82 83  1  0  0  0  0
 83 84  2  0  0  0  0
 84 85  1  0  0  0  0
 85 86  1  0  0  0  0
 86 87  1  0  0  0  0
 85 88  1  0  0  0  0
 88 89  1  0  0  0  0
 84 90  1  0  0  0  0
 90 91  2  0  0  0  0
 91 92  1  0  0  0  0
 91 93  1  0  0  0  0
 93 94  2  0  0  0  0
 94 95  1  0  0  0  0
 95 96  2  0  0  0  0
 95 97  1  0  0  0  0
 97 98  2  0  0  0  0
 98 99  1  0  0  0  0
 99100  2  0  0  0  0
100101  1  0  0  0  0
101102  2  0  0  0  0
102103  1  0  0  0  0
102104  1  0  0  0  0
104105  2  0  0  0  0
105106  1  0  0  0  0
106107  2  0  0  0  0
107108  1  0  0  0  0
108109  2  0  0  0  0
109110  1  0  0  0  0
110111  3  0  0  0  0
109112  1  0  0  0  0
112113  3  0  0  0  0
 16  2  1  0  0  0  0
 29 22  1  0  0  0  0
 75 33  1  0  0  0  0
 89 80  2  0  0  0  0
108 94  1  0  0  0  0
 15  5  1  0  0  0  0
 32 28  2  0  0  0  0
 42 35  1  0  0  0  0
 74 43  2  0  0  0  0
 88 82  2  0  0  0  0
107 97  1  0  0  0  0
 13  7  1  0  0  0  0
 73 45  2  0  0  0  0
 92 83  1  0  0  0  0
105 99  1  0  0  0  0
 71 46  2  0  0  0  0
 51 47  2  0  0  0  0
 70 52  2  0  0  0  0
 68 53  2  0  0  0  0
 67 55  2  0  0  0  0
 64 57  1  0  0  0  0
  1114  1  0  0  0  0
  6115  1  0  0  0  0
  8116  1  0  0  0  0
  9117  1  0  0  0  0
 12118  1  0  0  0  0
 14119  1  0  0  0  0
 36120  1  0  0  0  0
 37121  1  0  0  0  0
 38122  1  0  0  0  0
 40123  1  0  0  0  0
 40124  1  0  0  0  0
 41125  1  0  0  0  0
 41126  1  0  0  0  0
 41127  1  0  0  0  0
 42128  1  0  0  0  0
 58129  1  0  0  0  0
 59130  1  0  0  0  0
 60131  1  0  0  0  0
 62132  1  0  0  0  0
 62133  1  0  0  0  0
 63134  1  0  0  0  0
 63135  1  0  0  0  0
 63136  1  0  0  0  0
 64137  1  0  0  0  0
 76138  1  0  0  0  0
 76139  1  0  0  0  0
 77140  1  0  0  0  0
 77141  1  0  0  0  0
 77142  1  0  0  0  0
 78143  1  0  0  0  0
 78144  1  0  0  0  0
 79145  1  0  0  0  0
 79146  1  0  0  0  0
 79147  1  0  0  0  0
 86148  1  0  0  0  0
 86149  1  0  0  0  0
 87150  1  0  0  0  0
 87151  1  0  0  0  0
 87152  1  0  0  0  0
 89153  1  0  0  0  0
 90154  1  0  0  0  0
 93155  1  0  0  0  0
 98156  1  0  0  0  0
100157  1  0  0  0  0
101158  1  0  0  0  0
104159  1  0  0  0  0
106160  1  0  0  0  0
M  END
