160

C        -10.27360       -4.09630        6.33710
C        -10.01730       -5.41440        6.13180
C         -8.93930       -5.91970        5.23090
O         -8.10410       -5.27020        4.64260
C         -9.18770       -7.36500        5.09810
C         -8.48330       -8.28110        4.37100
C         -8.89520       -9.63170        4.38050
C         -8.19750      -10.62060        3.65700
C         -8.60850      -11.92430        3.67050
C         -9.74190      -12.27030        4.41940
F        -10.13070      -13.55780        4.42020
C        -10.45400      -11.35160        5.13910
C        -10.04450      -10.00380        5.13780
C        -10.75740       -9.03150        5.87690
C        -10.33180       -7.72930        5.86300
C        -10.84350       -6.53880        6.53150
C        -11.85770       -6.50320        7.45070
C        -12.61570       -7.62960        7.83400
N        -13.26910       -8.50750        8.18000
C        -12.25430       -5.34910        8.15990
N        -12.60840       -4.45680        8.78930
C         -9.34650       -3.04040        6.05360
C         -7.98140       -3.10390        6.29070
F         -7.46360       -4.15800        6.92740
C         -7.09180       -2.05800        5.98810
F         -5.79950       -2.26230        6.30030
C         -7.47070       -0.84000        5.43900
C         -8.87080       -0.73410        5.19130
C         -9.78360       -1.80270        5.51410
N        -10.98650       -1.41380        5.14340
O        -10.83750       -0.19750        4.62200
N         -9.57970        0.22430        4.63320
C         -6.54500        0.19570        5.10310
C         -6.75730        1.57020        5.07230
C         -7.93950        2.23460        5.61360
C         -8.52640        3.30040        4.93850
C         -9.65770        3.89990        5.45690
C        -10.20900        3.44890        6.64350
C         -9.61990        2.40460        7.34540
C        -10.22550        1.87660        8.61470
C        -10.94440        0.55080        8.35560
C         -8.47960        1.81370        6.82530
C         -5.63890        2.24040        4.55130
S         -5.30110        3.92890        4.24540
C         -3.74260        3.48490        3.63720
C         -2.64080        4.07760        3.00190
C         -2.42830        5.38650        2.51220
C         -1.29930        5.63810        1.65850
N         -1.27860        6.88090        1.20360
S         -2.55810        7.67040        1.80340
N         -3.19480        6.45480        2.66170
C         -0.36180        4.60450        1.43690
C          0.82670        4.54630        0.68790
S          1.73960        5.51770       -0.41820
C          2.87800        4.20260       -0.60750
C          4.03480        4.03830       -1.39740
C          4.60230        5.11360       -2.21200
C          5.96830        5.38810       -2.17690
C          6.47790        6.44050       -2.91180
C          5.63760        7.23130       -3.67800
C          4.27290        6.97710       -3.71870
C          3.34200        7.86750       -4.48880
C          2.75940        8.93970       -3.56560
C          3.76740        5.91600       -2.98160
C          4.57410        2.77260       -1.23080
S          3.69230        1.80930       -0.05560
C          2.56280        3.09200        0.17720
C          1.38990        3.28750        0.91340
N          0.60300        2.55940        1.76750
C         -0.50340        3.33760        2.06730
C         -1.71330        3.03080        2.73410
N         -2.25850        1.83580        3.15900
C         -3.48700        2.10880        3.69930
C         -4.57300        1.39570        4.21280
S         -4.94160       -0.25270        4.54760
C         -1.89820        0.47720        2.81630
C         -1.46930       -0.33470        4.03860
C          1.21270        1.53040        2.58350
C          2.34910        2.09820        3.43390
C          5.61550        2.13010       -1.96010
S          6.37620        0.69850       -1.27520
C          7.29550        0.48570       -2.71760
C          8.20440       -0.38260       -3.31230
C          8.45750        0.13000       -4.61350
N          7.75370        1.29250       -4.79840
C          7.57200        1.96680       -6.05930
C          6.44640        1.32590       -6.86850
C          7.01810        1.50020       -3.66360
C          6.06820        2.42720       -3.22890
C          9.29820       -0.66900       -5.37170
C          9.69730       -1.80690       -4.67850
S          9.05650       -1.84330       -3.02980
C         10.52850       -2.86420       -5.07460
C         10.96920       -3.24020       -6.31680
C         12.16600       -4.11880       -6.39000
O         12.69520       -4.69940       -5.46810
C         12.59050       -4.09000       -7.80300
C         13.69300       -4.64670       -8.38240
C         13.91170       -4.46160       -9.76650
C         15.03160       -5.01800      -10.41720
C         15.23540       -4.82780      -11.75580
C         14.30970       -4.06570      -12.48050
F         14.52710       -3.88770      -13.79720
C         13.20730       -3.50390      -11.89910
C         12.98060       -3.69200      -10.52200
C         11.84250       -3.13270       -9.89430
C         11.64620       -3.33620       -8.55580
C         10.56360       -2.92300       -7.66130
C          9.31580       -2.53810       -8.09210
C          8.98200       -2.30770       -9.44130
N          8.64860       -2.06720      -10.51400
C          8.18840       -2.38850       -7.26570
N          7.22100       -2.25850       -6.65930
H        -11.24540       -3.77290        6.68650
H         -7.61790       -7.97830        3.80070
H         -7.32750      -10.32940        3.08790
H         -8.08690      -12.69280        3.12230
H        -11.32060      -11.65460        5.70590
H        -11.62660       -9.34260        6.43390
H         -8.11260        3.63480        4.00000
H        -10.11960        4.71930        4.92700
H        -11.10280        3.91430        7.03300
H         -9.44300        1.71990        9.36090
H        -10.93770        2.60040        9.01380
H        -10.24000       -0.20690        8.01660
H        -11.70820        0.67590        7.59100
H        -11.42010        0.19010        9.26400
H         -7.99790        1.01450        7.37260
H          6.61990        4.78310       -1.56430
H          7.53670        6.65240       -2.88060
H          6.04440        8.05620       -4.24500
H          3.87830        8.34780       -5.30950
H          2.52680        7.27610       -4.91060
H          2.21370        8.47710       -2.74640
H          3.55630        9.54900       -3.14470
H          2.08050        9.58690       -4.11570
H          2.70880        5.70350       -3.01500
H         -1.12170        0.49980        2.05130
H         -2.78190        0.00040        2.37700
H         -0.69910        0.17540        4.61300
H         -1.08780       -1.30050        3.72030
H         -2.31730       -0.50270        4.69650
H          0.46550        1.11220        3.24790
H          1.59910        0.74690        1.92390
H          3.15170        2.48200        2.81060
H          2.75260        1.31450        4.06920
H          1.98050        2.90530        4.06380
H          7.34700        3.01710       -5.85530
H          8.51360        1.91270       -6.61190
H          6.64090        0.26470       -7.01040
H          5.49910        1.43300       -6.34550
H          6.36590        1.80230       -7.84130
H          5.69480        3.25350       -3.80430
H          9.64580       -0.43450       -6.36130
H         10.94690       -3.45600       -4.26490
H         14.39070       -5.22260       -7.79310
H         15.73100       -5.60130       -9.83740
H         16.08660       -5.24690      -12.26850
H         12.51290       -2.92630      -12.48910
H         11.15910       -2.55010      -10.49150
