166

C         -8.73590        4.63960       -5.21720
C         -9.77470        4.08110       -4.53820
C         -9.81660        3.93250       -3.05600
O         -9.02540        4.37720       -2.25330
C        -11.09980        3.27400       -2.76160
C        -11.58200        2.84920       -1.55730
C        -12.84620        2.22180       -1.50350
C        -13.38280        1.74420       -0.29030
C        -14.60680        1.13640       -0.25250
C        -15.32960        0.99250       -1.44480
F        -16.53150        0.39060       -1.38750
C        -14.85650        1.43800       -2.64750
C        -13.59620        2.06480       -2.70550
C        -13.07630        2.52720       -3.93670
C        -11.84060        3.11820       -3.96720
C        -11.04960        3.64490       -5.07570
C        -11.42350        3.64230       -6.39360
C        -10.62440        4.08910       -7.46730
N        -10.03150        4.41660       -8.39430
C        -12.66960        3.17530       -6.86280
N        -13.66560        2.81800       -7.30760
C         -7.41440        4.76420       -4.68830
C         -6.52740        5.75680       -5.08780
F         -6.94180        6.66880       -5.97700
C         -5.21580        5.89960       -4.60330
F         -4.49240        6.89070       -5.14750
C         -4.65060        5.05190       -3.65400
C         -5.49580        3.95250       -3.31450
C         -6.83950        3.80940       -3.80680
N         -7.29630        2.65970       -3.35670
O         -6.32430        2.13080       -2.62100
N         -5.23470        2.89340       -2.57910
C         -3.34400        5.12750       -3.09350
C         -2.45560        6.19750       -2.97130
C         -2.77700        7.60710       -3.17930
C         -1.87210        8.45030       -3.81770
C         -2.17710        9.78820       -3.97820
C         -3.37140       10.29530       -3.49850
C         -4.28070        9.47050       -2.84610
C         -5.55430       10.03020       -2.28120
C         -5.32280       10.56040       -0.86490
C         -3.97050        8.13020       -2.68680
C         -1.21680        5.76710       -2.47060
S          0.28130        6.60410       -2.12280
C          0.96020        5.11450       -1.56050
C          2.18430        4.60500       -1.10140
C          3.47920        5.16900       -1.02700
C          4.59950        4.31480       -0.73720
N          5.75210        4.96280       -0.78880
S          5.45890        6.51070       -1.15800
N          3.84700        6.41580       -1.27390
C          4.36560        2.96420       -0.39100
C          5.22020        1.92240        0.00950
S          6.90990        1.59240        0.20730
C          6.51000       -0.01280        0.78470
C          7.29100       -1.11110        1.18660
C          8.74370       -1.14460        1.03550
C          9.35950       -2.25500        0.46040
C         10.72640       -2.26030        0.26670
C         11.48810       -1.16690        0.64100
C         10.88960       -0.04820        1.20690
C         11.71710        1.11850        1.66120
C         12.14590        0.92340        3.11690
C          9.51640       -0.04610        1.39520
C          6.48780       -2.18030        1.57440
S          4.77990       -1.87310        1.31360
C          5.13390       -0.25650        0.82370
C          4.40430        0.84230        0.36350
N          3.08460        1.15770        0.17530
C          3.04020        2.44860       -0.32070
C          1.97050        3.22420       -0.82480
N          0.67320        2.89740       -1.16290
C          0.06340        4.03760       -1.61250
C         -1.17010        4.40260       -2.15330
S         -2.66700        3.61920       -2.49450
C          0.08560        1.60000       -1.41620
C         -1.07420        1.29040       -0.46870
C          2.08690        0.46530        0.96310
C          2.29970        0.70570        2.45760
C          6.83740       -3.41420        2.20710
C          7.96180       -3.61920        3.00050
F          8.82110       -2.62220        3.25480
C          8.21470       -4.84350        3.61980
F          9.32600       -4.94910        4.36120
C          7.33580       -5.91790        3.57600
C          6.16570       -5.74710        2.77970
N          5.30560       -6.76340        2.61030
C          4.23590       -6.60400        1.86650
C          3.35510       -7.80610        1.70570
C          2.10920       -7.72580        2.59050
C          3.96800       -5.35110        1.25320
N          4.82550       -4.36900        1.38580
C          5.93210       -4.51830        2.11780
C          2.80090       -5.07090        0.35690
C          3.25390       -5.10430       -1.10520
C          7.63130       -7.14380        4.25520
C          6.75750       -8.03050        4.79050
C          7.20350       -9.42740        5.06580
O          8.33950       -9.83940        5.05840
C          5.96140      -10.19200        5.28860
C          5.80120      -11.53730        5.45710
C          4.50080      -12.06070        5.63350
C          4.27800      -13.44160        5.81190
C          3.01400      -13.93590        5.97630
C          1.93100      -13.04620        5.96590
F          0.69410      -13.55090        6.12590
C          2.09090      -11.69900        5.79860
C          3.38640      -11.17220        5.63000
C          3.58400       -9.78210        5.46390
C          4.85330       -9.29670        5.29720
C          5.35030       -7.93490        5.12040
C          4.65820       -6.79940        5.44840
C          5.18540       -5.49330        5.43020
N          5.53550       -4.39990        5.44720
C          3.32150       -6.79470        5.89640
N          2.23130       -6.72750        6.25150
H         -8.87800        5.01370       -6.22300
H        -10.99910        2.97970       -0.65790
H        -12.80700        1.86620        0.61480
H        -15.03130        0.76470        0.66670
H        -15.44000        1.30910       -3.54570
H        -13.67100        2.39670       -4.82630
H         -0.94970        8.05020       -4.20950
H         -1.48010       10.43840       -4.48530
H         -3.60540       11.34140       -3.63320
H         -5.91220       10.84270       -2.91640
H         -6.32200        9.25430       -2.25480
H         -4.56730       11.34270       -0.87200
H         -6.24410       10.97000       -0.45750
H         -4.98000        9.76030       -0.21240
H         -4.66150        7.48010       -2.16690
H          8.76090       -3.10210        0.15500
H         11.20120       -3.12140       -0.18060
H         12.55780       -1.18060        0.48960
H         11.13670        2.03900        1.57520
H         12.60460        1.21210        1.03230
H         11.27250        0.82710        3.75740
H         12.73720        1.77040        3.45690
H         12.74190        0.01920        3.21760
H          9.04150        0.81170        1.84820
H          0.86970        0.84400       -1.35970
H         -0.29850        1.60390       -2.44260
H         -0.80570        1.46830        0.57020
H         -1.93010        1.91680       -0.70220
H         -1.37170        0.25190       -0.58220
H          1.09940        0.81930        0.69330
H          2.16630       -0.60400        0.74500
H          2.26270        1.77100        2.67640
H          1.51770        0.20520        3.02170
H          3.26030        0.31630        2.78190
H          3.93870       -8.68330        1.99030
H          3.05780       -7.90810        0.66040
H          2.39080       -7.60240        3.63160
H          1.47580       -6.88610        2.31590
H          1.53040       -8.64090        2.49380
H          2.43270       -4.07020        0.58870
H          1.99990       -5.79010        0.51240
H          2.41930       -4.87160       -1.76140
H          4.04120       -4.37240       -1.26470
H          3.63710       -6.08830       -1.36740
H          8.67780       -7.43100        4.29390
H          6.65690      -12.19580        5.45530
H          5.12770      -14.10760        5.81650
H          2.82650      -14.98900        6.11390
H          1.23460      -11.04270        5.80110
H          2.71930       -9.13830        5.46840
