193

C         -7.98990       -4.45770       -4.93850
C         -7.25410       -4.54750       -6.09820
C         -5.95730       -3.91280       -6.33840
O         -5.29580       -3.24660       -5.55870
C         -5.59270       -4.23240       -7.72910
C         -4.48580       -3.85490       -8.43110
C         -4.34520       -4.27740       -9.77210
C         -3.22350       -3.91770      -10.54590
C         -3.10030       -4.33210      -11.84320
C         -4.11200       -5.12600      -12.39920
F         -3.97340       -5.52470      -13.67780
C         -5.22020       -5.50300      -11.69290
C         -5.36320       -5.08540      -10.35550
C         -6.49920       -5.46120       -9.59960
C         -6.61340       -5.04200       -8.30160
C         -7.64650       -5.26640       -7.29070
C         -8.75970       -6.05010       -7.46770
C         -9.06400       -6.72620       -8.66710
N         -9.37370       -7.30280       -9.61090
C         -9.75310       -6.32160       -6.50550
N        -10.60880       -6.61570       -5.79670
C         -7.71040       -3.79920       -3.73820
C         -8.60030       -3.81810       -2.64300
C         -9.81110       -4.65640       -2.63690
C         -9.68330       -6.05280       -2.61900
C        -10.82400       -6.83600       -2.67050
C        -12.08990       -6.27650       -2.75450
C        -13.30760       -7.13910       -2.90470
C        -13.69470       -7.24070       -4.38140
C        -12.19810       -4.89620       -2.74420
C        -11.08090       -4.07710       -2.67440
C        -11.29020       -2.58870       -2.61280
C        -11.83700       -2.19280       -1.24020
C         -8.34820       -6.72660       -2.44740
C         -7.93120       -6.71480       -0.97530
C         -8.17380       -3.02360       -1.58810
C         -6.93870       -2.43590       -1.81850
S         -6.29880       -2.83360       -3.37660
C         -6.18240       -1.63680       -0.91670
C         -6.63260       -0.77540        0.06840
C         -8.01490       -0.32290        0.23620
C         -8.59010       -0.25110        1.50070
C         -9.86200        0.27000        1.64730
C        -10.55180        0.74920        0.54760
C         -9.98730        0.69440       -0.72130
C        -10.69060        1.29200       -1.90640
C        -10.22530        2.73350       -2.12250
C         -8.72480        0.14170       -0.86680
C         -5.55880       -0.23800        0.80350
S         -5.48210        0.91370        2.11610
C         -3.75380        0.81990        2.06520
C         -2.63520        1.36380        2.72010
C         -2.52210        2.22280        3.83510
C         -1.21390        2.56910        4.31700
N         -1.25960        3.33870        5.39290
S         -2.81180        3.60900        5.76570
N         -3.48750        2.75470        4.56800
C         -0.08160        2.14440        3.58720
C          1.27310        2.49870        3.68700
S          2.30170        3.47140        4.68350
C          3.62810        3.13560        3.59770
C          4.96240        3.58760        3.56560
C          5.43550        4.65670        4.44380
C          5.18440        4.62340        5.81090
C          5.49150        5.72170        6.58990
C          6.02850        6.85980        6.01480
C          6.28420        6.91080        4.65020
C          6.78700        8.17120        4.00610
C          5.61040        9.02110        3.52200
C          5.99280        5.79830        3.87660
C          5.64300        3.05950        2.48410
S          4.61340        2.05010        1.47080
C          3.27580        2.30190        2.53320
C          1.92570        1.93340        2.58740
N          1.03340        1.22370        1.82840
C         -0.20680        1.32580        2.42990
C         -1.48580        0.82590        2.07790
N         -1.89760       -0.06580        1.09970
C         -3.26980       -0.05400        1.08930
C         -4.30150       -0.66490        0.36770
S         -4.42960       -1.75810       -0.96220
C         -1.21800       -1.24820        0.61470
C         -1.57890       -2.47420        1.45390
C          1.38860        0.81750        0.48700
C          2.28020       -0.42470        0.48030
C          7.02440        3.11500        2.13970
C          8.13220        3.11140        2.99380
C          8.08540        3.08300        4.46900
C          8.66380        4.12710        5.20510
C          8.65230        4.05760        6.58750
C          8.09450        2.97850        7.25900
C          8.10500        2.92910        8.76060
C          6.99970        3.80300        9.35300
C          7.54290        1.95090        6.51510
C          7.53960        1.97860        5.12770
C          7.07000        0.75180        4.39340
C          8.26220       -0.14770        4.05960
C          9.31500        5.27730        4.47820
C          9.67010        6.47940        5.34440
C          9.31480        3.02770        2.27170
C          9.16120        2.96470        0.88560
S          7.46810        3.01100        0.46750
C         10.25240        2.86380        0.01550
C         10.28880        2.75300       -1.35400
C          9.11910        2.70450       -2.23650
O          7.94380        2.78340       -1.92270
C          9.64520        2.53630       -3.60320
C          8.95290        2.42370       -4.79320
C          9.67360        2.26530       -5.96630
C         11.06210        2.22400       -5.92230
Cl        11.94170        2.02450       -7.39040
C         11.77100        2.33780       -4.72940
C         11.04940        2.49540       -3.55890
C         11.48170        2.63980       -2.16610
C         12.78730        2.66740       -1.74720
C         13.89940        2.54810       -2.60710
N         14.85130        2.45660       -3.24240
C         13.22360        2.82410       -0.41520
N         13.66290        2.95150        0.63880
H         -8.94900       -4.96380       -4.92910
H         -3.72680       -3.24080       -7.96990
H         -2.45730       -3.30500      -10.09480
H         -2.24870       -4.06580      -12.44900
H         -5.97940       -6.11560      -12.15360
H         -7.25060       -6.07160      -10.07360
H        -10.72110       -7.91140       -2.65850
H        -14.13970       -6.71340       -2.33870
H        -13.10400       -8.13820       -2.51500
H        -14.54170       -7.91100       -4.50920
H        -12.85540       -7.61360       -4.96180
H        -13.96320       -6.26100       -4.76940
H        -13.17680       -4.44060       -2.80070
H        -12.01010       -2.29440       -3.38050
H        -10.35690       -2.05620       -2.80000
H        -12.74760       -2.74490       -1.02090
H        -11.11060       -2.41190       -0.46110
H        -12.05870       -1.13020       -1.20900
H         -8.42420       -7.75990       -2.79080
H         -7.57540       -6.23580       -3.03990
H         -7.81510       -5.69250       -0.62150
H         -8.68620       -7.20530       -0.36510
H         -6.98530       -7.23580       -0.84470
H         -8.71310       -2.91070       -0.66430
H         -8.04290       -0.60890        2.35980
H        -10.31220        0.31620        2.62770
H        -11.53630        1.17590        0.67530
H        -11.77040        1.28730       -1.74420
H        -10.47560        0.70580       -2.80220
H        -10.44270        3.33630       -1.24350
H        -10.73180        3.17220       -2.97910
H         -9.15270        2.76330       -2.29970
H         -8.26760        0.09920       -1.84550
H          4.75520        3.73880        6.25510
H          5.28860        5.70000        7.64970
H          6.24060        7.72410        6.62870
H          7.42690        7.92680        3.15580
H          7.37530        8.74820        4.72180
H          5.96830        9.93580        3.05510
H          4.96630        9.28590        4.35760
H          5.01730        8.46910        2.79630
H          6.16140        5.82830        2.80850
H         -0.14600       -1.10150        0.66050
H         -1.51910       -1.40900       -0.42520
H         -1.03630       -3.34050        1.08550
H         -1.31130       -2.30890        2.49560
H         -2.64330       -2.68450        1.39760
H          1.94350        1.64270        0.02600
H          0.47720        0.67060       -0.09340
H          2.42500       -0.76770       -0.54020
H          3.25240       -0.18790        0.90340
H          1.84950       -1.23340        1.06700
H          9.10020        4.84670        7.16950
H          9.07200        3.27890        9.12970
H          7.96740        1.89890        9.09490
H          7.01160        3.74650       10.43930
H          7.14100        4.83960        9.05690
H          6.02640        3.47180        8.99820
H          7.12500        1.09220        7.02210
H          6.37080        0.20040        5.02550
H          6.55330        1.00780        3.47070
H          8.79330       -0.42490        4.96740
H          7.92640       -1.05420        3.56110
H          8.95630        0.37170        3.40250
H         10.23270        4.91570        4.00580
H          8.64780        5.59870        3.67480
H         10.02780        7.28920        4.71210
H         10.45950        6.23360        6.05050
H          8.79920        6.82890        5.89240
H         10.28600        2.96770        2.73210
H         11.20530        2.86770        0.53080
H          7.87450        2.45880       -4.79790
H          9.16810        2.17280       -6.91440
H         12.84750        2.30020       -4.74260
