
  xtb     02052202543D
 energy: -325.205131598018 gnorm: 0.000306292715 xtb: 6.4.1 (unknown)
199218  0     0  0            999 V2000
    4.8024    9.7433   -0.3637 C   0  0  0  0  0  0  0  0  0  0  0  0
    4.8093   10.3913   -1.5754 C   0  0  0  0  0  0  0  0  0  0  0  0
    4.8796    9.6738   -2.8687 C   0  0  0  0  0  0  0  0  0  0  0  0
    5.1883    8.5138   -3.0417 O   0  0  0  0  0  0  0  0  0  0  0  0
    4.6888   10.7091   -3.9018 C   0  0  0  0  0  0  0  0  0  0  0  0
    4.5442   10.5576   -5.2486 C   0  0  0  0  0  0  0  0  0  0  0  0
    4.2916   11.6960   -6.0463 C   0  0  0  0  0  0  0  0  0  0  0  0
    4.0918   11.5934   -7.4377 C   0  0  0  0  0  0  0  0  0  0  0  0
    3.8365   12.7011   -8.1976 C   0  0  0  0  0  0  0  0  0  0  0  0
    3.7780   13.9527   -7.5709 C   0  0  0  0  0  0  0  0  0  0  0  0
    3.5251   15.0326   -8.3348 F   0  0  0  0  0  0  0  0  0  0  0  0
    3.9662   14.1085   -6.2259 C   0  0  0  0  0  0  0  0  0  0  0  0
    4.2256   12.9774   -5.4278 C   0  0  0  0  0  0  0  0  0  0  0  0
    4.4096   13.1059   -4.0310 C   0  0  0  0  0  0  0  0  0  0  0  0
    4.6281   11.9853   -3.2766 C   0  0  0  0  0  0  0  0  0  0  0  0
    4.7749   11.8058   -1.8331 C   0  0  0  0  0  0  0  0  0  0  0  0
    4.7342   12.8088   -0.8937 C   0  0  0  0  0  0  0  0  0  0  0  0
    4.7840   12.5944    0.4970 C   0  0  0  0  0  0  0  0  0  0  0  0
    4.7953   12.4772    1.6403 N   0  0  0  0  0  0  0  0  0  0  0  0
    4.6186   14.1779   -1.2000 C   0  0  0  0  0  0  0  0  0  0  0  0
    4.5243   15.3079   -1.3842 N   0  0  0  0  0  0  0  0  0  0  0  0
    4.2088    8.4776   -0.1904 C   0  0  0  0  0  0  0  0  0  0  0  0
    3.0670    7.9937   -0.8406 C   0  0  0  0  0  0  0  0  0  0  0  0
    2.3688    8.7515   -1.8972 C   0  0  0  0  0  0  0  0  0  0  0  0
    1.7820    9.9879   -1.5809 C   0  0  0  0  0  0  0  0  0  0  0  0
    1.2786   10.7666   -2.6092 C   0  0  0  0  0  0  0  0  0  0  0  0
    1.3035   10.3360   -3.9292 C   0  0  0  0  0  0  0  0  0  0  0  0
    0.7640   11.2108   -5.0244 C   0  0  0  0  0  0  0  0  0  0  0  0
   -0.7454   11.0166   -5.1791 C   0  0  0  0  0  0  0  0  0  0  0  0
    1.7862    9.0685   -4.2024 C   0  0  0  0  0  0  0  0  0  0  0  0
    2.3238    8.2663   -3.2050 C   0  0  0  0  0  0  0  0  0  0  0  0
    2.8391    6.9020   -3.5665 C   0  0  0  0  0  0  0  0  0  0  0  0
    1.6868    5.9118   -3.7417 C   0  0  0  0  0  0  0  0  0  0  0  0
    1.6932   10.4299   -0.1406 C   0  0  0  0  0  0  0  0  0  0  0  0
    0.6378   11.4936    0.1424 C   0  0  0  0  0  0  0  0  0  0  0  0
    2.6154    6.8010   -0.2813 C   0  0  0  0  0  0  0  0  0  0  0  0
    3.3695    6.3512    0.7896 C   0  0  0  0  0  0  0  0  0  0  0  0
    4.6732    7.4412    1.1339 S   0  0  0  0  0  0  0  0  0  0  0  0
    3.1623    5.1398    1.4990 C   0  0  0  0  0  0  0  0  0  0  0  0
    3.6648    4.7283    2.7227 C   0  0  0  0  0  0  0  0  0  0  0  0
    4.4638    5.5514    3.6343 C   0  0  0  0  0  0  0  0  0  0  0  0
    5.6551    5.0548    4.1519 C   0  0  0  0  0  0  0  0  0  0  0  0
    6.4021    5.8306    5.0187 C   0  0  0  0  0  0  0  0  0  0  0  0
    5.9681    7.0947    5.3746 C   0  0  0  0  0  0  0  0  0  0  0  0
    4.7722    7.6002    4.8780 C   0  0  0  0  0  0  0  0  0  0  0  0
    4.2756    8.9525    5.2998 C   0  0  0  0  0  0  0  0  0  0  0  0
    3.4199    8.8390    6.5629 C   0  0  0  0  0  0  0  0  0  0  0  0
    4.0231    6.8144    4.0167 C   0  0  0  0  0  0  0  0  0  0  0  0
    3.2708    3.4118    3.0195 C   0  0  0  0  0  0  0  0  0  0  0  0
    3.5531    2.3811    4.4013 S   0  0  0  0  0  0  0  0  0  0  0  0
    2.5961    1.1506    3.6492 C   0  0  0  0  0  0  0  0  0  0  0  0
    2.1322   -0.1503    3.9176 C   0  0  0  0  0  0  0  0  0  0  0  0
    2.1655   -0.9728    5.0671 C   0  0  0  0  0  0  0  0  0  0  0  0
    1.4213   -2.2070    5.0703 C   0  0  0  0  0  0  0  0  0  0  0  0
    1.4778   -2.8240    6.2397 N   0  0  0  0  0  0  0  0  0  0  0  0
    2.3913   -1.9443    7.2453 S   0  0  0  0  0  0  0  0  0  0  0  0
    2.7491   -0.7352    6.2307 N   0  0  0  0  0  0  0  0  0  0  0  0
    0.8095   -2.6469    3.8742 C   0  0  0  0  0  0  0  0  0  0  0  0
    0.1620   -3.8402    3.5035 C   0  0  0  0  0  0  0  0  0  0  0  0
   -0.4014   -5.3072    4.2286 S   0  0  0  0  0  0  0  0  0  0  0  0
   -0.9384   -5.8558    2.6596 C   0  0  0  0  0  0  0  0  0  0  0  0
   -1.5413   -7.0543    2.2187 C   0  0  0  0  0  0  0  0  0  0  0  0
   -1.7023   -8.2231    3.0797 C   0  0  0  0  0  0  0  0  0  0  0  0
   -1.3411   -9.4854    2.6140 C   0  0  0  0  0  0  0  0  0  0  0  0
   -1.3528  -10.5666    3.4731 C   0  0  0  0  0  0  0  0  0  0  0  0
   -1.7140  -10.4014    4.7989 C   0  0  0  0  0  0  0  0  0  0  0  0
   -2.0753   -9.1501    5.2813 C   0  0  0  0  0  0  0  0  0  0  0  0
   -2.4659   -8.9622    6.7189 C   0  0  0  0  0  0  0  0  0  0  0  0
   -3.9836   -9.0397    6.8805 C   0  0  0  0  0  0  0  0  0  0  0  0
   -2.0766   -8.0716    4.4105 C   0  0  0  0  0  0  0  0  0  0  0  0
   -1.7567   -7.0269    0.8546 C   0  0  0  0  0  0  0  0  0  0  0  0
   -1.1701   -5.5479    0.1024 S   0  0  0  0  0  0  0  0  0  0  0  0
   -0.6769   -4.9394    1.6402 C   0  0  0  0  0  0  0  0  0  0  0  0
   -0.0582   -3.7801    2.1235 C   0  0  0  0  0  0  0  0  0  0  0  0
    0.3945   -2.5840    1.6230 N   0  0  0  0  0  0  0  0  0  0  0  0
    0.9009   -1.8679    2.6930 C   0  0  0  0  0  0  0  0  0  0  0  0
    1.4050   -0.5527    2.7685 C   0  0  0  0  0  0  0  0  0  0  0  0
    1.3622    0.4868    1.8574 N   0  0  0  0  0  0  0  0  0  0  0  0
    2.0915    1.5190    2.3960 C   0  0  0  0  0  0  0  0  0  0  0  0
    2.4671    2.8180    2.0415 C   0  0  0  0  0  0  0  0  0  0  0  0
    2.1859    3.8938    0.7214 S   0  0  0  0  0  0  0  0  0  0  0  0
    0.2925    0.7557    0.9177 C   0  0  0  0  0  0  0  0  0  0  0  0
   -0.7405    1.7116    1.5141 C   0  0  0  0  0  0  0  0  0  0  0  0
    0.8339   -2.4843    0.2454 C   0  0  0  0  0  0  0  0  0  0  0  0
    1.9370   -3.4977   -0.0585 C   0  0  0  0  0  0  0  0  0  0  0  0
   -2.4411   -7.9683    0.0235 C   0  0  0  0  0  0  0  0  0  0  0  0
   -3.6630   -8.5931    0.2857 C   0  0  0  0  0  0  0  0  0  0  0  0
   -4.4824   -8.3546    1.4887 C   0  0  0  0  0  0  0  0  0  0  0  0
   -4.9979   -7.0754    1.7331 C   0  0  0  0  0  0  0  0  0  0  0  0
   -5.7602   -6.8586    2.8691 C   0  0  0  0  0  0  0  0  0  0  0  0
   -6.0436   -7.8789    3.7647 C   0  0  0  0  0  0  0  0  0  0  0  0
   -6.9378   -7.6230    4.9447 C   0  0  0  0  0  0  0  0  0  0  0  0
   -8.4023   -7.5777    4.5041 C   0  0  0  0  0  0  0  0  0  0  0  0
   -5.5507   -9.1431    3.4919 C   0  0  0  0  0  0  0  0  0  0  0  0
   -4.7816   -9.4002    2.3654 C   0  0  0  0  0  0  0  0  0  0  0  0
   -4.3479  -10.8181    2.1134 C   0  0  0  0  0  0  0  0  0  0  0  0
   -5.5301  -11.6827    1.6695 C   0  0  0  0  0  0  0  0  0  0  0  0
   -4.8895   -5.9581    0.7312 C   0  0  0  0  0  0  0  0  0  0  0  0
   -6.0446   -6.0519   -0.2686 C   0  0  0  0  0  0  0  0  0  0  0  0
   -4.0476   -9.3987   -0.7773 C   0  0  0  0  0  0  0  0  0  0  0  0
   -3.1599   -9.4156   -1.8540 C   0  0  0  0  0  0  0  0  0  0  0  0
   -1.7995   -8.3691   -1.5334 S   0  0  0  0  0  0  0  0  0  0  0  0
   -3.3904  -10.1913   -2.9966 C   0  0  0  0  0  0  0  0  0  0  0  0
   -2.6321  -10.3486   -4.1310 C   0  0  0  0  0  0  0  0  0  0  0  0
   -1.3424   -9.7010   -4.3866 C   0  0  0  0  0  0  0  0  0  0  0  0
   -0.7592   -8.8996   -3.6756 O   0  0  0  0  0  0  0  0  0  0  0  0
   -0.8765  -10.2109   -5.6869 C   0  0  0  0  0  0  0  0  0  0  0  0
    0.2789   -9.9254   -6.3539 C   0  0  0  0  0  0  0  0  0  0  0  0
    0.5244  -10.5442   -7.6001 C   0  0  0  0  0  0  0  0  0  0  0  0
    1.7016  -10.2890   -8.3321 C   0  0  0  0  0  0  0  0  0  0  0  0
    1.9281  -10.8963   -9.5361 C   0  0  0  0  0  0  0  0  0  0  0  0
    0.9670  -11.7834  -10.0388 C   0  0  0  0  0  0  0  0  0  0  0  0
    1.2071  -12.3716  -11.2253 F   0  0  0  0  0  0  0  0  0  0  0  0
   -0.1915  -12.0659   -9.3697 C   0  0  0  0  0  0  0  0  0  0  0  0
   -0.4408  -11.4495   -8.1283 C   0  0  0  0  0  0  0  0  0  0  0  0
   -1.6304  -11.7236   -7.4128 C   0  0  0  0  0  0  0  0  0  0  0  0
   -1.8474  -11.1125   -6.2072 C   0  0  0  0  0  0  0  0  0  0  0  0
   -2.9554  -11.2001   -5.2573 C   0  0  0  0  0  0  0  0  0  0  0  0
   -4.0875  -11.9548   -5.4363 C   0  0  0  0  0  0  0  0  0  0  0  0
   -4.3320  -12.7552   -6.5714 C   0  0  0  0  0  0  0  0  0  0  0  0
   -4.5953  -13.4268   -7.4649 N   0  0  0  0  0  0  0  0  0  0  0  0
   -5.1705  -12.0463   -4.5384 C   0  0  0  0  0  0  0  0  0  0  0  0
   -6.0928  -12.1758   -3.8651 N   0  0  0  0  0  0  0  0  0  0  0  0
    5.2006   10.2231    0.5216 H   0  0  0  0  0  0  0  0  0  0  0  0
    4.6017    9.5785   -5.6993 H   0  0  0  0  0  0  0  0  0  0  0  0
    4.1439   10.6181   -7.8983 H   0  0  0  0  0  0  0  0  0  0  0  0
    3.6808   12.6393   -9.2631 H   0  0  0  0  0  0  0  0  0  0  0  0
    3.9146   15.0883   -5.7773 H   0  0  0  0  0  0  0  0  0  0  0  0
    4.3634   14.0907   -3.5943 H   0  0  0  0  0  0  0  0  0  0  0  0
    0.8589   11.7365   -2.3931 H   0  0  0  0  0  0  0  0  0  0  0  0
    1.2589   10.9685   -5.9674 H   0  0  0  0  0  0  0  0  0  0  0  0
    0.9724   12.2580   -4.7939 H   0  0  0  0  0  0  0  0  0  0  0  0
   -1.1318   11.6518   -5.9725 H   0  0  0  0  0  0  0  0  0  0  0  0
   -0.9696    9.9803   -5.4220 H   0  0  0  0  0  0  0  0  0  0  0  0
   -1.2559   11.2682   -4.2524 H   0  0  0  0  0  0  0  0  0  0  0  0
    1.7702    8.7011   -5.2189 H   0  0  0  0  0  0  0  0  0  0  0  0
    3.3971    6.9682   -4.5019 H   0  0  0  0  0  0  0  0  0  0  0  0
    3.5253    6.5436   -2.8000 H   0  0  0  0  0  0  0  0  0  0  0  0
    2.0709    4.9290   -4.0046 H   0  0  0  0  0  0  0  0  0  0  0  0
    1.1106    5.8224   -2.8237 H   0  0  0  0  0  0  0  0  0  0  0  0
    1.0151    6.2446   -4.5300 H   0  0  0  0  0  0  0  0  0  0  0  0
    2.6645   10.8109    0.1913 H   0  0  0  0  0  0  0  0  0  0  0  0
    1.4783    9.5486    0.4715 H   0  0  0  0  0  0  0  0  0  0  0  0
    0.9073   12.4481   -0.3031 H   0  0  0  0  0  0  0  0  0  0  0  0
   -0.3329   11.1867   -0.2407 H   0  0  0  0  0  0  0  0  0  0  0  0
    0.5540   11.6426    1.2165 H   0  0  0  0  0  0  0  0  0  0  0  0
    1.7373    6.2803   -0.6211 H   0  0  0  0  0  0  0  0  0  0  0  0
    5.9982    4.0731    3.8620 H   0  0  0  0  0  0  0  0  0  0  0  0
    7.3299    5.4465    5.4159 H   0  0  0  0  0  0  0  0  0  0  0  0
    6.5616    7.6982    6.0460 H   0  0  0  0  0  0  0  0  0  0  0  0
    3.6812    9.3954    4.4985 H   0  0  0  0  0  0  0  0  0  0  0  0
    5.1233    9.6109    5.4971 H   0  0  0  0  0  0  0  0  0  0  0  0
    3.0616    9.8194    6.8673 H   0  0  0  0  0  0  0  0  0  0  0  0
    2.5617    8.1951    6.3833 H   0  0  0  0  0  0  0  0  0  0  0  0
    4.0014    8.4129    7.3775 H   0  0  0  0  0  0  0  0  0  0  0  0
    3.0796    7.1842    3.6397 H   0  0  0  0  0  0  0  0  0  0  0  0
   -1.0181   -9.6071    1.5907 H   0  0  0  0  0  0  0  0  0  0  0  0
   -1.0614  -11.5418    3.1109 H   0  0  0  0  0  0  0  0  0  0  0  0
   -1.7013  -11.2490    5.4693 H   0  0  0  0  0  0  0  0  0  0  0  0
   -2.1176   -7.9877    7.0664 H   0  0  0  0  0  0  0  0  0  0  0  0
   -1.9951   -9.7325    7.3328 H   0  0  0  0  0  0  0  0  0  0  0  0
   -4.3482  -10.0131    6.5597 H   0  0  0  0  0  0  0  0  0  0  0  0
   -4.4603   -8.2760    6.2720 H   0  0  0  0  0  0  0  0  0  0  0  0
   -4.2649   -8.8887    7.9201 H   0  0  0  0  0  0  0  0  0  0  0  0
   -2.3674   -7.0969    4.7732 H   0  0  0  0  0  0  0  0  0  0  0  0
   -0.2079   -0.1780    0.6687 H   0  0  0  0  0  0  0  0  0  0  0  0
    0.7254    1.1938    0.0126 H   0  0  0  0  0  0  0  0  0  0  0  0
   -1.1477    1.2967    2.4336 H   0  0  0  0  0  0  0  0  0  0  0  0
   -0.2967    2.6784    1.7338 H   0  0  0  0  0  0  0  0  0  0  0  0
   -1.5519    1.8573    0.8064 H   0  0  0  0  0  0  0  0  0  0  0  0
   -0.0255   -2.6635   -0.4086 H   0  0  0  0  0  0  0  0  0  0  0  0
    1.2275   -1.4853    0.0671 H   0  0  0  0  0  0  0  0  0  0  0  0
    2.7787   -3.3484    0.6146 H   0  0  0  0  0  0  0  0  0  0  0  0
    1.5753   -4.5156    0.0552 H   0  0  0  0  0  0  0  0  0  0  0  0
    2.2789   -3.3666   -1.0812 H   0  0  0  0  0  0  0  0  0  0  0  0
   -6.1571   -5.8695    3.0518 H   0  0  0  0  0  0  0  0  0  0  0  0
   -6.8137   -8.4133    5.6870 H   0  0  0  0  0  0  0  0  0  0  0  0
   -6.6745   -6.6698    5.4096 H   0  0  0  0  0  0  0  0  0  0  0  0
   -9.0508   -7.3953    5.3578 H   0  0  0  0  0  0  0  0  0  0  0  0
   -8.5571   -6.7857    3.7751 H   0  0  0  0  0  0  0  0  0  0  0  0
   -8.6871   -8.5225    4.0466 H   0  0  0  0  0  0  0  0  0  0  0  0
   -5.7731   -9.9568    4.1675 H   0  0  0  0  0  0  0  0  0  0  0  0
   -3.5659  -10.8512    1.3546 H   0  0  0  0  0  0  0  0  0  0  0  0
   -3.9369  -11.2324    3.0365 H   0  0  0  0  0  0  0  0  0  0  0  0
   -5.2013  -12.7014    1.4777 H   0  0  0  0  0  0  0  0  0  0  0  0
   -5.9806  -11.2901    0.7613 H   0  0  0  0  0  0  0  0  0  0  0  0
   -6.2967  -11.7062    2.4401 H   0  0  0  0  0  0  0  0  0  0  0  0
   -3.9521   -5.9943    0.1811 H   0  0  0  0  0  0  0  0  0  0  0  0
   -4.9386   -4.9988    1.2506 H   0  0  0  0  0  0  0  0  0  0  0  0
   -5.9943   -6.9915   -0.8145 H   0  0  0  0  0  0  0  0  0  0  0  0
   -7.0004   -6.0079    0.2485 H   0  0  0  0  0  0  0  0  0  0  0  0
   -5.9963   -5.2333   -0.9832 H   0  0  0  0  0  0  0  0  0  0  0  0
   -4.9696   -9.9526   -0.7986 H   0  0  0  0  0  0  0  0  0  0  0  0
   -4.3124  -10.7573   -2.9427 H   0  0  0  0  0  0  0  0  0  0  0  0
    0.9982   -9.2374   -5.9352 H   0  0  0  0  0  0  0  0  0  0  0  0
    2.4274   -9.6018   -7.9238 H   0  0  0  0  0  0  0  0  0  0  0  0
    2.8235  -10.7125  -10.1084 H   0  0  0  0  0  0  0  0  0  0  0  0
   -0.9094  -12.7545   -9.7872 H   0  0  0  0  0  0  0  0  0  0  0  0
   -2.3380  -12.4149   -7.8409 H   0  0  0  0  0  0  0  0  0  0  0  0
  1  2  2  0  0  0  0
  2  3  1  0  0  0  0
  3  4  2  0  0  0  0
  3  5  1  0  0  0  0
  5  6  2  0  0  0  0
  6  7  1  0  0  0  0
  7  8  2  0  0  0  0
  8  9  1  0  0  0  0
  9 10  2  0  0  0  0
 10 11  1  0  0  0  0
 10 12  1  0  0  0  0
 12 13  2  0  0  0  0
 13 14  1  0  0  0  0
 14 15  2  0  0  0  0
 15 16  1  0  0  0  0
 16 17  2  0  0  0  0
 17 18  1  0  0  0  0
 18 19  3  0  0  0  0
 17 20  1  0  0  0  0
 20 21  3  0  0  0  0
  1 22  1  0  0  0  0
 22 23  2  0  0  0  0
 23 24  1  0  0  0  0
 24 25  2  0  0  0  0
 25 26  1  0  0  0  0
 26 27  2  0  0  0  0
 27 28  1  0  0  0  0
 28 29  1  0  0  0  0
 27 30  1  0  0  0  0
 30 31  2  0  0  0  0
 31 32  1  0  0  0  0
 32 33  1  0  0  0  0
 25 34  1  0  0  0  0
 34 35  1  0  0  0  0
 23 36  1  0  0  0  0
 36 37  2  0  0  0  0
 37 38  1  0  0  0  0
 37 39  1  0  0  0  0
 39 40  2  0  0  0  0
 40 41  1  0  0  0  0
 41 42  2  0  0  0  0
 42 43  1  0  0  0  0
 43 44  2  0  0  0  0
 44 45  1  0  0  0  0
 45 46  1  0  0  0  0
 46 47  1  0  0  0  0
 45 48  2  0  0  0  0
 40 49  1  0  0  0  0
 49 50  1  0  0  0  0
 50 51  1  0  0  0  0
 51 52  1  0  0  0  0
 52 53  1  0  0  0  0
 53 54  1  0  0  0  0
 54 55  2  0  0  0  0
 55 56  1  0  0  0  0
 56 57  1  0  0  0  0
 54 58  1  0  0  0  0
 58 59  1  0  0  0  0
 59 60  1  0  0  0  0
 60 61  1  0  0  0  0
 61 62  1  0  0  0  0
 62 63  1  0  0  0  0
 63 64  2  0  0  0  0
 64 65  1  0  0  0  0
 65 66  2  0  0  0  0
 66 67  1  0  0  0  0
 67 68  1  0  0  0  0
 68 69  1  0  0  0  0
 67 70  2  0  0  0  0
 62 71  2  0  0  0  0
 71 72  1  0  0  0  0
 72 73  1  0  0  0  0
 73 74  1  0  0  0  0
 74 75  1  0  0  0  0
 75 76  1  0  0  0  0
 76 77  1  0  0  0  0
 77 78  1  0  0  0  0
 78 79  1  0  0  0  0
 79 80  1  0  0  0  0
 80 81  1  0  0  0  0
 78 82  1  0  0  0  0
 82 83  1  0  0  0  0
 75 84  1  0  0  0  0
 84 85  1  0  0  0  0
 71 86  1  0  0  0  0
 86 87  2  0  0  0  0
 87 88  1  0  0  0  0
 88 89  2  0  0  0  0
 89 90  1  0  0  0  0
 90 91  2  0  0  0  0
 91 92  1  0  0  0  0
 92 93  1  0  0  0  0
 91 94  1  0  0  0  0
 94 95  2  0  0  0  0
 95 96  1  0  0  0  0
 96 97  1  0  0  0  0
 89 98  1  0  0  0  0
 98 99  1  0  0  0  0
 87100  1  0  0  0  0
100101  2  0  0  0  0
101102  1  0  0  0  0
101103  1  0  0  0  0
103104  2  0  0  0  0
104105  1  0  0  0  0
105106  2  0  0  0  0
105107  1  0  0  0  0
107108  2  0  0  0  0
108109  1  0  0  0  0
109110  2  0  0  0  0
110111  1  0  0  0  0
111112  2  0  0  0  0
112113  1  0  0  0  0
112114  1  0  0  0  0
114115  2  0  0  0  0
115116  1  0  0  0  0
116117  2  0  0  0  0
117118  1  0  0  0  0
118119  2  0  0  0  0
119120  1  0  0  0  0
120121  3  0  0  0  0
119122  1  0  0  0  0
122123  3  0  0  0  0
 16  2  1  0  0  0  0
 38 22  1  0  0  0  0
 81 39  1  0  0  0  0
102 86  1  0  0  0  0
118104  1  0  0  0  0
 15  5  1  0  0  0  0
 31 24  1  0  0  0  0
 48 41  1  0  0  0  0
 80 49  2  0  0  0  0
 95 88  1  0  0  0  0
117107  1  0  0  0  0
 13  7  1  0  0  0  0
 79 51  2  0  0  0  0
115109  1  0  0  0  0
 77 52  2  0  0  0  0
 57 53  2  0  0  0  0
 76 58  2  0  0  0  0
 74 59  2  0  0  0  0
 73 61  2  0  0  0  0
 70 63  1  0  0  0  0
  1124  1  0  0  0  0
  6125  1  0  0  0  0
  8126  1  0  0  0  0
  9127  1  0  0  0  0
 12128  1  0  0  0  0
 14129  1  0  0  0  0
 26130  1  0  0  0  0
 28131  1  0  0  0  0
 28132  1  0  0  0  0
 29133  1  0  0  0  0
 29134  1  0  0  0  0
 29135  1  0  0  0  0
 30136  1  0  0  0  0
 32137  1  0  0  0  0
 32138  1  0  0  0  0
 33139  1  0  0  0  0
 33140  1  0  0  0  0
 33141  1  0  0  0  0
 34142  1  0  0  0  0
 34143  1  0  0  0  0
 35144  1  0  0  0  0
 35145  1  0  0  0  0
 35146  1  0  0  0  0
 36147  1  0  0  0  0
 42148  1  0  0  0  0
 43149  1  0  0  0  0
 44150  1  0  0  0  0
 46151  1  0  0  0  0
 46152  1  0  0  0  0
 47153  1  0  0  0  0
 47154  1  0  0  0  0
 47155  1  0  0  0  0
 48156  1  0  0  0  0
 64157  1  0  0  0  0
 65158  1  0  0  0  0
 66159  1  0  0  0  0
 68160  1  0  0  0  0
 68161  1  0  0  0  0
 69162  1  0  0  0  0
 69163  1  0  0  0  0
 69164  1  0  0  0  0
 70165  1  0  0  0  0
 82166  1  0  0  0  0
 82167  1  0  0  0  0
 83168  1  0  0  0  0
 83169  1  0  0  0  0
 83170  1  0  0  0  0
 84171  1  0  0  0  0
 84172  1  0  0  0  0
 85173  1  0  0  0  0
 85174  1  0  0  0  0
 85175  1  0  0  0  0
 90176  1  0  0  0  0
 92177  1  0  0  0  0
 92178  1  0  0  0  0
 93179  1  0  0  0  0
 93180  1  0  0  0  0
 93181  1  0  0  0  0
 94182  1  0  0  0  0
 96183  1  0  0  0  0
 96184  1  0  0  0  0
 97185  1  0  0  0  0
 97186  1  0  0  0  0
 97187  1  0  0  0  0
 98188  1  0  0  0  0
 98189  1  0  0  0  0
 99190  1  0  0  0  0
 99191  1  0  0  0  0
 99192  1  0  0  0  0
100193  1  0  0  0  0
103194  1  0  0  0  0
108195  1  0  0  0  0
110196  1  0  0  0  0
111197  1  0  0  0  0
114198  1  0  0  0  0
116199  1  0  0  0  0
M  END
