
  xtb     02042222133D
 energy: -315.436452000075 gnorm: 0.000357352747 xtb: 6.4.1 (unknown)
193211  0     0  0            999 V2000
   -7.9899   -4.4577   -4.9385 C   0  0  0  0  0  0  0  0  0  0  0  0
   -7.2541   -4.5475   -6.0982 C   0  0  0  0  0  0  0  0  0  0  0  0
   -5.9573   -3.9128   -6.3384 C   0  0  0  0  0  0  0  0  0  0  0  0
   -5.2958   -3.2466   -5.5587 O   0  0  0  0  0  0  0  0  0  0  0  0
   -5.5927   -4.2324   -7.7291 C   0  0  0  0  0  0  0  0  0  0  0  0
   -4.4858   -3.8549   -8.4311 C   0  0  0  0  0  0  0  0  0  0  0  0
   -4.3452   -4.2774   -9.7721 C   0  0  0  0  0  0  0  0  0  0  0  0
   -3.2235   -3.9177  -10.5459 C   0  0  0  0  0  0  0  0  0  0  0  0
   -3.1003   -4.3321  -11.8432 C   0  0  0  0  0  0  0  0  0  0  0  0
   -4.1120   -5.1260  -12.3992 C   0  0  0  0  0  0  0  0  0  0  0  0
   -3.9734   -5.5247  -13.6778 F   0  0  0  0  0  0  0  0  0  0  0  0
   -5.2202   -5.5030  -11.6929 C   0  0  0  0  0  0  0  0  0  0  0  0
   -5.3632   -5.0854  -10.3555 C   0  0  0  0  0  0  0  0  0  0  0  0
   -6.4992   -5.4612   -9.5996 C   0  0  0  0  0  0  0  0  0  0  0  0
   -6.6134   -5.0420   -8.3016 C   0  0  0  0  0  0  0  0  0  0  0  0
   -7.6465   -5.2664   -7.2907 C   0  0  0  0  0  0  0  0  0  0  0  0
   -8.7597   -6.0501   -7.4677 C   0  0  0  0  0  0  0  0  0  0  0  0
   -9.0640   -6.7262   -8.6671 C   0  0  0  0  0  0  0  0  0  0  0  0
   -9.3737   -7.3028   -9.6109 N   0  0  0  0  0  0  0  0  0  0  0  0
   -9.7531   -6.3216   -6.5055 C   0  0  0  0  0  0  0  0  0  0  0  0
  -10.6088   -6.6157   -5.7967 N   0  0  0  0  0  0  0  0  0  0  0  0
   -7.7104   -3.7992   -3.7382 C   0  0  0  0  0  0  0  0  0  0  0  0
   -8.6003   -3.8181   -2.6430 C   0  0  0  0  0  0  0  0  0  0  0  0
   -9.8111   -4.6564   -2.6369 C   0  0  0  0  0  0  0  0  0  0  0  0
   -9.6833   -6.0528   -2.6190 C   0  0  0  0  0  0  0  0  0  0  0  0
  -10.8240   -6.8360   -2.6705 C   0  0  0  0  0  0  0  0  0  0  0  0
  -12.0899   -6.2765   -2.7545 C   0  0  0  0  0  0  0  0  0  0  0  0
  -13.3076   -7.1391   -2.9047 C   0  0  0  0  0  0  0  0  0  0  0  0
  -13.6947   -7.2407   -4.3814 C   0  0  0  0  0  0  0  0  0  0  0  0
  -12.1981   -4.8962   -2.7442 C   0  0  0  0  0  0  0  0  0  0  0  0
  -11.0809   -4.0771   -2.6744 C   0  0  0  0  0  0  0  0  0  0  0  0
  -11.2902   -2.5887   -2.6128 C   0  0  0  0  0  0  0  0  0  0  0  0
  -11.8370   -2.1928   -1.2402 C   0  0  0  0  0  0  0  0  0  0  0  0
   -8.3482   -6.7266   -2.4474 C   0  0  0  0  0  0  0  0  0  0  0  0
   -7.9312   -6.7148   -0.9753 C   0  0  0  0  0  0  0  0  0  0  0  0
   -8.1738   -3.0236   -1.5881 C   0  0  0  0  0  0  0  0  0  0  0  0
   -6.9387   -2.4359   -1.8185 C   0  0  0  0  0  0  0  0  0  0  0  0
   -6.2988   -2.8336   -3.3766 S   0  0  0  0  0  0  0  0  0  0  0  0
   -6.1824   -1.6368   -0.9167 C   0  0  0  0  0  0  0  0  0  0  0  0
   -6.6326   -0.7754    0.0684 C   0  0  0  0  0  0  0  0  0  0  0  0
   -8.0149   -0.3229    0.2362 C   0  0  0  0  0  0  0  0  0  0  0  0
   -8.5901   -0.2511    1.5007 C   0  0  0  0  0  0  0  0  0  0  0  0
   -9.8620    0.2700    1.6473 C   0  0  0  0  0  0  0  0  0  0  0  0
  -10.5518    0.7492    0.5476 C   0  0  0  0  0  0  0  0  0  0  0  0
   -9.9873    0.6944   -0.7213 C   0  0  0  0  0  0  0  0  0  0  0  0
  -10.6906    1.2920   -1.9064 C   0  0  0  0  0  0  0  0  0  0  0  0
  -10.2253    2.7335   -2.1225 C   0  0  0  0  0  0  0  0  0  0  0  0
   -8.7248    0.1417   -0.8668 C   0  0  0  0  0  0  0  0  0  0  0  0
   -5.5588   -0.2380    0.8035 C   0  0  0  0  0  0  0  0  0  0  0  0
   -5.4821    0.9137    2.1161 S   0  0  0  0  0  0  0  0  0  0  0  0
   -3.7538    0.8199    2.0652 C   0  0  0  0  0  0  0  0  0  0  0  0
   -2.6352    1.3638    2.7201 C   0  0  0  0  0  0  0  0  0  0  0  0
   -2.5221    2.2228    3.8351 C   0  0  0  0  0  0  0  0  0  0  0  0
   -1.2139    2.5691    4.3170 C   0  0  0  0  0  0  0  0  0  0  0  0
   -1.2596    3.3387    5.3929 N   0  0  0  0  0  0  0  0  0  0  0  0
   -2.8118    3.6090    5.7657 S   0  0  0  0  0  0  0  0  0  0  0  0
   -3.4875    2.7547    4.5680 N   0  0  0  0  0  0  0  0  0  0  0  0
   -0.0816    2.1444    3.5872 C   0  0  0  0  0  0  0  0  0  0  0  0
    1.2731    2.4987    3.6870 C   0  0  0  0  0  0  0  0  0  0  0  0
    2.3017    3.4714    4.6835 S   0  0  0  0  0  0  0  0  0  0  0  0
    3.6281    3.1356    3.5977 C   0  0  0  0  0  0  0  0  0  0  0  0
    4.9624    3.5876    3.5656 C   0  0  0  0  0  0  0  0  0  0  0  0
    5.4355    4.6567    4.4438 C   0  0  0  0  0  0  0  0  0  0  0  0
    5.1844    4.6234    5.8109 C   0  0  0  0  0  0  0  0  0  0  0  0
    5.4915    5.7217    6.5899 C   0  0  0  0  0  0  0  0  0  0  0  0
    6.0285    6.8598    6.0148 C   0  0  0  0  0  0  0  0  0  0  0  0
    6.2842    6.9108    4.6502 C   0  0  0  0  0  0  0  0  0  0  0  0
    6.7870    8.1712    4.0061 C   0  0  0  0  0  0  0  0  0  0  0  0
    5.6104    9.0211    3.5220 C   0  0  0  0  0  0  0  0  0  0  0  0
    5.9928    5.7983    3.8766 C   0  0  0  0  0  0  0  0  0  0  0  0
    5.6430    3.0595    2.4841 C   0  0  0  0  0  0  0  0  0  0  0  0
    4.6134    2.0501    1.4708 S   0  0  0  0  0  0  0  0  0  0  0  0
    3.2758    2.3019    2.5332 C   0  0  0  0  0  0  0  0  0  0  0  0
    1.9257    1.9334    2.5874 C   0  0  0  0  0  0  0  0  0  0  0  0
    1.0334    1.2237    1.8284 N   0  0  0  0  0  0  0  0  0  0  0  0
   -0.2068    1.3258    2.4299 C   0  0  0  0  0  0  0  0  0  0  0  0
   -1.4858    0.8259    2.0779 C   0  0  0  0  0  0  0  0  0  0  0  0
   -1.8976   -0.0658    1.0997 N   0  0  0  0  0  0  0  0  0  0  0  0
   -3.2698   -0.0540    1.0893 C   0  0  0  0  0  0  0  0  0  0  0  0
   -4.3015   -0.6649    0.3677 C   0  0  0  0  0  0  0  0  0  0  0  0
   -4.4296   -1.7581   -0.9622 S   0  0  0  0  0  0  0  0  0  0  0  0
   -1.2180   -1.2482    0.6147 C   0  0  0  0  0  0  0  0  0  0  0  0
   -1.5789   -2.4742    1.4539 C   0  0  0  0  0  0  0  0  0  0  0  0
    1.3886    0.8175    0.4870 C   0  0  0  0  0  0  0  0  0  0  0  0
    2.2802   -0.4247    0.4803 C   0  0  0  0  0  0  0  0  0  0  0  0
    7.0244    3.1150    2.1397 C   0  0  0  0  0  0  0  0  0  0  0  0
    8.1322    3.1114    2.9938 C   0  0  0  0  0  0  0  0  0  0  0  0
    8.0854    3.0830    4.4690 C   0  0  0  0  0  0  0  0  0  0  0  0
    8.6638    4.1271    5.2051 C   0  0  0  0  0  0  0  0  0  0  0  0
    8.6523    4.0576    6.5875 C   0  0  0  0  0  0  0  0  0  0  0  0
    8.0945    2.9785    7.2590 C   0  0  0  0  0  0  0  0  0  0  0  0
    8.1050    2.9291    8.7606 C   0  0  0  0  0  0  0  0  0  0  0  0
    6.9997    3.8030    9.3530 C   0  0  0  0  0  0  0  0  0  0  0  0
    7.5429    1.9509    6.5151 C   0  0  0  0  0  0  0  0  0  0  0  0
    7.5396    1.9786    5.1277 C   0  0  0  0  0  0  0  0  0  0  0  0
    7.0700    0.7518    4.3934 C   0  0  0  0  0  0  0  0  0  0  0  0
    8.2622   -0.1477    4.0596 C   0  0  0  0  0  0  0  0  0  0  0  0
    9.3150    5.2773    4.4782 C   0  0  0  0  0  0  0  0  0  0  0  0
    9.6701    6.4794    5.3444 C   0  0  0  0  0  0  0  0  0  0  0  0
    9.3148    3.0277    2.2717 C   0  0  0  0  0  0  0  0  0  0  0  0
    9.1612    2.9647    0.8856 C   0  0  0  0  0  0  0  0  0  0  0  0
    7.4681    3.0110    0.4675 S   0  0  0  0  0  0  0  0  0  0  0  0
   10.2524    2.8638    0.0155 C   0  0  0  0  0  0  0  0  0  0  0  0
   10.2888    2.7530   -1.3540 C   0  0  0  0  0  0  0  0  0  0  0  0
    9.1191    2.7045   -2.2365 C   0  0  0  0  0  0  0  0  0  0  0  0
    7.9438    2.7834   -1.9227 O   0  0  0  0  0  0  0  0  0  0  0  0
    9.6452    2.5363   -3.6032 C   0  0  0  0  0  0  0  0  0  0  0  0
    8.9529    2.4237   -4.7932 C   0  0  0  0  0  0  0  0  0  0  0  0
    9.6736    2.2653   -5.9663 C   0  0  0  0  0  0  0  0  0  0  0  0
   11.0621    2.2240   -5.9223 C   0  0  0  0  0  0  0  0  0  0  0  0
   11.9417    2.0245   -7.3904 Cl  0  0  0  0  0  0  0  0  0  0  0  0
   11.7710    2.3378   -4.7294 C   0  0  0  0  0  0  0  0  0  0  0  0
   11.0494    2.4954   -3.5589 C   0  0  0  0  0  0  0  0  0  0  0  0
   11.4817    2.6398   -2.1661 C   0  0  0  0  0  0  0  0  0  0  0  0
   12.7873    2.6674   -1.7472 C   0  0  0  0  0  0  0  0  0  0  0  0
   13.8994    2.5481   -2.6071 C   0  0  0  0  0  0  0  0  0  0  0  0
   14.8513    2.4566   -3.2424 N   0  0  0  0  0  0  0  0  0  0  0  0
   13.2236    2.8241   -0.4152 C   0  0  0  0  0  0  0  0  0  0  0  0
   13.6629    2.9515    0.6388 N   0  0  0  0  0  0  0  0  0  0  0  0
   -8.9490   -4.9638   -4.9291 H   0  0  0  0  0  0  0  0  0  0  0  0
   -3.7268   -3.2408   -7.9699 H   0  0  0  0  0  0  0  0  0  0  0  0
   -2.4573   -3.3050  -10.0948 H   0  0  0  0  0  0  0  0  0  0  0  0
   -2.2487   -4.0658  -12.4490 H   0  0  0  0  0  0  0  0  0  0  0  0
   -5.9794   -6.1156  -12.1536 H   0  0  0  0  0  0  0  0  0  0  0  0
   -7.2506   -6.0716  -10.0736 H   0  0  0  0  0  0  0  0  0  0  0  0
  -10.7211   -7.9114   -2.6585 H   0  0  0  0  0  0  0  0  0  0  0  0
  -14.1397   -6.7134   -2.3387 H   0  0  0  0  0  0  0  0  0  0  0  0
  -13.1040   -8.1382   -2.5150 H   0  0  0  0  0  0  0  0  0  0  0  0
  -14.5417   -7.9110   -4.5092 H   0  0  0  0  0  0  0  0  0  0  0  0
  -12.8554   -7.6136   -4.9618 H   0  0  0  0  0  0  0  0  0  0  0  0
  -13.9632   -6.2610   -4.7694 H   0  0  0  0  0  0  0  0  0  0  0  0
  -13.1768   -4.4406   -2.8007 H   0  0  0  0  0  0  0  0  0  0  0  0
  -12.0101   -2.2944   -3.3805 H   0  0  0  0  0  0  0  0  0  0  0  0
  -10.3569   -2.0562   -2.8000 H   0  0  0  0  0  0  0  0  0  0  0  0
  -12.7476   -2.7449   -1.0209 H   0  0  0  0  0  0  0  0  0  0  0  0
  -11.1106   -2.4119   -0.4611 H   0  0  0  0  0  0  0  0  0  0  0  0
  -12.0587   -1.1302   -1.2090 H   0  0  0  0  0  0  0  0  0  0  0  0
   -8.4242   -7.7599   -2.7908 H   0  0  0  0  0  0  0  0  0  0  0  0
   -7.5754   -6.2358   -3.0399 H   0  0  0  0  0  0  0  0  0  0  0  0
   -7.8151   -5.6925   -0.6215 H   0  0  0  0  0  0  0  0  0  0  0  0
   -8.6862   -7.2053   -0.3651 H   0  0  0  0  0  0  0  0  0  0  0  0
   -6.9853   -7.2358   -0.8447 H   0  0  0  0  0  0  0  0  0  0  0  0
   -8.7131   -2.9107   -0.6643 H   0  0  0  0  0  0  0  0  0  0  0  0
   -8.0429   -0.6089    2.3598 H   0  0  0  0  0  0  0  0  0  0  0  0
  -10.3122    0.3162    2.6277 H   0  0  0  0  0  0  0  0  0  0  0  0
  -11.5363    1.1759    0.6753 H   0  0  0  0  0  0  0  0  0  0  0  0
  -11.7704    1.2873   -1.7442 H   0  0  0  0  0  0  0  0  0  0  0  0
  -10.4756    0.7058   -2.8022 H   0  0  0  0  0  0  0  0  0  0  0  0
  -10.4427    3.3363   -1.2435 H   0  0  0  0  0  0  0  0  0  0  0  0
  -10.7318    3.1722   -2.9791 H   0  0  0  0  0  0  0  0  0  0  0  0
   -9.1527    2.7633   -2.2997 H   0  0  0  0  0  0  0  0  0  0  0  0
   -8.2676    0.0992   -1.8455 H   0  0  0  0  0  0  0  0  0  0  0  0
    4.7552    3.7388    6.2551 H   0  0  0  0  0  0  0  0  0  0  0  0
    5.2886    5.7000    7.6497 H   0  0  0  0  0  0  0  0  0  0  0  0
    6.2406    7.7241    6.6287 H   0  0  0  0  0  0  0  0  0  0  0  0
    7.4269    7.9268    3.1558 H   0  0  0  0  0  0  0  0  0  0  0  0
    7.3753    8.7482    4.7218 H   0  0  0  0  0  0  0  0  0  0  0  0
    5.9683    9.9358    3.0551 H   0  0  0  0  0  0  0  0  0  0  0  0
    4.9663    9.2859    4.3576 H   0  0  0  0  0  0  0  0  0  0  0  0
    5.0173    8.4691    2.7963 H   0  0  0  0  0  0  0  0  0  0  0  0
    6.1614    5.8283    2.8085 H   0  0  0  0  0  0  0  0  0  0  0  0
   -0.1460   -1.1015    0.6605 H   0  0  0  0  0  0  0  0  0  0  0  0
   -1.5191   -1.4090   -0.4252 H   0  0  0  0  0  0  0  0  0  0  0  0
   -1.0363   -3.3405    1.0855 H   0  0  0  0  0  0  0  0  0  0  0  0
   -1.3113   -2.3089    2.4956 H   0  0  0  0  0  0  0  0  0  0  0  0
   -2.6433   -2.6845    1.3976 H   0  0  0  0  0  0  0  0  0  0  0  0
    1.9435    1.6427    0.0260 H   0  0  0  0  0  0  0  0  0  0  0  0
    0.4772    0.6706   -0.0934 H   0  0  0  0  0  0  0  0  0  0  0  0
    2.4250   -0.7677   -0.5402 H   0  0  0  0  0  0  0  0  0  0  0  0
    3.2524   -0.1879    0.9034 H   0  0  0  0  0  0  0  0  0  0  0  0
    1.8495   -1.2334    1.0670 H   0  0  0  0  0  0  0  0  0  0  0  0
    9.1002    4.8467    7.1695 H   0  0  0  0  0  0  0  0  0  0  0  0
    9.0720    3.2789    9.1297 H   0  0  0  0  0  0  0  0  0  0  0  0
    7.9674    1.8989    9.0949 H   0  0  0  0  0  0  0  0  0  0  0  0
    7.0116    3.7465   10.4393 H   0  0  0  0  0  0  0  0  0  0  0  0
    7.1410    4.8396    9.0569 H   0  0  0  0  0  0  0  0  0  0  0  0
    6.0264    3.4718    8.9982 H   0  0  0  0  0  0  0  0  0  0  0  0
    7.1250    1.0922    7.0221 H   0  0  0  0  0  0  0  0  0  0  0  0
    6.3708    0.2004    5.0255 H   0  0  0  0  0  0  0  0  0  0  0  0
    6.5533    1.0078    3.4707 H   0  0  0  0  0  0  0  0  0  0  0  0
    8.7933   -0.4249    4.9674 H   0  0  0  0  0  0  0  0  0  0  0  0
    7.9264   -1.0542    3.5611 H   0  0  0  0  0  0  0  0  0  0  0  0
    8.9563    0.3717    3.4025 H   0  0  0  0  0  0  0  0  0  0  0  0
   10.2327    4.9157    4.0058 H   0  0  0  0  0  0  0  0  0  0  0  0
    8.6478    5.5987    3.6748 H   0  0  0  0  0  0  0  0  0  0  0  0
   10.0278    7.2892    4.7121 H   0  0  0  0  0  0  0  0  0  0  0  0
   10.4595    6.2336    6.0505 H   0  0  0  0  0  0  0  0  0  0  0  0
    8.7992    6.8289    5.8924 H   0  0  0  0  0  0  0  0  0  0  0  0
   10.2860    2.9677    2.7321 H   0  0  0  0  0  0  0  0  0  0  0  0
   11.2053    2.8677    0.5308 H   0  0  0  0  0  0  0  0  0  0  0  0
    7.8745    2.4588   -4.7979 H   0  0  0  0  0  0  0  0  0  0  0  0
    9.1681    2.1728   -6.9144 H   0  0  0  0  0  0  0  0  0  0  0  0
   12.8475    2.3002   -4.7426 H   0  0  0  0  0  0  0  0  0  0  0  0
  1  2  2  0  0  0  0
  2  3  1  0  0  0  0
  3  4  2  0  0  0  0
  3  5  1  0  0  0  0
  5  6  2  0  0  0  0
  6  7  1  0  0  0  0
  7  8  2  0  0  0  0
  8  9  1  0  0  0  0
  9 10  2  0  0  0  0
 10 11  1  0  0  0  0
 10 12  1  0  0  0  0
 12 13  2  0  0  0  0
 13 14  1  0  0  0  0
 14 15  2  0  0  0  0
 15 16  1  0  0  0  0
 16 17  2  0  0  0  0
 17 18  1  0  0  0  0
 18 19  3  0  0  0  0
 17 20  1  0  0  0  0
 20 21  3  0  0  0  0
  1 22  1  0  0  0  0
 22 23  2  0  0  0  0
 23 24  1  0  0  0  0
 24 25  2  0  0  0  0
 25 26  1  0  0  0  0
 26 27  2  0  0  0  0
 27 28  1  0  0  0  0
 28 29  1  0  0  0  0
 27 30  1  0  0  0  0
 30 31  2  0  0  0  0
 31 32  1  0  0  0  0
 32 33  1  0  0  0  0
 25 34  1  0  0  0  0
 34 35  1  0  0  0  0
 23 36  1  0  0  0  0
 36 37  2  0  0  0  0
 37 38  1  0  0  0  0
 37 39  1  0  0  0  0
 39 40  2  0  0  0  0
 40 41  1  0  0  0  0
 41 42  2  0  0  0  0
 42 43  1  0  0  0  0
 43 44  2  0  0  0  0
 44 45  1  0  0  0  0
 45 46  1  0  0  0  0
 46 47  1  0  0  0  0
 45 48  2  0  0  0  0
 40 49  1  0  0  0  0
 49 50  1  0  0  0  0
 50 51  1  0  0  0  0
 51 52  1  0  0  0  0
 52 53  1  0  0  0  0
 53 54  1  0  0  0  0
 54 55  2  0  0  0  0
 55 56  1  0  0  0  0
 56 57  1  0  0  0  0
 54 58  1  0  0  0  0
 58 59  1  0  0  0  0
 59 60  1  0  0  0  0
 60 61  1  0  0  0  0
 61 62  1  0  0  0  0
 62 63  1  0  0  0  0
 63 64  2  0  0  0  0
 64 65  1  0  0  0  0
 65 66  2  0  0  0  0
 66 67  1  0  0  0  0
 67 68  1  0  0  0  0
 68 69  1  0  0  0  0
 67 70  2  0  0  0  0
 62 71  2  0  0  0  0
 71 72  1  0  0  0  0
 72 73  1  0  0  0  0
 73 74  1  0  0  0  0
 74 75  1  0  0  0  0
 75 76  1  0  0  0  0
 76 77  1  0  0  0  0
 77 78  1  0  0  0  0
 78 79  1  0  0  0  0
 79 80  1  0  0  0  0
 80 81  1  0  0  0  0
 78 82  1  0  0  0  0
 82 83  1  0  0  0  0
 75 84  1  0  0  0  0
 84 85  1  0  0  0  0
 71 86  1  0  0  0  0
 86 87  2  0  0  0  0
 87 88  1  0  0  0  0
 88 89  2  0  0  0  0
 89 90  1  0  0  0  0
 90 91  2  0  0  0  0
 91 92  1  0  0  0  0
 92 93  1  0  0  0  0
 91 94  1  0  0  0  0
 94 95  2  0  0  0  0
 95 96  1  0  0  0  0
 96 97  1  0  0  0  0
 89 98  1  0  0  0  0
 98 99  1  0  0  0  0
 87100  1  0  0  0  0
100101  2  0  0  0  0
101102  1  0  0  0  0
101103  1  0  0  0  0
103104  2  0  0  0  0
104105  1  0  0  0  0
105106  2  0  0  0  0
105107  1  0  0  0  0
107108  2  0  0  0  0
108109  1  0  0  0  0
109110  2  0  0  0  0
110111  1  0  0  0  0
110112  1  0  0  0  0
112113  2  0  0  0  0
113114  1  0  0  0  0
114115  2  0  0  0  0
115116  1  0  0  0  0
116117  3  0  0  0  0
115118  1  0  0  0  0
118119  3  0  0  0  0
 16  2  1  0  0  0  0
 38 22  1  0  0  0  0
 81 39  1  0  0  0  0
102 86  1  0  0  0  0
114104  1  0  0  0  0
 15  5  1  0  0  0  0
 31 24  1  0  0  0  0
 48 41  1  0  0  0  0
 80 49  2  0  0  0  0
 95 88  1  0  0  0  0
113107  1  0  0  0  0
 13  7  1  0  0  0  0
 79 51  2  0  0  0  0
 77 52  2  0  0  0  0
 57 53  2  0  0  0  0
 76 58  2  0  0  0  0
 74 59  2  0  0  0  0
 73 61  2  0  0  0  0
 70 63  1  0  0  0  0
  1120  1  0  0  0  0
  6121  1  0  0  0  0
  8122  1  0  0  0  0
  9123  1  0  0  0  0
 12124  1  0  0  0  0
 14125  1  0  0  0  0
 26126  1  0  0  0  0
 28127  1  0  0  0  0
 28128  1  0  0  0  0
 29129  1  0  0  0  0
 29130  1  0  0  0  0
 29131  1  0  0  0  0
 30132  1  0  0  0  0
 32133  1  0  0  0  0
 32134  1  0  0  0  0
 33135  1  0  0  0  0
 33136  1  0  0  0  0
 33137  1  0  0  0  0
 34138  1  0  0  0  0
 34139  1  0  0  0  0
 35140  1  0  0  0  0
 35141  1  0  0  0  0
 35142  1  0  0  0  0
 36143  1  0  0  0  0
 42144  1  0  0  0  0
 43145  1  0  0  0  0
 44146  1  0  0  0  0
 46147  1  0  0  0  0
 46148  1  0  0  0  0
 47149  1  0  0  0  0
 47150  1  0  0  0  0
 47151  1  0  0  0  0
 48152  1  0  0  0  0
 64153  1  0  0  0  0
 65154  1  0  0  0  0
 66155  1  0  0  0  0
 68156  1  0  0  0  0
 68157  1  0  0  0  0
 69158  1  0  0  0  0
 69159  1  0  0  0  0
 69160  1  0  0  0  0
 70161  1  0  0  0  0
 82162  1  0  0  0  0
 82163  1  0  0  0  0
 83164  1  0  0  0  0
 83165  1  0  0  0  0
 83166  1  0  0  0  0
 84167  1  0  0  0  0
 84168  1  0  0  0  0
 85169  1  0  0  0  0
 85170  1  0  0  0  0
 85171  1  0  0  0  0
 90172  1  0  0  0  0
 92173  1  0  0  0  0
 92174  1  0  0  0  0
 93175  1  0  0  0  0
 93176  1  0  0  0  0
 93177  1  0  0  0  0
 94178  1  0  0  0  0
 96179  1  0  0  0  0
 96180  1  0  0  0  0
 97181  1  0  0  0  0
 97182  1  0  0  0  0
 97183  1  0  0  0  0
 98184  1  0  0  0  0
 98185  1  0  0  0  0
 99186  1  0  0  0  0
 99187  1  0  0  0  0
 99188  1  0  0  0  0
100189  1  0  0  0  0
103190  1  0  0  0  0
108191  1  0  0  0  0
109192  1  0  0  0  0
112193  1  0  0  0  0
M  END
