
  xtb     02042217513D
 energy: -312.899592837075 gnorm: 0.000473528905 xtb: 6.4.1 (unknown)
184204  0     0  0            999 V2000
    2.7586    2.0227    6.8242 C   0  0  0  0  0  0  0  0  0  0  0  0
    2.2308    3.0212    6.0510 C   0  0  0  0  0  0  0  0  0  0  0  0
    1.3370    4.0341    6.6633 C   0  0  0  0  0  0  0  0  0  0  0  0
    1.2065    4.2792    7.8420 O   0  0  0  0  0  0  0  0  0  0  0  0
    0.5871    4.6202    5.5289 C   0  0  0  0  0  0  0  0  0  0  0  0
   -0.4509    5.5054    5.5454 C   0  0  0  0  0  0  0  0  0  0  0  0
   -1.0521    5.8880    4.3237 C   0  0  0  0  0  0  0  0  0  0  0  0
   -2.1316    6.7938    4.2859 C   0  0  0  0  0  0  0  0  0  0  0  0
   -2.7196    7.1431    3.1016 C   0  0  0  0  0  0  0  0  0  0  0  0
   -2.2308    6.5857    1.9133 C   0  0  0  0  0  0  0  0  0  0  0  0
   -2.8280    6.9353    0.7546 F   0  0  0  0  0  0  0  0  0  0  0  0
   -1.1827    5.7090    1.8915 C   0  0  0  0  0  0  0  0  0  0  0  0
   -0.5644    5.3397    3.1022 C   0  0  0  0  0  0  0  0  0  0  0  0
    0.5260    4.4384    3.1132 C   0  0  0  0  0  0  0  0  0  0  0  0
    1.0932    4.0894    4.3075 C   0  0  0  0  0  0  0  0  0  0  0  0
    2.2259    3.2237    4.6224 C   0  0  0  0  0  0  0  0  0  0  0  0
    3.2417    2.9052    3.7549 C   0  0  0  0  0  0  0  0  0  0  0  0
    3.2014    3.1480    2.3705 C   0  0  0  0  0  0  0  0  0  0  0  0
    3.2012    3.2894    1.2304 N   0  0  0  0  0  0  0  0  0  0  0  0
    4.4718    2.3746    4.1920 C   0  0  0  0  0  0  0  0  0  0  0  0
    5.5030    2.0036    4.5355 N   0  0  0  0  0  0  0  0  0  0  0  0
    3.1747    0.7374    6.4340 C   0  0  0  0  0  0  0  0  0  0  0  0
    3.7575   -0.2278    7.2604 C   0  0  0  0  0  0  0  0  0  0  0  0
    4.1362    0.0581    8.6540 C   0  0  0  0  0  0  0  0  0  0  0  0
    3.3751   -0.4778    9.6965 C   0  0  0  0  0  0  0  0  0  0  0  0
    3.7187   -0.1801   11.0059 C   0  0  0  0  0  0  0  0  0  0  0  0
    4.8033    0.6302   11.3038 C   0  0  0  0  0  0  0  0  0  0  0  0
    5.1888    0.9062   12.7282 C   0  0  0  0  0  0  0  0  0  0  0  0
    6.1949   -0.1366   13.2193 C   0  0  0  0  0  0  0  0  0  0  0  0
    5.5552    1.1394   10.2558 C   0  0  0  0  0  0  0  0  0  0  0  0
    5.2379    0.8735    8.9326 C   0  0  0  0  0  0  0  0  0  0  0  0
    6.1259    1.3986    7.8403 C   0  0  0  0  0  0  0  0  0  0  0  0
    7.1214    0.3282    7.3893 C   0  0  0  0  0  0  0  0  0  0  0  0
    2.1563   -1.3155    9.4246 C   0  0  0  0  0  0  0  0  0  0  0  0
    0.9250   -0.4368    9.1951 C   0  0  0  0  0  0  0  0  0  0  0  0
    3.9406   -1.4581    6.6234 C   0  0  0  0  0  0  0  0  0  0  0  0
    3.5047   -1.4707    5.3127 C   0  0  0  0  0  0  0  0  0  0  0  0
    2.8363    0.0665    4.8602 S   0  0  0  0  0  0  0  0  0  0  0  0
    3.5554   -2.4763    4.3110 C   0  0  0  0  0  0  0  0  0  0  0  0
    3.6282   -3.8581    4.3964 C   0  0  0  0  0  0  0  0  0  0  0  0
    3.5919   -4.6402    5.6336 C   0  0  0  0  0  0  0  0  0  0  0  0
    4.5114   -5.6651    5.8306 C   0  0  0  0  0  0  0  0  0  0  0  0
    4.4595   -6.4220    6.9864 C   0  0  0  0  0  0  0  0  0  0  0  0
    3.4823   -6.1803    7.9345 C   0  0  0  0  0  0  0  0  0  0  0  0
    2.5381   -5.1773    7.7412 C   0  0  0  0  0  0  0  0  0  0  0  0
    1.4298   -4.9812    8.7356 C   0  0  0  0  0  0  0  0  0  0  0  0
    0.3389   -6.0346    8.5330 C   0  0  0  0  0  0  0  0  0  0  0  0
    2.6080   -4.4079    6.5909 C   0  0  0  0  0  0  0  0  0  0  0  0
    3.6458   -4.4438    3.1148 C   0  0  0  0  0  0  0  0  0  0  0  0
    3.5770   -6.1024    2.5521 S   0  0  0  0  0  0  0  0  0  0  0  0
    3.4162   -5.5317    0.9199 C   0  0  0  0  0  0  0  0  0  0  0  0
    3.1099   -6.0135   -0.3692 C   0  0  0  0  0  0  0  0  0  0  0  0
    2.6719   -7.2696   -0.8544 C   0  0  0  0  0  0  0  0  0  0  0  0
    2.0336   -7.3455   -2.1482 C   0  0  0  0  0  0  0  0  0  0  0  0
    1.5687   -8.5567   -2.4055 N   0  0  0  0  0  0  0  0  0  0  0  0
    1.9108   -9.5228   -1.1529 S   0  0  0  0  0  0  0  0  0  0  0  0
    2.6575   -8.4303   -0.2208 N   0  0  0  0  0  0  0  0  0  0  0  0
    1.9964   -6.1984   -2.9755 C   0  0  0  0  0  0  0  0  0  0  0  0
    1.4096   -5.8924   -4.2222 C   0  0  0  0  0  0  0  0  0  0  0  0
    0.2444   -6.5388   -5.3363 S   0  0  0  0  0  0  0  0  0  0  0  0
    0.2046   -5.0029   -6.1799 C   0  0  0  0  0  0  0  0  0  0  0  0
   -0.6365   -4.4559   -7.1751 C   0  0  0  0  0  0  0  0  0  0  0  0
   -1.6800   -5.1847   -7.8918 C   0  0  0  0  0  0  0  0  0  0  0  0
   -2.4947   -6.0999   -7.2312 C   0  0  0  0  0  0  0  0  0  0  0  0
   -3.4825   -6.7685   -7.9286 C   0  0  0  0  0  0  0  0  0  0  0  0
   -3.6673   -6.5340   -9.2799 C   0  0  0  0  0  0  0  0  0  0  0  0
   -2.8541   -5.6349   -9.9589 C   0  0  0  0  0  0  0  0  0  0  0  0
   -3.0796   -5.3344  -11.4123 C   0  0  0  0  0  0  0  0  0  0  0  0
   -4.0052   -4.1249  -11.5595 C   0  0  0  0  0  0  0  0  0  0  0  0
   -1.8616   -4.9713   -9.2562 C   0  0  0  0  0  0  0  0  0  0  0  0
   -0.3613   -3.1135   -7.3820 C   0  0  0  0  0  0  0  0  0  0  0  0
    1.0121   -2.5523   -6.4277 S   0  0  0  0  0  0  0  0  0  0  0  0
    1.1237   -4.0909   -5.6616 C   0  0  0  0  0  0  0  0  0  0  0  0
    1.7962   -4.5872   -4.5442 C   0  0  0  0  0  0  0  0  0  0  0  0
    2.5940   -4.0648   -3.5595 N   0  0  0  0  0  0  0  0  0  0  0  0
    2.6607   -5.0157   -2.5598 C   0  0  0  0  0  0  0  0  0  0  0  0
    3.0502   -4.8737   -1.2128 C   0  0  0  0  0  0  0  0  0  0  0  0
    3.2857   -3.7312   -0.4714 N   0  0  0  0  0  0  0  0  0  0  0  0
    3.4733   -4.1371    0.8236 C   0  0  0  0  0  0  0  0  0  0  0  0
    3.5833   -3.5186    2.0695 C   0  0  0  0  0  0  0  0  0  0  0  0
    3.5261   -1.8996    2.6495 S   0  0  0  0  0  0  0  0  0  0  0  0
    2.7711   -2.3990   -0.7149 C   0  0  0  0  0  0  0  0  0  0  0  0
    1.2651   -2.3411   -0.4677 C   0  0  0  0  0  0  0  0  0  0  0  0
    3.5937   -3.0594   -3.8544 C   0  0  0  0  0  0  0  0  0  0  0  0
    4.4345   -3.4531   -5.0684 C   0  0  0  0  0  0  0  0  0  0  0  0
   -1.1523   -2.0836   -7.9679 C   0  0  0  0  0  0  0  0  0  0  0  0
   -2.8915   -2.2749   -8.1869 S   0  0  0  0  0  0  0  0  0  0  0  0
   -3.0588   -0.5617   -8.3784 C   0  0  0  0  0  0  0  0  0  0  0  0
   -4.0250    0.4395   -8.4156 C   0  0  0  0  0  0  0  0  0  0  0  0
   -3.3239    1.6758   -8.4068 C   0  0  0  0  0  0  0  0  0  0  0  0
   -1.9742    1.4423   -8.3940 N   0  0  0  0  0  0  0  0  0  0  0  0
   -0.9466    2.4507   -8.3613 C   0  0  0  0  0  0  0  0  0  0  0  0
   -0.5616    2.9009   -9.7686 C   0  0  0  0  0  0  0  0  0  0  0  0
   -1.8025    0.0893   -8.3523 C   0  0  0  0  0  0  0  0  0  0  0  0
   -0.7328   -0.7792   -8.1306 C   0  0  0  0  0  0  0  0  0  0  0  0
   -4.1409    2.7866   -8.2590 C   0  0  0  0  0  0  0  0  0  0  0  0
   -5.4754    2.4295   -8.1387 C   0  0  0  0  0  0  0  0  0  0  0  0
   -5.7258    0.6825   -8.3344 S   0  0  0  0  0  0  0  0  0  0  0  0
   -6.5835    3.2205   -7.7924 C   0  0  0  0  0  0  0  0  0  0  0  0
   -6.5613    4.3455   -7.0038 C   0  0  0  0  0  0  0  0  0  0  0  0
   -5.4536    4.7362   -6.1036 C   0  0  0  0  0  0  0  0  0  0  0  0
   -4.2890    4.3892   -6.1263 O   0  0  0  0  0  0  0  0  0  0  0  0
   -6.0680    5.6141   -5.0890 C   0  0  0  0  0  0  0  0  0  0  0  0
   -5.4974    6.1349   -3.9643 C   0  0  0  0  0  0  0  0  0  0  0  0
   -6.2782    6.9425   -3.1072 C   0  0  0  0  0  0  0  0  0  0  0  0
   -5.7451    7.4875   -1.9213 C   0  0  0  0  0  0  0  0  0  0  0  0
   -6.5132    8.2638   -1.0984 C   0  0  0  0  0  0  0  0  0  0  0  0
   -7.8449    8.5160   -1.4522 C   0  0  0  0  0  0  0  0  0  0  0  0
   -8.5846    9.2853   -0.6299 F   0  0  0  0  0  0  0  0  0  0  0  0
   -8.4111    8.0099   -2.5892 C   0  0  0  0  0  0  0  0  0  0  0  0
   -7.6376    7.2040   -3.4468 C   0  0  0  0  0  0  0  0  0  0  0  0
   -8.2005    6.6507   -4.6220 C   0  0  0  0  0  0  0  0  0  0  0  0
   -7.4274    5.8600   -5.4286 C   0  0  0  0  0  0  0  0  0  0  0  0
   -7.7270    5.1295   -6.6558 C   0  0  0  0  0  0  0  0  0  0  0  0
   -8.8815    5.2236   -7.3902 C   0  0  0  0  0  0  0  0  0  0  0  0
   -9.9852    6.0168   -7.0200 C   0  0  0  0  0  0  0  0  0  0  0  0
  -10.9132    6.6409   -6.7589 N   0  0  0  0  0  0  0  0  0  0  0  0
   -9.0827    4.5809   -8.6292 C   0  0  0  0  0  0  0  0  0  0  0  0
   -9.2954    4.1042   -9.6522 N   0  0  0  0  0  0  0  0  0  0  0  0
    2.7485    2.2025    7.8955 H   0  0  0  0  0  0  0  0  0  0  0  0
   -0.8146    5.9081    6.4789 H   0  0  0  0  0  0  0  0  0  0  0  0
   -2.4923    7.2094    5.2148 H   0  0  0  0  0  0  0  0  0  0  0  0
   -3.5474    7.8329    3.0588 H   0  0  0  0  0  0  0  0  0  0  0  0
   -0.8278    5.3031    0.9571 H   0  0  0  0  0  0  0  0  0  0  0  0
    0.8779    4.0341    2.1769 H   0  0  0  0  0  0  0  0  0  0  0  0
    3.1221   -0.5871   11.8104 H   0  0  0  0  0  0  0  0  0  0  0  0
    4.3021    0.8791   13.3644 H   0  0  0  0  0  0  0  0  0  0  0  0
    5.6343    1.9000   12.8045 H   0  0  0  0  0  0  0  0  0  0  0  0
    7.0894   -0.1192   12.6007 H   0  0  0  0  0  0  0  0  0  0  0  0
    6.4803    0.0644   14.2492 H   0  0  0  0  0  0  0  0  0  0  0  0
    5.7626   -1.1334   13.1660 H   0  0  0  0  0  0  0  0  0  0  0  0
    6.4085    1.7664   10.4731 H   0  0  0  0  0  0  0  0  0  0  0  0
    6.6768    2.2653    8.2097 H   0  0  0  0  0  0  0  0  0  0  0  0
    5.5428    1.7171    6.9760 H   0  0  0  0  0  0  0  0  0  0  0  0
    7.7466    0.0117    8.2218 H   0  0  0  0  0  0  0  0  0  0  0  0
    7.7557    0.7230    6.6004 H   0  0  0  0  0  0  0  0  0  0  0  0
    6.5952   -0.5417    7.0028 H   0  0  0  0  0  0  0  0  0  0  0  0
    1.9729   -1.9683   10.2804 H   0  0  0  0  0  0  0  0  0  0  0  0
    2.3205   -1.9444    8.5482 H   0  0  0  0  0  0  0  0  0  0  0  0
    0.0392   -1.0530    9.0552 H   0  0  0  0  0  0  0  0  0  0  0  0
    1.0540    0.1852    8.3123 H   0  0  0  0  0  0  0  0  0  0  0  0
    0.7610    0.2157   10.0494 H   0  0  0  0  0  0  0  0  0  0  0  0
    4.4054   -2.3086    7.0906 H   0  0  0  0  0  0  0  0  0  0  0  0
    5.2695   -5.8541    5.0857 H   0  0  0  0  0  0  0  0  0  0  0  0
    5.1823   -7.2085    7.1445 H   0  0  0  0  0  0  0  0  0  0  0  0
    3.4438   -6.7792    8.8328 H   0  0  0  0  0  0  0  0  0  0  0  0
    0.9935   -3.9882    8.6185 H   0  0  0  0  0  0  0  0  0  0  0  0
    1.8262   -5.0641    9.7499 H   0  0  0  0  0  0  0  0  0  0  0  0
   -0.4650   -5.8910    9.2512 H   0  0  0  0  0  0  0  0  0  0  0  0
    0.7452   -7.0349    8.6618 H   0  0  0  0  0  0  0  0  0  0  0  0
   -0.0745   -5.9612    7.5295 H   0  0  0  0  0  0  0  0  0  0  0  0
    1.8767   -3.6301    6.4183 H   0  0  0  0  0  0  0  0  0  0  0  0
   -2.3651   -6.2711   -6.1737 H   0  0  0  0  0  0  0  0  0  0  0  0
   -4.1164   -7.4744   -7.4127 H   0  0  0  0  0  0  0  0  0  0  0  0
   -4.4466   -7.0567   -9.8154 H   0  0  0  0  0  0  0  0  0  0  0  0
   -3.5302   -6.1972  -11.9062 H   0  0  0  0  0  0  0  0  0  0  0  0
   -2.1261   -5.1199  -11.8994 H   0  0  0  0  0  0  0  0  0  0  0  0
   -4.9653   -4.3243  -11.0892 H   0  0  0  0  0  0  0  0  0  0  0  0
   -4.1722   -3.8980  -12.6098 H   0  0  0  0  0  0  0  0  0  0  0  0
   -3.5677   -3.2528  -11.0788 H   0  0  0  0  0  0  0  0  0  0  0  0
   -1.2083   -4.2844   -9.7761 H   0  0  0  0  0  0  0  0  0  0  0  0
    3.2885   -1.7245   -0.0277 H   0  0  0  0  0  0  0  0  0  0  0  0
    2.9816   -2.0803   -1.7310 H   0  0  0  0  0  0  0  0  0  0  0  0
    0.9066   -1.3276   -0.6220 H   0  0  0  0  0  0  0  0  0  0  0  0
    1.0339   -2.6403    0.5519 H   0  0  0  0  0  0  0  0  0  0  0  0
    0.7440   -3.0069   -1.1526 H   0  0  0  0  0  0  0  0  0  0  0  0
    3.0970   -2.1027   -4.0513 H   0  0  0  0  0  0  0  0  0  0  0  0
    4.2555   -2.9682   -2.9924 H   0  0  0  0  0  0  0  0  0  0  0  0
    3.8245   -3.4941   -5.9664 H   0  0  0  0  0  0  0  0  0  0  0  0
    4.8921   -4.4273   -4.9106 H   0  0  0  0  0  0  0  0  0  0  0  0
    5.2203   -2.7178   -5.2184 H   0  0  0  0  0  0  0  0  0  0  0  0
   -0.0766    2.0354   -7.8466 H   0  0  0  0  0  0  0  0  0  0  0  0
   -1.3231    3.2985   -7.7826 H   0  0  0  0  0  0  0  0  0  0  0  0
   -0.1845    2.0595  -10.3456 H   0  0  0  0  0  0  0  0  0  0  0  0
    0.2101    3.6636   -9.7171 H   0  0  0  0  0  0  0  0  0  0  0  0
   -1.4265    3.3133  -10.2826 H   0  0  0  0  0  0  0  0  0  0  0  0
    0.2975   -0.4858   -8.0370 H   0  0  0  0  0  0  0  0  0  0  0  0
   -3.8068    3.8053   -8.2462 H   0  0  0  0  0  0  0  0  0  0  0  0
   -7.5509    2.8247   -8.0800 H   0  0  0  0  0  0  0  0  0  0  0  0
   -4.4648    5.9286   -3.7258 H   0  0  0  0  0  0  0  0  0  0  0  0
   -4.7175    7.2781   -1.6643 H   0  0  0  0  0  0  0  0  0  0  0  0
   -6.1207    8.6850   -0.1867 H   0  0  0  0  0  0  0  0  0  0  0  0
   -9.4411    8.2237   -2.8286 H   0  0  0  0  0  0  0  0  0  0  0  0
   -9.2356    6.8553   -4.8452 H   0  0  0  0  0  0  0  0  0  0  0  0
  1  2  2  0  0  0  0
  2  3  1  0  0  0  0
  3  4  2  0  0  0  0
  3  5  1  0  0  0  0
  5  6  2  0  0  0  0
  6  7  1  0  0  0  0
  7  8  2  0  0  0  0
  8  9  1  0  0  0  0
  9 10  2  0  0  0  0
 10 11  1  0  0  0  0
 10 12  1  0  0  0  0
 12 13  2  0  0  0  0
 13 14  1  0  0  0  0
 14 15  2  0  0  0  0
 15 16  1  0  0  0  0
 16 17  2  0  0  0  0
 17 18  1  0  0  0  0
 18 19  3  0  0  0  0
 17 20  1  0  0  0  0
 20 21  3  0  0  0  0
  1 22  1  0  0  0  0
 22 23  2  0  0  0  0
 23 24  1  0  0  0  0
 24 25  2  0  0  0  0
 25 26  1  0  0  0  0
 26 27  2  0  0  0  0
 27 28  1  0  0  0  0
 28 29  1  0  0  0  0
 27 30  1  0  0  0  0
 30 31  2  0  0  0  0
 31 32  1  0  0  0  0
 32 33  1  0  0  0  0
 25 34  1  0  0  0  0
 34 35  1  0  0  0  0
 23 36  1  0  0  0  0
 36 37  2  0  0  0  0
 37 38  1  0  0  0  0
 37 39  1  0  0  0  0
 39 40  2  0  0  0  0
 40 41  1  0  0  0  0
 41 42  2  0  0  0  0
 42 43  1  0  0  0  0
 43 44  2  0  0  0  0
 44 45  1  0  0  0  0
 45 46  1  0  0  0  0
 46 47  1  0  0  0  0
 45 48  2  0  0  0  0
 40 49  1  0  0  0  0
 49 50  1  0  0  0  0
 50 51  1  0  0  0  0
 51 52  1  0  0  0  0
 52 53  1  0  0  0  0
 53 54  1  0  0  0  0
 54 55  2  0  0  0  0
 55 56  1  0  0  0  0
 56 57  1  0  0  0  0
 54 58  1  0  0  0  0
 58 59  1  0  0  0  0
 59 60  1  0  0  0  0
 60 61  1  0  0  0  0
 61 62  1  0  0  0  0
 62 63  1  0  0  0  0
 63 64  2  0  0  0  0
 64 65  1  0  0  0  0
 65 66  2  0  0  0  0
 66 67  1  0  0  0  0
 67 68  1  0  0  0  0
 68 69  1  0  0  0  0
 67 70  2  0  0  0  0
 62 71  2  0  0  0  0
 71 72  1  0  0  0  0
 72 73  1  0  0  0  0
 73 74  1  0  0  0  0
 74 75  1  0  0  0  0
 75 76  1  0  0  0  0
 76 77  1  0  0  0  0
 77 78  1  0  0  0  0
 78 79  1  0  0  0  0
 79 80  1  0  0  0  0
 80 81  1  0  0  0  0
 78 82  1  0  0  0  0
 82 83  1  0  0  0  0
 75 84  1  0  0  0  0
 84 85  1  0  0  0  0
 71 86  1  0  0  0  0
 86 87  1  0  0  0  0
 87 88  1  0  0  0  0
 88 89  1  0  0  0  0
 89 90  2  0  0  0  0
 90 91  1  0  0  0  0
 91 92  1  0  0  0  0
 92 93  1  0  0  0  0
 91 94  1  0  0  0  0
 94 95  1  0  0  0  0
 90 96  1  0  0  0  0
 96 97  2  0  0  0  0
 97 98  1  0  0  0  0
 97 99  1  0  0  0  0
 99100  2  0  0  0  0
100101  1  0  0  0  0
101102  2  0  0  0  0
101103  1  0  0  0  0
103104  2  0  0  0  0
104105  1  0  0  0  0
105106  2  0  0  0  0
106107  1  0  0  0  0
107108  2  0  0  0  0
108109  1  0  0  0  0
108110  1  0  0  0  0
110111  2  0  0  0  0
111112  1  0  0  0  0
112113  2  0  0  0  0
113114  1  0  0  0  0
114115  2  0  0  0  0
115116  1  0  0  0  0
116117  3  0  0  0  0
115118  1  0  0  0  0
118119  3  0  0  0  0
 16  2  1  0  0  0  0
 38 22  1  0  0  0  0
 81 39  1  0  0  0  0
 95 86  2  0  0  0  0
114100  1  0  0  0  0
 15  5  1  0  0  0  0
 31 24  1  0  0  0  0
 48 41  1  0  0  0  0
 80 49  2  0  0  0  0
 94 88  2  0  0  0  0
113103  1  0  0  0  0
 13  7  1  0  0  0  0
 79 51  2  0  0  0  0
 98 89  1  0  0  0  0
111105  1  0  0  0  0
 77 52  2  0  0  0  0
 57 53  2  0  0  0  0
 76 58  2  0  0  0  0
 74 59  2  0  0  0  0
 73 61  2  0  0  0  0
 70 63  1  0  0  0  0
  1120  1  0  0  0  0
  6121  1  0  0  0  0
  8122  1  0  0  0  0
  9123  1  0  0  0  0
 12124  1  0  0  0  0
 14125  1  0  0  0  0
 26126  1  0  0  0  0
 28127  1  0  0  0  0
 28128  1  0  0  0  0
 29129  1  0  0  0  0
 29130  1  0  0  0  0
 29131  1  0  0  0  0
 30132  1  0  0  0  0
 32133  1  0  0  0  0
 32134  1  0  0  0  0
 33135  1  0  0  0  0
 33136  1  0  0  0  0
 33137  1  0  0  0  0
 34138  1  0  0  0  0
 34139  1  0  0  0  0
 35140  1  0  0  0  0
 35141  1  0  0  0  0
 35142  1  0  0  0  0
 36143  1  0  0  0  0
 42144  1  0  0  0  0
 43145  1  0  0  0  0
 44146  1  0  0  0  0
 46147  1  0  0  0  0
 46148  1  0  0  0  0
 47149  1  0  0  0  0
 47150  1  0  0  0  0
 47151  1  0  0  0  0
 48152  1  0  0  0  0
 64153  1  0  0  0  0
 65154  1  0  0  0  0
 66155  1  0  0  0  0
 68156  1  0  0  0  0
 68157  1  0  0  0  0
 69158  1  0  0  0  0
 69159  1  0  0  0  0
 69160  1  0  0  0  0
 70161  1  0  0  0  0
 82162  1  0  0  0  0
 82163  1  0  0  0  0
 83164  1  0  0  0  0
 83165  1  0  0  0  0
 83166  1  0  0  0  0
 84167  1  0  0  0  0
 84168  1  0  0  0  0
 85169  1  0  0  0  0
 85170  1  0  0  0  0
 85171  1  0  0  0  0
 92172  1  0  0  0  0
 92173  1  0  0  0  0
 93174  1  0  0  0  0
 93175  1  0  0  0  0
 93176  1  0  0  0  0
 95177  1  0  0  0  0
 96178  1  0  0  0  0
 99179  1  0  0  0  0
104180  1  0  0  0  0
106181  1  0  0  0  0
107182  1  0  0  0  0
110183  1  0  0  0  0
112184  1  0  0  0  0
M  END
