
  xtb     02042222173D
 energy: -385.635188501948 gnorm: 0.000991089857 xtb: 6.4.1 (unknown)
236258  0     0  0            999 V2000
    0.7459   -8.3382    9.1423 C   0  0  0  0  0  0  0  0  0  0  0  0
    0.8937   -7.2130    9.9195 C   0  0  0  0  0  0  0  0  0  0  0  0
    1.3012   -5.8925    9.4386 C   0  0  0  0  0  0  0  0  0  0  0  0
    1.5371   -5.5584    8.2887 O   0  0  0  0  0  0  0  0  0  0  0  0
    1.3854   -5.0311   10.6316 C   0  0  0  0  0  0  0  0  0  0  0  0
    1.7363   -3.7157   10.7156 C   0  0  0  0  0  0  0  0  0  0  0  0
    1.7536   -3.0874   11.9813 C   0  0  0  0  0  0  0  0  0  0  0  0
    2.1086   -1.7314   12.1281 C   0  0  0  0  0  0  0  0  0  0  0  0
    2.1240   -1.1362   13.3591 C   0  0  0  0  0  0  0  0  0  0  0  0
    1.7790   -1.8972   14.4836 C   0  0  0  0  0  0  0  0  0  0  0  0
    1.8001   -1.2942   15.6874 F   0  0  0  0  0  0  0  0  0  0  0  0
    1.4263   -3.2152   14.3969 C   0  0  0  0  0  0  0  0  0  0  0  0
    1.4052   -3.8440   13.1371 C   0  0  0  0  0  0  0  0  0  0  0  0
    1.0432   -5.2068   13.0167 C   0  0  0  0  0  0  0  0  0  0  0  0
    1.0315   -5.7939   11.7805 C   0  0  0  0  0  0  0  0  0  0  0  0
    0.6986   -7.1514   11.3503 C   0  0  0  0  0  0  0  0  0  0  0  0
    0.2450   -8.1526   12.1736 C   0  0  0  0  0  0  0  0  0  0  0  0
   -0.1465   -9.4467   11.7730 C   0  0  0  0  0  0  0  0  0  0  0  0
   -0.5013  -10.5163   11.5463 N   0  0  0  0  0  0  0  0  0  0  0  0
    0.0808   -8.0106   13.5665 C   0  0  0  0  0  0  0  0  0  0  0  0
   -0.0713   -7.9631   14.7041 N   0  0  0  0  0  0  0  0  0  0  0  0
    0.8502   -8.5036    7.7602 C   0  0  0  0  0  0  0  0  0  0  0  0
    0.5987   -9.7458    7.1441 C   0  0  0  0  0  0  0  0  0  0  0  0
    0.2487  -10.9448    7.9284 C   0  0  0  0  0  0  0  0  0  0  0  0
    1.2576  -11.7022    8.5281 C   0  0  0  0  0  0  0  0  0  0  0  0
    0.9094  -12.8010    9.2967 C   0  0  0  0  0  0  0  0  0  0  0  0
   -0.4157  -13.1568    9.4940 C   0  0  0  0  0  0  0  0  0  0  0  0
   -0.7740  -14.3618   10.3134 C   0  0  0  0  0  0  0  0  0  0  0  0
   -0.8698  -15.6049    9.4268 C   0  0  0  0  0  0  0  0  0  0  0  0
   -1.4016  -12.3974    8.8846 C   0  0  0  0  0  0  0  0  0  0  0  0
   -1.0911  -11.2939    8.1056 C   0  0  0  0  0  0  0  0  0  0  0  0
   -2.2038  -10.4630    7.5274 C   0  0  0  0  0  0  0  0  0  0  0  0
   -2.6585   -9.3966    8.5263 C   0  0  0  0  0  0  0  0  0  0  0  0
    2.7093  -11.3739    8.3107 C   0  0  0  0  0  0  0  0  0  0  0  0
    3.2253  -12.0553    7.0423 C   0  0  0  0  0  0  0  0  0  0  0  0
    0.6899   -9.6983    5.7638 C   0  0  0  0  0  0  0  0  0  0  0  0
    1.0192   -8.4350    5.2843 C   0  0  0  0  0  0  0  0  0  0  0  0
    1.2174   -7.2831    6.5669 S   0  0  0  0  0  0  0  0  0  0  0  0
    1.1259   -8.0155    3.9338 C   0  0  0  0  0  0  0  0  0  0  0  0
    1.1793   -8.7694    2.7692 C   0  0  0  0  0  0  0  0  0  0  0  0
    1.3808  -10.2167    2.6786 C   0  0  0  0  0  0  0  0  0  0  0  0
    2.4176  -10.8312    3.3777 C   0  0  0  0  0  0  0  0  0  0  0  0
    2.6368  -12.1870    3.2299 C   0  0  0  0  0  0  0  0  0  0  0  0
    1.8328  -12.9371    2.3878 C   0  0  0  0  0  0  0  0  0  0  0  0
    0.7993  -12.3392    1.6790 C   0  0  0  0  0  0  0  0  0  0  0  0
   -0.0405  -13.1274    0.7164 C   0  0  0  0  0  0  0  0  0  0  0  0
    0.4850  -12.9508   -0.7097 C   0  0  0  0  0  0  0  0  0  0  0  0
    0.5856  -10.9766    1.8291 C   0  0  0  0  0  0  0  0  0  0  0  0
    1.1002   -7.9502    1.6286 C   0  0  0  0  0  0  0  0  0  0  0  0
    1.0593   -8.3094   -0.0827 S   0  0  0  0  0  0  0  0  0  0  0  0
    0.9391   -6.6142   -0.4106 C   0  0  0  0  0  0  0  0  0  0  0  0
    0.7533   -5.7510   -1.5028 C   0  0  0  0  0  0  0  0  0  0  0  0
    0.4822   -6.0166   -2.8632 C   0  0  0  0  0  0  0  0  0  0  0  0
    0.1159   -4.9268   -3.7234 C   0  0  0  0  0  0  0  0  0  0  0  0
   -0.1879   -5.3294   -4.9474 N   0  0  0  0  0  0  0  0  0  0  0  0
   -0.0214   -6.9384   -5.0147 S   0  0  0  0  0  0  0  0  0  0  0  0
    0.4415   -7.1856   -3.4829 N   0  0  0  0  0  0  0  0  0  0  0  0
    0.1760   -3.6093   -3.2193 C   0  0  0  0  0  0  0  0  0  0  0  0
   -0.0042   -2.3640   -3.8434 C   0  0  0  0  0  0  0  0  0  0  0  0
   -0.4956   -1.7259   -5.3758 S   0  0  0  0  0  0  0  0  0  0  0  0
   -0.2145   -0.1154   -4.7628 C   0  0  0  0  0  0  0  0  0  0  0  0
   -0.4066    1.1584   -5.3374 C   0  0  0  0  0  0  0  0  0  0  0  0
   -0.8543    1.3129   -6.7271 C   0  0  0  0  0  0  0  0  0  0  0  0
   -2.0325    1.9692   -7.0595 C   0  0  0  0  0  0  0  0  0  0  0  0
   -2.4128    2.0598   -8.3861 C   0  0  0  0  0  0  0  0  0  0  0  0
   -1.6384    1.4878   -9.3787 C   0  0  0  0  0  0  0  0  0  0  0  0
   -0.4700    0.8072   -9.0597 C   0  0  0  0  0  0  0  0  0  0  0  0
    0.3359    0.1132  -10.1189 C   0  0  0  0  0  0  0  0  0  0  0  0
   -0.1149   -1.3433  -10.2502 C   0  0  0  0  0  0  0  0  0  0  0  0
   -0.0895    0.7260   -7.7297 C   0  0  0  0  0  0  0  0  0  0  0  0
   -0.0385    2.1595   -4.4650 C   0  0  0  0  0  0  0  0  0  0  0  0
    0.5363    1.5278   -2.9241 S   0  0  0  0  0  0  0  0  0  0  0  0
    0.2515   -0.0933   -3.4479 C   0  0  0  0  0  0  0  0  0  0  0  0
    0.3500   -1.3844   -2.9117 C   0  0  0  0  0  0  0  0  0  0  0  0
    0.7087   -1.9730   -1.7280 N   0  0  0  0  0  0  0  0  0  0  0  0
    0.5785   -3.3414   -1.8813 C   0  0  0  0  0  0  0  0  0  0  0  0
    0.7265   -4.4278   -0.9806 C   0  0  0  0  0  0  0  0  0  0  0  0
    0.8558   -4.4939    0.3982 N   0  0  0  0  0  0  0  0  0  0  0  0
    0.9613   -5.8180    0.7372 C   0  0  0  0  0  0  0  0  0  0  0  0
    1.0365   -6.5819    1.9075 C   0  0  0  0  0  0  0  0  0  0  0  0
    1.0474   -6.2877    3.6083 S   0  0  0  0  0  0  0  0  0  0  0  0
    0.3941   -3.5594    1.4019 C   0  0  0  0  0  0  0  0  0  0  0  0
   -1.1259   -3.4190    1.3588 C   0  0  0  0  0  0  0  0  0  0  0  0
    1.4581   -1.2242   -0.7444 C   0  0  0  0  0  0  0  0  0  0  0  0
    0.5677   -0.3132    0.0992 C   0  0  0  0  0  0  0  0  0  0  0  0
    0.0087    3.5797   -4.6210 C   0  0  0  0  0  0  0  0  0  0  0  0
    0.9213    4.4048   -4.0284 C   0  0  0  0  0  0  0  0  0  0  0  0
    0.7208    5.7768   -4.3034 C   0  0  0  0  0  0  0  0  0  0  0  0
    1.4816    6.8721   -3.8490 C   0  0  0  0  0  0  0  0  0  0  0  0
    2.7016    6.7078   -3.0863 C   0  0  0  0  0  0  0  0  0  0  0  0
    3.1522    7.4715   -2.0446 C   0  0  0  0  0  0  0  0  0  0  0  0
    4.4164    7.0530   -1.5866 C   0  0  0  0  0  0  0  0  0  0  0  0
    5.2169    7.8130   -0.2727 Cl  0  0  0  0  0  0  0  0  0  0  0  0
    4.9632    5.9981   -2.2603 C   0  0  0  0  0  0  0  0  0  0  0  0
    6.6280    5.1465   -1.9755 Si  0  0  0  0  0  4  0  0  0  0  0  0
    6.7771    3.8502   -3.3733 C   0  0  0  0  0  0  0  0  0  0  0  0
    8.0655    3.0368   -3.3106 C   0  0  0  0  0  0  0  0  0  0  0  0
    8.0199    6.4510   -2.0795 C   0  0  0  0  0  0  0  0  0  0  0  0
    7.9502    7.2977   -3.3470 C   0  0  0  0  0  0  0  0  0  0  0  0
    6.5777    4.3201   -0.2511 C   0  0  0  0  0  0  0  0  0  0  0  0
    5.4156    3.3447   -0.0901 C   0  0  0  0  0  0  0  0  0  0  0  0
    3.8713    5.4862   -3.4967 S   0  0  0  0  0  0  0  0  0  0  0  0
    1.0218    8.1355   -4.2044 C   0  0  0  0  0  0  0  0  0  0  0  0
   -0.1555    8.3461   -4.9663 C   0  0  0  0  0  0  0  0  0  0  0  0
   -0.9305    7.2464   -5.4020 C   0  0  0  0  0  0  0  0  0  0  0  0
   -2.1972    7.4545   -6.0651 C   0  0  0  0  0  0  0  0  0  0  0  0
   -2.7746    6.4227   -7.3380 S   0  0  0  0  0  0  0  0  0  0  0  0
   -4.2486    7.3133   -7.5066 C   0  0  0  0  0  0  0  0  0  0  0  0
   -5.5266    6.7794   -8.7973 Si  0  0  0  0  0  4  0  0  0  0  0  0
   -5.0916    7.6677  -10.4369 C   0  0  0  0  0  0  0  0  0  0  0  0
   -3.6474    7.4552  -10.8807 C   0  0  0  0  0  0  0  0  0  0  0  0
   -5.3119    4.8852   -8.9613 C   0  0  0  0  0  0  0  0  0  0  0  0
   -5.6599    4.1290   -7.6809 C   0  0  0  0  0  0  0  0  0  0  0  0
   -7.2968    7.2208   -8.2363 C   0  0  0  0  0  0  0  0  0  0  0  0
   -8.3665    6.5563   -9.0970 C   0  0  0  0  0  0  0  0  0  0  0  0
   -4.2572    8.3454   -6.6104 C   0  0  0  0  0  0  0  0  0  0  0  0
   -3.1186    8.4302   -5.7881 C   0  0  0  0  0  0  0  0  0  0  0  0
   -5.5383    9.4830   -6.4878 Cl  0  0  0  0  0  0  0  0  0  0  0  0
   -0.4371    5.9855   -5.0946 C   0  0  0  0  0  0  0  0  0  0  0  0
   -1.1775    4.4745   -5.5441 S   0  0  0  0  0  0  0  0  0  0  0  0
   -0.3722    9.7125   -5.2301 C   0  0  0  0  0  0  0  0  0  0  0  0
    0.5743   10.5432   -4.6841 C   0  0  0  0  0  0  0  0  0  0  0  0
    1.8124    9.6392   -3.8363 S   0  0  0  0  0  0  0  0  0  0  0  0
    0.6780   11.9519   -4.7908 C   0  0  0  0  0  0  0  0  0  0  0  0
   -0.3036   12.8501   -5.0746 C   0  0  0  0  0  0  0  0  0  0  0  0
    0.0741   14.2056   -5.5690 C   0  0  0  0  0  0  0  0  0  0  0  0
    1.1755   14.7037   -5.5383 O   0  0  0  0  0  0  0  0  0  0  0  0
   -1.1626   14.7665   -6.1457 C   0  0  0  0  0  0  0  0  0  0  0  0
   -1.3380   15.9248   -6.8464 C   0  0  0  0  0  0  0  0  0  0  0  0
   -2.6224   16.2419   -7.3430 C   0  0  0  0  0  0  0  0  0  0  0  0
   -2.8586   17.4264   -8.0705 C   0  0  0  0  0  0  0  0  0  0  0  0
   -4.1031   17.7197   -8.5544 C   0  0  0  0  0  0  0  0  0  0  0  0
   -5.1522   16.8213   -8.3169 C   0  0  0  0  0  0  0  0  0  0  0  0
   -6.3696   17.1269   -8.8018 F   0  0  0  0  0  0  0  0  0  0  0  0
   -4.9783   15.6592   -7.6183 C   0  0  0  0  0  0  0  0  0  0  0  0
   -3.7035   15.3423   -7.1105 C   0  0  0  0  0  0  0  0  0  0  0  0
   -3.4944   14.1526   -6.3748 C   0  0  0  0  0  0  0  0  0  0  0  0
   -2.2448   13.8760   -5.8906 C   0  0  0  0  0  0  0  0  0  0  0  0
   -1.7488   12.7618   -5.0872 C   0  0  0  0  0  0  0  0  0  0  0  0
   -2.5324   11.9694   -4.2899 C   0  0  0  0  0  0  0  0  0  0  0  0
   -2.0290   11.0486   -3.3494 C   0  0  0  0  0  0  0  0  0  0  0  0
   -1.6831   10.2991   -2.5513 N   0  0  0  0  0  0  0  0  0  0  0  0
   -3.9398   12.0565   -4.2421 C   0  0  0  0  0  0  0  0  0  0  0  0
   -5.0849   12.0801   -4.1696 N   0  0  0  0  0  0  0  0  0  0  0  0
    0.4987   -9.2594    9.6579 H   0  0  0  0  0  0  0  0  0  0  0  0
    1.9981   -3.1600    9.8275 H   0  0  0  0  0  0  0  0  0  0  0  0
    2.3705   -1.1656   11.2465 H   0  0  0  0  0  0  0  0  0  0  0  0
    2.3937   -0.1000   13.4886 H   0  0  0  0  0  0  0  0  0  0  0  0
    1.1654   -3.7707   15.2843 H   0  0  0  0  0  0  0  0  0  0  0  0
    0.7856   -5.7500   13.9114 H   0  0  0  0  0  0  0  0  0  0  0  0
    1.6915  -13.3820    9.7652 H   0  0  0  0  0  0  0  0  0  0  0  0
   -1.7319  -14.1964   10.8091 H   0  0  0  0  0  0  0  0  0  0  0  0
   -0.0162  -14.5229   11.0819 H   0  0  0  0  0  0  0  0  0  0  0  0
    0.0816  -15.7924    8.9333 H   0  0  0  0  0  0  0  0  0  0  0  0
   -1.6293  -15.4661    8.6605 H   0  0  0  0  0  0  0  0  0  0  0  0
   -1.1307  -16.4779   10.0206 H   0  0  0  0  0  0  0  0  0  0  0  0
   -2.4400  -12.6587    9.0312 H   0  0  0  0  0  0  0  0  0  0  0  0
   -1.8816   -9.9800    6.6028 H   0  0  0  0  0  0  0  0  0  0  0  0
   -3.0503  -11.1123    7.2939 H   0  0  0  0  0  0  0  0  0  0  0  0
   -1.8704   -8.6655    8.6929 H   0  0  0  0  0  0  0  0  0  0  0  0
   -2.9015   -9.8561    9.4816 H   0  0  0  0  0  0  0  0  0  0  0  0
   -3.5376   -8.8760    8.1528 H   0  0  0  0  0  0  0  0  0  0  0  0
    3.2914  -11.7191    9.1674 H   0  0  0  0  0  0  0  0  0  0  0  0
    2.8491  -10.2947    8.2206 H   0  0  0  0  0  0  0  0  0  0  0  0
    2.6607  -11.7172    6.1767 H   0  0  0  0  0  0  0  0  0  0  0  0
    4.2769  -11.8238    6.8864 H   0  0  0  0  0  0  0  0  0  0  0  0
    3.1144  -13.1343    7.1226 H   0  0  0  0  0  0  0  0  0  0  0  0
    0.4963  -10.5430    5.1270 H   0  0  0  0  0  0  0  0  0  0  0  0
    3.0523  -10.2386    4.0200 H   0  0  0  0  0  0  0  0  0  0  0  0
    3.4428  -12.6619    3.7695 H   0  0  0  0  0  0  0  0  0  0  0  0
    2.0129  -13.9967    2.2776 H   0  0  0  0  0  0  0  0  0  0  0  0
   -1.0760  -12.7838    0.7622 H   0  0  0  0  0  0  0  0  0  0  0  0
   -0.0186  -14.1857    0.9832 H   0  0  0  0  0  0  0  0  0  0  0  0
    0.4692  -11.9007   -0.9924 H   0  0  0  0  0  0  0  0  0  0  0  0
    1.5099  -13.3081   -0.7812 H   0  0  0  0  0  0  0  0  0  0  0  0
   -0.1279  -13.5104   -1.4122 H   0  0  0  0  0  0  0  0  0  0  0  0
   -0.2188  -10.5002    1.2877 H   0  0  0  0  0  0  0  0  0  0  0  0
   -2.6599    2.3821   -6.2845 H   0  0  0  0  0  0  0  0  0  0  0  0
   -3.3244    2.5745   -8.6447 H   0  0  0  0  0  0  0  0  0  0  0  0
   -1.9464    1.5619  -10.4119 H   0  0  0  0  0  0  0  0  0  0  0  0
    1.3953    0.1394   -9.8562 H   0  0  0  0  0  0  0  0  0  0  0  0
    0.2077    0.6203  -11.0772 H   0  0  0  0  0  0  0  0  0  0  0  0
    0.0115   -1.8650   -9.3042 H   0  0  0  0  0  0  0  0  0  0  0  0
   -1.1658   -1.3895  -10.5267 H   0  0  0  0  0  0  0  0  0  0  0  0
    0.4681   -1.8554  -11.0120 H   0  0  0  0  0  0  0  0  0  0  0  0
    0.8201    0.2056   -7.4648 H   0  0  0  0  0  0  0  0  0  0  0  0
    0.8692   -2.5898    1.2844 H   0  0  0  0  0  0  0  0  0  0  0  0
    0.6985   -3.9638    2.3704 H   0  0  0  0  0  0  0  0  0  0  0  0
   -1.4493   -3.0464    0.3889 H   0  0  0  0  0  0  0  0  0  0  0  0
   -1.4578   -2.7317    2.1322 H   0  0  0  0  0  0  0  0  0  0  0  0
   -1.5965   -4.3846    1.5290 H   0  0  0  0  0  0  0  0  0  0  0  0
    2.0274   -1.9254   -0.1325 H   0  0  0  0  0  0  0  0  0  0  0  0
    2.1801   -0.5994   -1.2832 H   0  0  0  0  0  0  0  0  0  0  0  0
    0.1494    0.4749   -0.5206 H   0  0  0  0  0  0  0  0  0  0  0  0
   -0.2548   -0.8619    0.5483 H   0  0  0  0  0  0  0  0  0  0  0  0
    1.1575    0.1494    0.8859 H   0  0  0  0  0  0  0  0  0  0  0  0
    1.7166    4.0296   -3.4107 H   0  0  0  0  0  0  0  0  0  0  0  0
    2.5952    8.2734   -1.5966 H   0  0  0  0  0  0  0  0  0  0  0  0
    5.9248    3.1700   -3.3356 H   0  0  0  0  0  0  0  0  0  0  0  0
    6.7200    4.3489   -4.3420 H   0  0  0  0  0  0  0  0  0  0  0  0
    8.9336    3.6861   -3.3895 H   0  0  0  0  0  0  0  0  0  0  0  0
    8.1326    2.4940   -2.3710 H   0  0  0  0  0  0  0  0  0  0  0  0
    8.1077    2.3145   -4.1240 H   0  0  0  0  0  0  0  0  0  0  0  0
    8.9889    5.9530   -2.0354 H   0  0  0  0  0  0  0  0  0  0  0  0
    7.9751    7.1099   -1.2127 H   0  0  0  0  0  0  0  0  0  0  0  0
    8.0341    6.6744   -4.2339 H   0  0  0  0  0  0  0  0  0  0  0  0
    8.7562    8.0287   -3.3672 H   0  0  0  0  0  0  0  0  0  0  0  0
    7.0047    7.8327   -3.3961 H   0  0  0  0  0  0  0  0  0  0  0  0
    7.5148    3.7933   -0.0693 H   0  0  0  0  0  0  0  0  0  0  0  0
    6.5027    5.0874    0.5196 H   0  0  0  0  0  0  0  0  0  0  0  0
    5.4869    2.5367   -0.8140 H   0  0  0  0  0  0  0  0  0  0  0  0
    5.4125    2.9093    0.9076 H   0  0  0  0  0  0  0  0  0  0  0  0
    4.4669    3.8544   -0.2422 H   0  0  0  0  0  0  0  0  0  0  0  0
   -5.7586    7.3238  -11.2279 H   0  0  0  0  0  0  0  0  0  0  0  0
   -5.2724    8.7378  -10.3248 H   0  0  0  0  0  0  0  0  0  0  0  0
   -3.4468    7.9872  -11.8088 H   0  0  0  0  0  0  0  0  0  0  0  0
   -3.4452    6.3997  -11.0426 H   0  0  0  0  0  0  0  0  0  0  0  0
   -2.9568    7.8186  -10.1236 H   0  0  0  0  0  0  0  0  0  0  0  0
   -5.9322    4.5109   -9.7766 H   0  0  0  0  0  0  0  0  0  0  0  0
   -4.2775    4.6642   -9.2302 H   0  0  0  0  0  0  0  0  0  0  0  0
   -6.6853    4.3284   -7.3806 H   0  0  0  0  0  0  0  0  0  0  0  0
   -5.5536    3.0544   -7.8207 H   0  0  0  0  0  0  0  0  0  0  0  0
   -5.0028    4.4323   -6.8692 H   0  0  0  0  0  0  0  0  0  0  0  0
   -7.4411    8.2998   -8.2754 H   0  0  0  0  0  0  0  0  0  0  0  0
   -7.4437    6.9283   -7.1963 H   0  0  0  0  0  0  0  0  0  0  0  0
   -8.2851    5.4736   -9.0517 H   0  0  0  0  0  0  0  0  0  0  0  0
   -9.3616    6.8360   -8.7559 H   0  0  0  0  0  0  0  0  0  0  0  0
   -8.2665    6.8611  -10.1358 H   0  0  0  0  0  0  0  0  0  0  0  0
   -3.0227    9.1367   -4.9845 H   0  0  0  0  0  0  0  0  0  0  0  0
   -1.1566   10.0731   -5.8704 H   0  0  0  0  0  0  0  0  0  0  0  0
    1.6760   12.3692   -4.7015 H   0  0  0  0  0  0  0  0  0  0  0  0
   -0.5069   16.5912   -7.0217 H   0  0  0  0  0  0  0  0  0  0  0  0
   -2.0347   18.1029   -8.2411 H   0  0  0  0  0  0  0  0  0  0  0  0
   -4.3002   18.6211   -9.1128 H   0  0  0  0  0  0  0  0  0  0  0  0
   -5.8095   14.9923   -7.4508 H   0  0  0  0  0  0  0  0  0  0  0  0
   -4.3265   13.4832   -6.2233 H   0  0  0  0  0  0  0  0  0  0  0  0
  1  2  2  0  0  0  0
  2  3  1  0  0  0  0
  3  4  2  0  0  0  0
  3  5  1  0  0  0  0
  5  6  2  0  0  0  0
  6  7  1  0  0  0  0
  7  8  2  0  0  0  0
  8  9  1  0  0  0  0
  9 10  2  0  0  0  0
 10 11  1  0  0  0  0
 10 12  1  0  0  0  0
 12 13  2  0  0  0  0
 13 14  1  0  0  0  0
 14 15  2  0  0  0  0
 15 16  1  0  0  0  0
 16 17  2  0  0  0  0
 17 18  1  0  0  0  0
 18 19  3  0  0  0  0
 17 20  1  0  0  0  0
 20 21  3  0  0  0  0
  1 22  1  0  0  0  0
 22 23  2  0  0  0  0
 23 24  1  0  0  0  0
 24 25  2  0  0  0  0
 25 26  1  0  0  0  0
 26 27  2  0  0  0  0
 27 28  1  0  0  0  0
 28 29  1  0  0  0  0
 27 30  1  0  0  0  0
 30 31  2  0  0  0  0
 31 32  1  0  0  0  0
 32 33  1  0  0  0  0
 25 34  1  0  0  0  0
 34 35  1  0  0  0  0
 23 36  1  0  0  0  0
 36 37  2  0  0  0  0
 37 38  1  0  0  0  0
 37 39  1  0  0  0  0
 39 40  2  0  0  0  0
 40 41  1  0  0  0  0
 41 42  2  0  0  0  0
 42 43  1  0  0  0  0
 43 44  2  0  0  0  0
 44 45  1  0  0  0  0
 45 46  1  0  0  0  0
 46 47  1  0  0  0  0
 45 48  2  0  0  0  0
 40 49  1  0  0  0  0
 49 50  1  0  0  0  0
 50 51  1  0  0  0  0
 51 52  1  0  0  0  0
 52 53  1  0  0  0  0
 53 54  1  0  0  0  0
 54 55  2  0  0  0  0
 55 56  1  0  0  0  0
 56 57  1  0  0  0  0
 54 58  1  0  0  0  0
 58 59  1  0  0  0  0
 59 60  1  0  0  0  0
 60 61  1  0  0  0  0
 61 62  1  0  0  0  0
 62 63  1  0  0  0  0
 63 64  2  0  0  0  0
 64 65  1  0  0  0  0
 65 66  2  0  0  0  0
 66 67  1  0  0  0  0
 67 68  1  0  0  0  0
 68 69  1  0  0  0  0
 67 70  2  0  0  0  0
 62 71  2  0  0  0  0
 71 72  1  0  0  0  0
 72 73  1  0  0  0  0
 73 74  1  0  0  0  0
 74 75  1  0  0  0  0
 75 76  1  0  0  0  0
 76 77  1  0  0  0  0
 77 78  1  0  0  0  0
 78 79  1  0  0  0  0
 79 80  1  0  0  0  0
 80 81  1  0  0  0  0
 78 82  1  0  0  0  0
 82 83  1  0  0  0  0
 75 84  1  0  0  0  0
 84 85  1  0  0  0  0
 71 86  1  0  0  0  0
 86 87  2  0  0  0  0
 87 88  1  0  0  0  0
 88 89  2  0  0  0  0
 89 90  1  0  0  0  0
 90 91  2  0  0  0  0
 91 92  1  0  0  0  0
 92 93  1  0  0  0  0
 92 94  2  0  0  0  0
 94 95  1  0  0  0  0
 95 96  1  0  0  0  0
 96 97  1  0  0  0  0
 95 98  1  0  0  0  0
 98 99  1  0  0  0  0
 95100  1  0  0  0  0
100101  1  0  0  0  0
 94102  1  0  0  0  0
 89103  1  0  0  0  0
103104  2  0  0  0  0
104105  1  0  0  0  0
105106  1  0  0  0  0
106107  1  0  0  0  0
107108  1  0  0  0  0
108109  1  0  0  0  0
109110  1  0  0  0  0
110111  1  0  0  0  0
109112  1  0  0  0  0
112113  1  0  0  0  0
109114  1  0  0  0  0
114115  1  0  0  0  0
108116  2  0  0  0  0
116117  1  0  0  0  0
116118  1  0  0  0  0
105119  2  0  0  0  0
119120  1  0  0  0  0
104121  1  0  0  0  0
121122  2  0  0  0  0
122123  1  0  0  0  0
122124  1  0  0  0  0
124125  2  0  0  0  0
125126  1  0  0  0  0
126127  2  0  0  0  0
126128  1  0  0  0  0
128129  2  0  0  0  0
129130  1  0  0  0  0
130131  2  0  0  0  0
131132  1  0  0  0  0
132133  2  0  0  0  0
133134  1  0  0  0  0
133135  1  0  0  0  0
135136  2  0  0  0  0
136137  1  0  0  0  0
137138  2  0  0  0  0
138139  1  0  0  0  0
139140  2  0  0  0  0
140141  1  0  0  0  0
141142  3  0  0  0  0
140143  1  0  0  0  0
143144  3  0  0  0  0
 16  2  1  0  0  0  0
 38 22  1  0  0  0  0
 81 39  1  0  0  0  0
120 86  1  0  0  0  0
139125  1  0  0  0  0
 15  5  1  0  0  0  0
 31 24  1  0  0  0  0
 48 41  1  0  0  0  0
 80 49  2  0  0  0  0
119 88  1  0  0  0  0
138128  1  0  0  0  0
 13  7  1  0  0  0  0
 79 51  2  0  0  0  0
102 90  1  0  0  0  0
123103  1  0  0  0  0
136130  1  0  0  0  0
 77 52  2  0  0  0  0
117106  2  0  0  0  0
 57 53  2  0  0  0  0
 76 58  2  0  0  0  0
 74 59  2  0  0  0  0
 73 61  2  0  0  0  0
 70 63  1  0  0  0  0
  1145  1  0  0  0  0
  6146  1  0  0  0  0
  8147  1  0  0  0  0
  9148  1  0  0  0  0
 12149  1  0  0  0  0
 14150  1  0  0  0  0
 26151  1  0  0  0  0
 28152  1  0  0  0  0
 28153  1  0  0  0  0
 29154  1  0  0  0  0
 29155  1  0  0  0  0
 29156  1  0  0  0  0
 30157  1  0  0  0  0
 32158  1  0  0  0  0
 32159  1  0  0  0  0
 33160  1  0  0  0  0
 33161  1  0  0  0  0
 33162  1  0  0  0  0
 34163  1  0  0  0  0
 34164  1  0  0  0  0
 35165  1  0  0  0  0
 35166  1  0  0  0  0
 35167  1  0  0  0  0
 36168  1  0  0  0  0
 42169  1  0  0  0  0
 43170  1  0  0  0  0
 44171  1  0  0  0  0
 46172  1  0  0  0  0
 46173  1  0  0  0  0
 47174  1  0  0  0  0
 47175  1  0  0  0  0
 47176  1  0  0  0  0
 48177  1  0  0  0  0
 64178  1  0  0  0  0
 65179  1  0  0  0  0
 66180  1  0  0  0  0
 68181  1  0  0  0  0
 68182  1  0  0  0  0
 69183  1  0  0  0  0
 69184  1  0  0  0  0
 69185  1  0  0  0  0
 70186  1  0  0  0  0
 82187  1  0  0  0  0
 82188  1  0  0  0  0
 83189  1  0  0  0  0
 83190  1  0  0  0  0
 83191  1  0  0  0  0
 84192  1  0  0  0  0
 84193  1  0  0  0  0
 85194  1  0  0  0  0
 85195  1  0  0  0  0
 85196  1  0  0  0  0
 87197  1  0  0  0  0
 91198  1  0  0  0  0
 96199  1  0  0  0  0
 96200  1  0  0  0  0
 97201  1  0  0  0  0
 97202  1  0  0  0  0
 97203  1  0  0  0  0
 98204  1  0  0  0  0
 98205  1  0  0  0  0
 99206  1  0  0  0  0
 99207  1  0  0  0  0
 99208  1  0  0  0  0
100209  1  0  0  0  0
100210  1  0  0  0  0
101211  1  0  0  0  0
101212  1  0  0  0  0
101213  1  0  0  0  0
110214  1  0  0  0  0
110215  1  0  0  0  0
111216  1  0  0  0  0
111217  1  0  0  0  0
111218  1  0  0  0  0
112219  1  0  0  0  0
112220  1  0  0  0  0
113221  1  0  0  0  0
113222  1  0  0  0  0
113223  1  0  0  0  0
114224  1  0  0  0  0
114225  1  0  0  0  0
115226  1  0  0  0  0
115227  1  0  0  0  0
115228  1  0  0  0  0
117229  1  0  0  0  0
121230  1  0  0  0  0
124231  1  0  0  0  0
129232  1  0  0  0  0
131233  1  0  0  0  0
132234  1  0  0  0  0
135235  1  0  0  0  0
137236  1  0  0  0  0
M  END
