212

C        -10.54800       -0.04940        2.98070
C        -11.35950       -0.57450        3.95990
C        -11.03810       -1.71850        4.81540
O        -10.05270       -2.43670        4.76650
C        -12.15340       -1.84060        5.77100
C        -12.31030       -2.73060        6.79260
C        -13.46290       -2.64760        7.60620
C        -13.67580       -3.53700        8.67850
C        -14.79240       -3.44160        9.46220
C        -15.73130       -2.43990        9.18370
F        -16.82410       -2.36050        9.96660
C        -15.57400       -1.55250        8.15560
C        -14.43030       -1.63660        7.33830
C        -14.24080       -0.73120        6.26710
C        -13.11780       -0.83190        5.49110
C        -12.65450       -0.05670        4.34060
C        -13.36210        0.95180        3.73360
C        -12.96960        1.67430        2.58830
N        -12.75190        2.30650        1.65340
C        -14.62680        1.39690        4.16940
N        -15.65710        1.80720        4.46880
C         -9.28770       -0.45560        2.53900
C         -8.60530        0.22560        1.51130
C         -9.16850        1.40760        0.83320
C        -10.08830        1.24310       -0.20490
C        -10.61320        2.36630       -0.82280
C        -10.25430        3.64570       -0.42840
C        -10.89020        4.84880       -1.06070
C        -12.09600        5.29570       -0.23200
C         -9.34710        3.78810        0.61000
C         -8.80110        2.68750        1.25150
C         -7.82100        2.89370        2.37480
C         -6.40080        3.09130        1.84250
C        -10.48360       -0.12500       -0.68850
C         -9.51480       -0.62190       -1.76290
C         -7.37470       -0.33420        1.22400
C         -7.07670       -1.44670        2.00510
S         -8.34940       -1.81280        3.12290
C         -5.85670       -2.16400        1.95990
C         -5.48380       -3.32410        2.62170
C         -6.36970       -4.14480        3.45290
C         -6.01490       -4.42860        4.76660
C         -6.85840       -5.18930        5.55450
C         -8.04760       -5.67110        5.03940
C         -8.40680       -5.41260        3.72240
C         -9.67510       -5.97320        3.14860
C         -9.43360       -7.36750        2.56750
C         -7.55360       -4.65790        2.93430
C         -4.13110       -3.63030        2.40010
S         -3.11440       -4.94030        2.95250
C         -1.79270       -4.24850        2.07450
C         -0.43840       -4.50790        1.80850
C          0.37780       -5.61580        2.12690
C          1.71870       -5.66110        1.61640
N          2.34460       -6.78100        1.94180
S          1.33830       -7.69690        2.81810
N          0.06160       -6.70020        2.81670
C          2.22430       -4.53700        0.92710
C          3.51970       -4.22440        0.49000
S          5.09100       -4.94420        0.41130
C          5.72970       -3.42360       -0.17730
C          7.02060       -3.02080       -0.55400
C          8.13970       -3.95390       -0.66830
C          8.36160       -4.91110        0.31830
C          9.40890       -5.80180        0.18810
C         10.23970       -5.74780       -0.91740
C         10.03070       -4.80400       -1.91550
C         10.91490       -4.74340       -3.12750
C         10.22600       -5.37540       -4.33810
C          8.96920       -3.92240       -1.78670
C          7.03410       -1.67520       -0.92110
S          5.43410       -0.95780       -0.92970
C          4.75900       -2.42380       -0.30690
C          3.49210       -2.89510        0.05250
N          2.22570       -2.39390        0.16900
C          1.41760       -3.38600        0.68230
C          0.03750       -3.43330        1.00640
N         -1.01910       -2.56810        0.75130
C         -2.12130       -3.07180        1.39540
C         -3.46410       -2.72440        1.56870
S         -4.52140       -1.46910        1.03610
C         -1.24120       -1.72280       -0.40310
C         -1.41810       -2.56270       -1.66670
C          2.00140       -0.98030       -0.01520
C          1.91240       -0.61310       -1.49470
C          8.14610       -0.84610       -1.25210
C          9.45630       -1.07780       -0.82490
F          9.71030       -1.98030        0.13710
C         10.54160       -0.36950       -1.33100
F         11.75480       -0.66310       -0.84410
C         10.38960        0.68480       -2.22580
C          9.05260        1.11360       -2.46620
N          8.84640        2.28070       -3.08730
C          7.61870        2.68200       -3.32170
C          7.46460        4.04280       -3.84120
C          8.44270        4.56160       -4.69090
C          8.31510        5.84650       -5.17430
C          7.23100        6.63720       -4.82530
C          6.26420        6.13660       -3.95840
O          5.16560        6.81360       -3.53160
C          4.96720        8.14570       -3.96480
C          3.68610        8.65280       -3.32110
C          6.39250        4.84020       -3.46480
C          6.51470        1.81270       -3.04090
N          6.70760        0.69800       -2.37750
C          7.95080        0.33750       -2.02860
C          5.16500        2.14520       -3.51360
C          4.98200        2.52000       -4.84470
C          3.73250        2.91350       -5.27350
C          2.66510        2.97690       -4.39270
C          2.83920        2.59990       -3.06550
O          1.86080        2.61150       -2.11290
C          0.67010        3.34090       -2.34600
C          0.89850        4.84870       -2.34250
C          4.08980        2.15350       -2.63970
C         11.46170        1.41460       -2.83080
C         12.63090        0.87930       -3.26890
C         12.89400       -0.57810       -3.42050
O         12.09220       -1.48310       -3.33560
C         14.30420       -0.68410       -3.83310
C         15.05240       -1.80880       -4.02770
C         16.40410       -1.67800       -4.41590
C         17.22520       -2.80500       -4.62390
C         18.53180       -2.66470       -5.00080
C         19.05160       -1.37510       -5.17810
F         20.33990       -1.25730       -5.54890
C         18.29990       -0.24920       -4.98890
C         16.95130       -0.37510       -4.60190
C         16.14810        0.77160       -4.40320
C         14.84000        0.62080       -4.02500
C         13.79100        1.60160       -3.76110
C         13.89400        2.95170       -3.96890
C         12.85560        3.89220       -3.79860
N         12.06520        4.72110       -3.71450
C         15.06040        3.59010       -4.44100
N         15.97550        4.16920       -4.82210
H        -10.91580        0.82680        2.45810
H        -11.56160       -3.48570        6.98060
H        -12.93720       -4.29990        8.87390
H        -14.96990       -4.11350       10.28700
H        -16.31830       -0.79390        7.97010
H        -14.99170        0.02250        6.09400
H        -11.33080        2.23840       -1.62030
H        -10.16770        5.66600       -1.12240
H        -11.21820        4.60470       -2.07300
H        -12.79750        4.47340       -0.11940
H        -12.60150        6.13090       -0.71170
H        -11.77830        5.60350        0.76130
H         -9.06690        4.77920        0.93930
H         -8.11200        3.77970        2.94360
H         -7.83640        2.03770        3.05250
H         -6.36990        3.92960        1.15020
H         -6.06190        2.20110        1.31880
H         -5.71390        3.29090        2.66200
H        -11.49090       -0.07900       -1.10650
H        -10.49520       -0.83510        0.14070
H         -9.82880       -1.59360       -2.13760
H         -9.48300        0.07800       -2.59500
H         -8.51110       -0.71640       -1.35460
H         -6.70840        0.03960        0.46480
H         -5.09320       -4.03650        5.17010
H         -6.58740       -5.40080        6.57840
H         -8.70790       -6.25410        5.66520
H        -10.43520       -6.03240        3.92970
H        -10.04680       -5.31190        2.36370
H        -10.35330       -7.77190        2.15090
H         -8.68470       -7.32450        1.77970
H         -9.07570       -8.04340        3.34100
H         -7.81050       -4.45970        1.90280
H          7.73340       -4.93440        1.19540
H          9.58400       -6.53770        0.95890
H         11.06380       -6.44140       -1.00430
H         11.84660       -5.27550       -2.92550
H         11.15750       -3.70250       -3.34880
H          9.29700       -4.85630       -4.56240
H          9.99380       -6.42020       -4.14060
H         10.87060       -5.32210       -5.21260
H          8.78800       -3.19450       -2.56580
H         -0.43050       -1.01470       -0.53800
H         -2.15480       -1.15610       -0.20470
H         -0.52380       -3.15170       -1.86050
H         -2.25890       -3.24330       -1.55350
H         -1.60670       -1.91630       -2.51950
H          1.11530       -0.68330        0.54690
H          2.85780       -0.45450        0.42050
H          2.87050       -0.79220       -1.97560
H          1.67540        0.44100       -1.59610
H          1.15940       -1.20440       -2.00930
H          9.28890        3.94980       -4.95740
H          9.07120        6.24880       -5.83100
H          7.15800        7.63720       -5.22250
H          5.81720        8.77200       -3.66120
H          4.87980        8.17720       -5.05990
H          3.77320        8.60850       -2.23910
H          2.84610        8.03440       -3.62590
H          3.50190        9.67970       -3.62310
H          5.64790        4.49120       -2.76810
H          5.81480        2.49860       -5.53060
H          3.58260        3.19610       -6.30470
H          1.70860        3.31710       -4.75620
H          0.01700        3.05990       -1.51480
H          0.19260        3.01850       -3.27970
H         -0.04670        5.36330       -2.49120
H          1.32300        5.15530       -1.38990
H          1.58870        5.13680       -3.13180
H          4.22130        1.85520       -1.61190
H         11.25180        2.46620       -2.97650
H         14.61920       -2.78660       -3.87880
H         16.80230       -3.78800       -4.48050
H         19.17300       -3.51610       -5.16530
H         18.73310        0.72800       -5.13500
H         16.59240        1.74230       -4.55370
