
  xtb     02042223203D
 energy: -362.537352345234 gnorm: 0.000744145021 xtb: 6.4.1 (unknown)
212233  0     0  0            999 V2000
  -10.5480   -0.0494    2.9807 C   0  0  0  0  0  0  0  0  0  0  0  0
  -11.3595   -0.5745    3.9599 C   0  0  0  0  0  0  0  0  0  0  0  0
  -11.0381   -1.7185    4.8154 C   0  0  0  0  0  0  0  0  0  0  0  0
  -10.0527   -2.4367    4.7665 O   0  0  0  0  0  0  0  0  0  0  0  0
  -12.1534   -1.8406    5.7710 C   0  0  0  0  0  0  0  0  0  0  0  0
  -12.3103   -2.7306    6.7926 C   0  0  0  0  0  0  0  0  0  0  0  0
  -13.4629   -2.6476    7.6062 C   0  0  0  0  0  0  0  0  0  0  0  0
  -13.6758   -3.5370    8.6785 C   0  0  0  0  0  0  0  0  0  0  0  0
  -14.7924   -3.4416    9.4622 C   0  0  0  0  0  0  0  0  0  0  0  0
  -15.7313   -2.4399    9.1837 C   0  0  0  0  0  0  0  0  0  0  0  0
  -16.8241   -2.3605    9.9666 F   0  0  0  0  0  0  0  0  0  0  0  0
  -15.5740   -1.5525    8.1556 C   0  0  0  0  0  0  0  0  0  0  0  0
  -14.4303   -1.6366    7.3383 C   0  0  0  0  0  0  0  0  0  0  0  0
  -14.2408   -0.7312    6.2671 C   0  0  0  0  0  0  0  0  0  0  0  0
  -13.1178   -0.8319    5.4911 C   0  0  0  0  0  0  0  0  0  0  0  0
  -12.6545   -0.0567    4.3406 C   0  0  0  0  0  0  0  0  0  0  0  0
  -13.3621    0.9518    3.7336 C   0  0  0  0  0  0  0  0  0  0  0  0
  -12.9696    1.6743    2.5883 C   0  0  0  0  0  0  0  0  0  0  0  0
  -12.7519    2.3065    1.6534 N   0  0  0  0  0  0  0  0  0  0  0  0
  -14.6268    1.3969    4.1694 C   0  0  0  0  0  0  0  0  0  0  0  0
  -15.6571    1.8072    4.4688 N   0  0  0  0  0  0  0  0  0  0  0  0
   -9.2877   -0.4556    2.5390 C   0  0  0  0  0  0  0  0  0  0  0  0
   -8.6053    0.2256    1.5113 C   0  0  0  0  0  0  0  0  0  0  0  0
   -9.1685    1.4076    0.8332 C   0  0  0  0  0  0  0  0  0  0  0  0
  -10.0883    1.2431   -0.2049 C   0  0  0  0  0  0  0  0  0  0  0  0
  -10.6132    2.3663   -0.8228 C   0  0  0  0  0  0  0  0  0  0  0  0
  -10.2543    3.6457   -0.4284 C   0  0  0  0  0  0  0  0  0  0  0  0
  -10.8902    4.8488   -1.0607 C   0  0  0  0  0  0  0  0  0  0  0  0
  -12.0960    5.2957   -0.2320 C   0  0  0  0  0  0  0  0  0  0  0  0
   -9.3471    3.7881    0.6100 C   0  0  0  0  0  0  0  0  0  0  0  0
   -8.8011    2.6875    1.2515 C   0  0  0  0  0  0  0  0  0  0  0  0
   -7.8210    2.8937    2.3748 C   0  0  0  0  0  0  0  0  0  0  0  0
   -6.4008    3.0913    1.8425 C   0  0  0  0  0  0  0  0  0  0  0  0
  -10.4836   -0.1250   -0.6885 C   0  0  0  0  0  0  0  0  0  0  0  0
   -9.5148   -0.6219   -1.7629 C   0  0  0  0  0  0  0  0  0  0  0  0
   -7.3747   -0.3342    1.2240 C   0  0  0  0  0  0  0  0  0  0  0  0
   -7.0767   -1.4467    2.0051 C   0  0  0  0  0  0  0  0  0  0  0  0
   -8.3494   -1.8128    3.1229 S   0  0  0  0  0  0  0  0  0  0  0  0
   -5.8567   -2.1640    1.9599 C   0  0  0  0  0  0  0  0  0  0  0  0
   -5.4838   -3.3241    2.6217 C   0  0  0  0  0  0  0  0  0  0  0  0
   -6.3697   -4.1448    3.4529 C   0  0  0  0  0  0  0  0  0  0  0  0
   -6.0149   -4.4286    4.7666 C   0  0  0  0  0  0  0  0  0  0  0  0
   -6.8584   -5.1893    5.5545 C   0  0  0  0  0  0  0  0  0  0  0  0
   -8.0476   -5.6711    5.0394 C   0  0  0  0  0  0  0  0  0  0  0  0
   -8.4068   -5.4126    3.7224 C   0  0  0  0  0  0  0  0  0  0  0  0
   -9.6751   -5.9732    3.1486 C   0  0  0  0  0  0  0  0  0  0  0  0
   -9.4336   -7.3675    2.5675 C   0  0  0  0  0  0  0  0  0  0  0  0
   -7.5536   -4.6579    2.9343 C   0  0  0  0  0  0  0  0  0  0  0  0
   -4.1311   -3.6303    2.4001 C   0  0  0  0  0  0  0  0  0  0  0  0
   -3.1144   -4.9403    2.9525 S   0  0  0  0  0  0  0  0  0  0  0  0
   -1.7927   -4.2485    2.0745 C   0  0  0  0  0  0  0  0  0  0  0  0
   -0.4384   -4.5079    1.8085 C   0  0  0  0  0  0  0  0  0  0  0  0
    0.3778   -5.6158    2.1269 C   0  0  0  0  0  0  0  0  0  0  0  0
    1.7187   -5.6611    1.6164 C   0  0  0  0  0  0  0  0  0  0  0  0
    2.3446   -6.7810    1.9418 N   0  0  0  0  0  0  0  0  0  0  0  0
    1.3383   -7.6969    2.8181 S   0  0  0  0  0  0  0  0  0  0  0  0
    0.0616   -6.7002    2.8167 N   0  0  0  0  0  0  0  0  0  0  0  0
    2.2243   -4.5370    0.9271 C   0  0  0  0  0  0  0  0  0  0  0  0
    3.5197   -4.2244    0.4900 C   0  0  0  0  0  0  0  0  0  0  0  0
    5.0910   -4.9442    0.4113 S   0  0  0  0  0  0  0  0  0  0  0  0
    5.7297   -3.4236   -0.1773 C   0  0  0  0  0  0  0  0  0  0  0  0
    7.0206   -3.0208   -0.5540 C   0  0  0  0  0  0  0  0  0  0  0  0
    8.1397   -3.9539   -0.6683 C   0  0  0  0  0  0  0  0  0  0  0  0
    8.3616   -4.9111    0.3183 C   0  0  0  0  0  0  0  0  0  0  0  0
    9.4089   -5.8018    0.1881 C   0  0  0  0  0  0  0  0  0  0  0  0
   10.2397   -5.7478   -0.9174 C   0  0  0  0  0  0  0  0  0  0  0  0
   10.0307   -4.8040   -1.9155 C   0  0  0  0  0  0  0  0  0  0  0  0
   10.9149   -4.7434   -3.1275 C   0  0  0  0  0  0  0  0  0  0  0  0
   10.2260   -5.3754   -4.3381 C   0  0  0  0  0  0  0  0  0  0  0  0
    8.9692   -3.9224   -1.7867 C   0  0  0  0  0  0  0  0  0  0  0  0
    7.0341   -1.6752   -0.9211 C   0  0  0  0  0  0  0  0  0  0  0  0
    5.4341   -0.9578   -0.9297 S   0  0  0  0  0  0  0  0  0  0  0  0
    4.7590   -2.4238   -0.3069 C   0  0  0  0  0  0  0  0  0  0  0  0
    3.4921   -2.8951    0.0525 C   0  0  0  0  0  0  0  0  0  0  0  0
    2.2257   -2.3939    0.1690 N   0  0  0  0  0  0  0  0  0  0  0  0
    1.4176   -3.3860    0.6823 C   0  0  0  0  0  0  0  0  0  0  0  0
    0.0375   -3.4333    1.0064 C   0  0  0  0  0  0  0  0  0  0  0  0
   -1.0191   -2.5681    0.7513 N   0  0  0  0  0  0  0  0  0  0  0  0
   -2.1213   -3.0718    1.3954 C   0  0  0  0  0  0  0  0  0  0  0  0
   -3.4641   -2.7244    1.5687 C   0  0  0  0  0  0  0  0  0  0  0  0
   -4.5214   -1.4691    1.0361 S   0  0  0  0  0  0  0  0  0  0  0  0
   -1.2412   -1.7228   -0.4031 C   0  0  0  0  0  0  0  0  0  0  0  0
   -1.4181   -2.5627   -1.6667 C   0  0  0  0  0  0  0  0  0  0  0  0
    2.0014   -0.9803   -0.0152 C   0  0  0  0  0  0  0  0  0  0  0  0
    1.9124   -0.6131   -1.4947 C   0  0  0  0  0  0  0  0  0  0  0  0
    8.1461   -0.8461   -1.2521 C   0  0  0  0  0  0  0  0  0  0  0  0
    9.4563   -1.0778   -0.8249 C   0  0  0  0  0  0  0  0  0  0  0  0
    9.7103   -1.9803    0.1371 F   0  0  0  0  0  0  0  0  0  0  0  0
   10.5416   -0.3695   -1.3310 C   0  0  0  0  0  0  0  0  0  0  0  0
   11.7548   -0.6631   -0.8441 F   0  0  0  0  0  0  0  0  0  0  0  0
   10.3896    0.6848   -2.2258 C   0  0  0  0  0  0  0  0  0  0  0  0
    9.0526    1.1136   -2.4662 C   0  0  0  0  0  0  0  0  0  0  0  0
    8.8464    2.2807   -3.0873 N   0  0  0  0  0  0  0  0  0  0  0  0
    7.6187    2.6820   -3.3217 C   0  0  0  0  0  0  0  0  0  0  0  0
    7.4646    4.0428   -3.8412 C   0  0  0  0  0  0  0  0  0  0  0  0
    8.4427    4.5616   -4.6909 C   0  0  0  0  0  0  0  0  0  0  0  0
    8.3151    5.8465   -5.1743 C   0  0  0  0  0  0  0  0  0  0  0  0
    7.2310    6.6372   -4.8253 C   0  0  0  0  0  0  0  0  0  0  0  0
    6.2642    6.1366   -3.9584 C   0  0  0  0  0  0  0  0  0  0  0  0
    5.1656    6.8136   -3.5316 O   0  0  0  0  0  0  0  0  0  0  0  0
    4.9672    8.1457   -3.9648 C   0  0  0  0  0  0  0  0  0  0  0  0
    3.6861    8.6528   -3.3211 C   0  0  0  0  0  0  0  0  0  0  0  0
    6.3925    4.8402   -3.4648 C   0  0  0  0  0  0  0  0  0  0  0  0
    6.5147    1.8127   -3.0409 C   0  0  0  0  0  0  0  0  0  0  0  0
    6.7076    0.6980   -2.3775 N   0  0  0  0  0  0  0  0  0  0  0  0
    7.9508    0.3375   -2.0286 C   0  0  0  0  0  0  0  0  0  0  0  0
    5.1650    2.1452   -3.5136 C   0  0  0  0  0  0  0  0  0  0  0  0
    4.9820    2.5200   -4.8447 C   0  0  0  0  0  0  0  0  0  0  0  0
    3.7325    2.9135   -5.2735 C   0  0  0  0  0  0  0  0  0  0  0  0
    2.6651    2.9769   -4.3927 C   0  0  0  0  0  0  0  0  0  0  0  0
    2.8392    2.5999   -3.0655 C   0  0  0  0  0  0  0  0  0  0  0  0
    1.8608    2.6115   -2.1129 O   0  0  0  0  0  0  0  0  0  0  0  0
    0.6701    3.3409   -2.3460 C   0  0  0  0  0  0  0  0  0  0  0  0
    0.8985    4.8487   -2.3425 C   0  0  0  0  0  0  0  0  0  0  0  0
    4.0898    2.1535   -2.6397 C   0  0  0  0  0  0  0  0  0  0  0  0
   11.4617    1.4146   -2.8308 C   0  0  0  0  0  0  0  0  0  0  0  0
   12.6309    0.8793   -3.2689 C   0  0  0  0  0  0  0  0  0  0  0  0
   12.8940   -0.5781   -3.4205 C   0  0  0  0  0  0  0  0  0  0  0  0
   12.0922   -1.4831   -3.3356 O   0  0  0  0  0  0  0  0  0  0  0  0
   14.3042   -0.6841   -3.8331 C   0  0  0  0  0  0  0  0  0  0  0  0
   15.0524   -1.8088   -4.0277 C   0  0  0  0  0  0  0  0  0  0  0  0
   16.4041   -1.6780   -4.4159 C   0  0  0  0  0  0  0  0  0  0  0  0
   17.2252   -2.8050   -4.6239 C   0  0  0  0  0  0  0  0  0  0  0  0
   18.5318   -2.6647   -5.0008 C   0  0  0  0  0  0  0  0  0  0  0  0
   19.0516   -1.3751   -5.1781 C   0  0  0  0  0  0  0  0  0  0  0  0
   20.3399   -1.2573   -5.5489 F   0  0  0  0  0  0  0  0  0  0  0  0
   18.2999   -0.2492   -4.9889 C   0  0  0  0  0  0  0  0  0  0  0  0
   16.9513   -0.3751   -4.6019 C   0  0  0  0  0  0  0  0  0  0  0  0
   16.1481    0.7716   -4.4032 C   0  0  0  0  0  0  0  0  0  0  0  0
   14.8400    0.6208   -4.0250 C   0  0  0  0  0  0  0  0  0  0  0  0
   13.7910    1.6016   -3.7611 C   0  0  0  0  0  0  0  0  0  0  0  0
   13.8940    2.9517   -3.9689 C   0  0  0  0  0  0  0  0  0  0  0  0
   12.8556    3.8922   -3.7986 C   0  0  0  0  0  0  0  0  0  0  0  0
   12.0652    4.7211   -3.7145 N   0  0  0  0  0  0  0  0  0  0  0  0
   15.0604    3.5901   -4.4410 C   0  0  0  0  0  0  0  0  0  0  0  0
   15.9755    4.1692   -4.8221 N   0  0  0  0  0  0  0  0  0  0  0  0
  -10.9158    0.8268    2.4581 H   0  0  0  0  0  0  0  0  0  0  0  0
  -11.5616   -3.4857    6.9806 H   0  0  0  0  0  0  0  0  0  0  0  0
  -12.9372   -4.2999    8.8739 H   0  0  0  0  0  0  0  0  0  0  0  0
  -14.9699   -4.1135   10.2870 H   0  0  0  0  0  0  0  0  0  0  0  0
  -16.3183   -0.7939    7.9701 H   0  0  0  0  0  0  0  0  0  0  0  0
  -14.9917    0.0225    6.0940 H   0  0  0  0  0  0  0  0  0  0  0  0
  -11.3308    2.2384   -1.6203 H   0  0  0  0  0  0  0  0  0  0  0  0
  -10.1677    5.6660   -1.1224 H   0  0  0  0  0  0  0  0  0  0  0  0
  -11.2182    4.6047   -2.0730 H   0  0  0  0  0  0  0  0  0  0  0  0
  -12.7975    4.4734   -0.1194 H   0  0  0  0  0  0  0  0  0  0  0  0
  -12.6015    6.1309   -0.7117 H   0  0  0  0  0  0  0  0  0  0  0  0
  -11.7783    5.6035    0.7613 H   0  0  0  0  0  0  0  0  0  0  0  0
   -9.0669    4.7792    0.9393 H   0  0  0  0  0  0  0  0  0  0  0  0
   -8.1120    3.7797    2.9436 H   0  0  0  0  0  0  0  0  0  0  0  0
   -7.8364    2.0377    3.0525 H   0  0  0  0  0  0  0  0  0  0  0  0
   -6.3699    3.9296    1.1502 H   0  0  0  0  0  0  0  0  0  0  0  0
   -6.0619    2.2011    1.3188 H   0  0  0  0  0  0  0  0  0  0  0  0
   -5.7139    3.2909    2.6620 H   0  0  0  0  0  0  0  0  0  0  0  0
  -11.4909   -0.0790   -1.1065 H   0  0  0  0  0  0  0  0  0  0  0  0
  -10.4952   -0.8351    0.1407 H   0  0  0  0  0  0  0  0  0  0  0  0
   -9.8288   -1.5936   -2.1376 H   0  0  0  0  0  0  0  0  0  0  0  0
   -9.4830    0.0780   -2.5950 H   0  0  0  0  0  0  0  0  0  0  0  0
   -8.5111   -0.7164   -1.3546 H   0  0  0  0  0  0  0  0  0  0  0  0
   -6.7084    0.0396    0.4648 H   0  0  0  0  0  0  0  0  0  0  0  0
   -5.0932   -4.0365    5.1701 H   0  0  0  0  0  0  0  0  0  0  0  0
   -6.5874   -5.4008    6.5784 H   0  0  0  0  0  0  0  0  0  0  0  0
   -8.7079   -6.2541    5.6652 H   0  0  0  0  0  0  0  0  0  0  0  0
  -10.4352   -6.0324    3.9297 H   0  0  0  0  0  0  0  0  0  0  0  0
  -10.0468   -5.3119    2.3637 H   0  0  0  0  0  0  0  0  0  0  0  0
  -10.3533   -7.7719    2.1509 H   0  0  0  0  0  0  0  0  0  0  0  0
   -8.6847   -7.3245    1.7797 H   0  0  0  0  0  0  0  0  0  0  0  0
   -9.0757   -8.0434    3.3410 H   0  0  0  0  0  0  0  0  0  0  0  0
   -7.8105   -4.4597    1.9028 H   0  0  0  0  0  0  0  0  0  0  0  0
    7.7334   -4.9344    1.1954 H   0  0  0  0  0  0  0  0  0  0  0  0
    9.5840   -6.5377    0.9589 H   0  0  0  0  0  0  0  0  0  0  0  0
   11.0638   -6.4414   -1.0043 H   0  0  0  0  0  0  0  0  0  0  0  0
   11.8466   -5.2755   -2.9255 H   0  0  0  0  0  0  0  0  0  0  0  0
   11.1575   -3.7025   -3.3488 H   0  0  0  0  0  0  0  0  0  0  0  0
    9.2970   -4.8563   -4.5624 H   0  0  0  0  0  0  0  0  0  0  0  0
    9.9938   -6.4202   -4.1406 H   0  0  0  0  0  0  0  0  0  0  0  0
   10.8706   -5.3221   -5.2126 H   0  0  0  0  0  0  0  0  0  0  0  0
    8.7880   -3.1945   -2.5658 H   0  0  0  0  0  0  0  0  0  0  0  0
   -0.4305   -1.0147   -0.5380 H   0  0  0  0  0  0  0  0  0  0  0  0
   -2.1548   -1.1561   -0.2047 H   0  0  0  0  0  0  0  0  0  0  0  0
   -0.5238   -3.1517   -1.8605 H   0  0  0  0  0  0  0  0  0  0  0  0
   -2.2589   -3.2433   -1.5535 H   0  0  0  0  0  0  0  0  0  0  0  0
   -1.6067   -1.9163   -2.5195 H   0  0  0  0  0  0  0  0  0  0  0  0
    1.1153   -0.6833    0.5469 H   0  0  0  0  0  0  0  0  0  0  0  0
    2.8578   -0.4545    0.4205 H   0  0  0  0  0  0  0  0  0  0  0  0
    2.8705   -0.7922   -1.9756 H   0  0  0  0  0  0  0  0  0  0  0  0
    1.6754    0.4410   -1.5961 H   0  0  0  0  0  0  0  0  0  0  0  0
    1.1594   -1.2044   -2.0093 H   0  0  0  0  0  0  0  0  0  0  0  0
    9.2889    3.9498   -4.9574 H   0  0  0  0  0  0  0  0  0  0  0  0
    9.0712    6.2488   -5.8310 H   0  0  0  0  0  0  0  0  0  0  0  0
    7.1580    7.6372   -5.2225 H   0  0  0  0  0  0  0  0  0  0  0  0
    5.8172    8.7720   -3.6612 H   0  0  0  0  0  0  0  0  0  0  0  0
    4.8798    8.1772   -5.0599 H   0  0  0  0  0  0  0  0  0  0  0  0
    3.7732    8.6085   -2.2391 H   0  0  0  0  0  0  0  0  0  0  0  0
    2.8461    8.0344   -3.6259 H   0  0  0  0  0  0  0  0  0  0  0  0
    3.5019    9.6797   -3.6231 H   0  0  0  0  0  0  0  0  0  0  0  0
    5.6479    4.4912   -2.7681 H   0  0  0  0  0  0  0  0  0  0  0  0
    5.8148    2.4986   -5.5306 H   0  0  0  0  0  0  0  0  0  0  0  0
    3.5826    3.1961   -6.3047 H   0  0  0  0  0  0  0  0  0  0  0  0
    1.7086    3.3171   -4.7562 H   0  0  0  0  0  0  0  0  0  0  0  0
    0.0170    3.0599   -1.5148 H   0  0  0  0  0  0  0  0  0  0  0  0
    0.1926    3.0185   -3.2797 H   0  0  0  0  0  0  0  0  0  0  0  0
   -0.0467    5.3633   -2.4912 H   0  0  0  0  0  0  0  0  0  0  0  0
    1.3230    5.1553   -1.3899 H   0  0  0  0  0  0  0  0  0  0  0  0
    1.5887    5.1368   -3.1318 H   0  0  0  0  0  0  0  0  0  0  0  0
    4.2213    1.8552   -1.6119 H   0  0  0  0  0  0  0  0  0  0  0  0
   11.2518    2.4662   -2.9765 H   0  0  0  0  0  0  0  0  0  0  0  0
   14.6192   -2.7866   -3.8788 H   0  0  0  0  0  0  0  0  0  0  0  0
   16.8023   -3.7880   -4.4805 H   0  0  0  0  0  0  0  0  0  0  0  0
   19.1730   -3.5161   -5.1653 H   0  0  0  0  0  0  0  0  0  0  0  0
   18.7331    0.7280   -5.1350 H   0  0  0  0  0  0  0  0  0  0  0  0
   16.5924    1.7423   -4.5537 H   0  0  0  0  0  0  0  0  0  0  0  0
  1  2  2  0  0  0  0
  2  3  1  0  0  0  0
  3  4  2  0  0  0  0
  3  5  1  0  0  0  0
  5  6  2  0  0  0  0
  6  7  1  0  0  0  0
  7  8  2  0  0  0  0
  8  9  1  0  0  0  0
  9 10  2  0  0  0  0
 10 11  1  0  0  0  0
 10 12  1  0  0  0  0
 12 13  2  0  0  0  0
 13 14  1  0  0  0  0
 14 15  2  0  0  0  0
 15 16  1  0  0  0  0
 16 17  2  0  0  0  0
 17 18  1  0  0  0  0
 18 19  3  0  0  0  0
 17 20  1  0  0  0  0
 20 21  3  0  0  0  0
  1 22  1  0  0  0  0
 22 23  2  0  0  0  0
 23 24  1  0  0  0  0
 24 25  2  0  0  0  0
 25 26  1  0  0  0  0
 26 27  2  0  0  0  0
 27 28  1  0  0  0  0
 28 29  1  0  0  0  0
 27 30  1  0  0  0  0
 30 31  2  0  0  0  0
 31 32  1  0  0  0  0
 32 33  1  0  0  0  0
 25 34  1  0  0  0  0
 34 35  1  0  0  0  0
 23 36  1  0  0  0  0
 36 37  2  0  0  0  0
 37 38  1  0  0  0  0
 37 39  1  0  0  0  0
 39 40  2  0  0  0  0
 40 41  1  0  0  0  0
 41 42  2  0  0  0  0
 42 43  1  0  0  0  0
 43 44  2  0  0  0  0
 44 45  1  0  0  0  0
 45 46  1  0  0  0  0
 46 47  1  0  0  0  0
 45 48  2  0  0  0  0
 40 49  1  0  0  0  0
 49 50  1  0  0  0  0
 50 51  1  0  0  0  0
 51 52  1  0  0  0  0
 52 53  1  0  0  0  0
 53 54  1  0  0  0  0
 54 55  2  0  0  0  0
 55 56  1  0  0  0  0
 56 57  1  0  0  0  0
 54 58  1  0  0  0  0
 58 59  1  0  0  0  0
 59 60  1  0  0  0  0
 60 61  1  0  0  0  0
 61 62  1  0  0  0  0
 62 63  1  0  0  0  0
 63 64  2  0  0  0  0
 64 65  1  0  0  0  0
 65 66  2  0  0  0  0
 66 67  1  0  0  0  0
 67 68  1  0  0  0  0
 68 69  1  0  0  0  0
 67 70  2  0  0  0  0
 62 71  2  0  0  0  0
 71 72  1  0  0  0  0
 72 73  1  0  0  0  0
 73 74  1  0  0  0  0
 74 75  1  0  0  0  0
 75 76  1  0  0  0  0
 76 77  1  0  0  0  0
 77 78  1  0  0  0  0
 78 79  1  0  0  0  0
 79 80  1  0  0  0  0
 80 81  1  0  0  0  0
 78 82  1  0  0  0  0
 82 83  1  0  0  0  0
 75 84  1  0  0  0  0
 84 85  1  0  0  0  0
 71 86  1  0  0  0  0
 86 87  2  0  0  0  0
 87 88  1  0  0  0  0
 87 89  1  0  0  0  0
 89 90  1  0  0  0  0
 89 91  2  0  0  0  0
 91 92  1  0  0  0  0
 92 93  2  0  0  0  0
 93 94  1  0  0  0  0
 94 95  1  0  0  0  0
 95 96  2  0  0  0  0
 96 97  1  0  0  0  0
 97 98  2  0  0  0  0
 98 99  1  0  0  0  0
 99100  1  0  0  0  0
100101  1  0  0  0  0
101102  1  0  0  0  0
 99103  2  0  0  0  0
 94104  2  0  0  0  0
104105  1  0  0  0  0
105106  2  0  0  0  0
104107  1  0  0  0  0
107108  2  0  0  0  0
108109  1  0  0  0  0
109110  2  0  0  0  0
110111  1  0  0  0  0
111112  1  0  0  0  0
112113  1  0  0  0  0
113114  1  0  0  0  0
111115  2  0  0  0  0
 91116  1  0  0  0  0
116117  2  0  0  0  0
117118  1  0  0  0  0
118119  2  0  0  0  0
118120  1  0  0  0  0
120121  2  0  0  0  0
121122  1  0  0  0  0
122123  2  0  0  0  0
123124  1  0  0  0  0
124125  2  0  0  0  0
125126  1  0  0  0  0
125127  1  0  0  0  0
127128  2  0  0  0  0
128129  1  0  0  0  0
129130  2  0  0  0  0
130131  1  0  0  0  0
131132  2  0  0  0  0
132133  1  0  0  0  0
133134  3  0  0  0  0
132135  1  0  0  0  0
135136  3  0  0  0  0
 16  2  1  0  0  0  0
 38 22  1  0  0  0  0
 81 39  1  0  0  0  0
106 86  1  0  0  0  0
115107  1  0  0  0  0
131117  1  0  0  0  0
 15  5  1  0  0  0  0
 31 24  1  0  0  0  0
 48 41  1  0  0  0  0
 80 49  2  0  0  0  0
106 92  1  0  0  0  0
130120  1  0  0  0  0
 13  7  1  0  0  0  0
 79 51  2  0  0  0  0
103 95  1  0  0  0  0
128122  1  0  0  0  0
 77 52  2  0  0  0  0
 57 53  2  0  0  0  0
 76 58  2  0  0  0  0
 74 59  2  0  0  0  0
 73 61  2  0  0  0  0
 70 63  1  0  0  0  0
  1137  1  0  0  0  0
  6138  1  0  0  0  0
  8139  1  0  0  0  0
  9140  1  0  0  0  0
 12141  1  0  0  0  0
 14142  1  0  0  0  0
 26143  1  0  0  0  0
 28144  1  0  0  0  0
 28145  1  0  0  0  0
 29146  1  0  0  0  0
 29147  1  0  0  0  0
 29148  1  0  0  0  0
 30149  1  0  0  0  0
 32150  1  0  0  0  0
 32151  1  0  0  0  0
 33152  1  0  0  0  0
 33153  1  0  0  0  0
 33154  1  0  0  0  0
 34155  1  0  0  0  0
 34156  1  0  0  0  0
 35157  1  0  0  0  0
 35158  1  0  0  0  0
 35159  1  0  0  0  0
 36160  1  0  0  0  0
 42161  1  0  0  0  0
 43162  1  0  0  0  0
 44163  1  0  0  0  0
 46164  1  0  0  0  0
 46165  1  0  0  0  0
 47166  1  0  0  0  0
 47167  1  0  0  0  0
 47168  1  0  0  0  0
 48169  1  0  0  0  0
 64170  1  0  0  0  0
 65171  1  0  0  0  0
 66172  1  0  0  0  0
 68173  1  0  0  0  0
 68174  1  0  0  0  0
 69175  1  0  0  0  0
 69176  1  0  0  0  0
 69177  1  0  0  0  0
 70178  1  0  0  0  0
 82179  1  0  0  0  0
 82180  1  0  0  0  0
 83181  1  0  0  0  0
 83182  1  0  0  0  0
 83183  1  0  0  0  0
 84184  1  0  0  0  0
 84185  1  0  0  0  0
 85186  1  0  0  0  0
 85187  1  0  0  0  0
 85188  1  0  0  0  0
 96189  1  0  0  0  0
 97190  1  0  0  0  0
 98191  1  0  0  0  0
101192  1  0  0  0  0
101193  1  0  0  0  0
102194  1  0  0  0  0
102195  1  0  0  0  0
102196  1  0  0  0  0
103197  1  0  0  0  0
108198  1  0  0  0  0
109199  1  0  0  0  0
110200  1  0  0  0  0
113201  1  0  0  0  0
113202  1  0  0  0  0
114203  1  0  0  0  0
114204  1  0  0  0  0
114205  1  0  0  0  0
115206  1  0  0  0  0
116207  1  0  0  0  0
121208  1  0  0  0  0
123209  1  0  0  0  0
124210  1  0  0  0  0
127211  1  0  0  0  0
129212  1  0  0  0  0
M  END
