196

C          5.71330       -5.29510       -8.29740
C          6.77070       -4.76220       -8.98260
C          7.71420       -5.66320       -9.68820
O          7.54070       -6.82900       -9.96810
C          8.93120       -4.85120       -9.90770
C         10.14350       -5.22980      -10.40590
C         11.18500       -4.27670      -10.48450
C         12.45390       -4.61370      -10.99790
C         13.45790       -3.68760      -11.06230
C         13.20900       -2.38640      -10.60670
F         14.20980       -1.48760      -10.67600
C         11.99770       -2.00640      -10.10030
C         10.95120       -2.94630      -10.03050
C          9.68100       -2.57940       -9.52740
C          8.68530       -3.51500       -9.47970
C          7.28860       -3.41810       -9.06460
C          6.55470       -2.25750       -9.06190
C          7.11200       -0.98280       -9.26370
N          7.52180        0.07770       -9.42840
C          5.14820       -2.24190       -8.98370
N          4.00000       -2.20900       -8.98900
C          5.01040       -4.75410       -7.20850
C          3.89310       -5.32230       -6.59210
C          3.23520       -6.53960       -7.09560
C          2.41580       -6.47520       -8.22610
C          1.80950       -7.63660       -8.68000
C          2.00100       -8.85450       -8.04530
C          1.37860      -10.10910       -8.58680
C          2.31950      -10.77880       -9.59020
C          2.81820       -8.89590       -6.92610
C          3.43600       -7.75520       -6.43710
C          4.35430       -7.86500       -5.25050
C          5.79170       -8.13780       -5.69840
C          2.11870       -5.16850       -8.90590
C          0.98320       -4.43510       -8.18940
C          3.47650       -4.60590       -5.47250
C          4.25830       -3.49730       -5.19180
S          5.55330       -3.34270       -6.33160
C          4.04370       -2.54090       -4.17090
C          4.73370       -1.36630       -3.91850
C          5.91920       -0.89840       -4.64810
C          7.12890       -1.58130       -4.58120
C          8.21840       -1.11170       -5.29210
C          8.11120        0.03640       -6.05600
C          6.91570        0.74360       -6.11270
C          6.82130        2.02410       -6.88700
C          7.35540        3.18970       -6.05250
C          5.82650        0.26670       -5.40030
C          4.12140       -0.62100       -2.89970
S          4.51710        0.91930       -2.17860
C          3.12500        0.76440       -1.16300
C          2.42810        1.50990       -0.19970
C          2.64170        2.81890        0.28310
C          1.67220        3.39650        1.16750
N          1.96480        4.64630        1.49280
S          3.34530        5.05750        0.75390
N          3.62200        3.65860       -0.01180
C          0.59900        2.59690        1.61500
C         -0.41010        2.85530        2.55480
S         -0.96330        4.15470        3.55490
C         -2.18090        3.08990        4.21350
C         -3.18530        3.28780        5.18410
C         -3.25240        4.50800        5.98810
C         -3.20540        5.75920        5.38350
C         -3.11760        6.89390        6.16550
C         -3.05700        6.79050        7.54380
C         -3.10030        5.54820        8.16390
C         -2.95240        5.42590        9.65350
C         -1.47720        5.26010       10.02410
C         -3.20800        4.41350        7.37480
C         -3.93620        2.14390        5.36320
S         -3.36690        0.80230        4.37370
C         -2.14150        1.80010        3.67860
C         -1.12670        1.66790        2.72170
N         -0.60830        0.69200        1.91270
C          0.44110        1.24360        1.19940
C          1.30090        0.73350        0.19130
N          1.30680       -0.44790       -0.53900
C          2.40470       -0.41630       -1.36230
C          2.97540       -1.21420       -2.35940
S          2.64150       -2.72960       -3.11880
C          0.19300       -1.28260       -0.93730
C         -0.73740       -0.53240       -1.88850
C         -0.95410       -0.69040        2.15410
C         -2.29770       -1.06720        1.53160
C         -5.13470        1.94320        6.11160
C         -6.21180        2.80920        6.28310
C         -6.32060        4.17900        5.74470
C         -6.47670        5.24630        6.64460
C         -6.64060        6.52410        6.14080
C         -6.68390        6.76880        4.77470
C         -6.88150        8.16660        4.25960
C         -5.57510        8.95950        4.29350
C         -6.55610        5.70110        3.90620
C         -6.37840        4.40300        4.36780
C         -6.35610        3.28390        3.35710
C         -5.26680        3.45190        2.29810
C         -6.49420        4.97360        8.12750
C         -6.43350        6.20780        9.01860
C         -7.26540        2.20650        6.97420
C         -7.03220        0.89930        7.35930
S         -5.44960        0.38740        6.80980
C         -7.83300       -0.05260        8.01730
C         -8.99410        0.11260        8.72490
C         -9.58170        1.37870        9.22050
O         -9.23490        2.52050        8.99320
C        -10.67730        0.97880       10.12510
C        -11.51240        1.79030       10.86410
C        -12.49100        1.20260       11.66250
C        -13.43600        2.05010       12.45320
C        -12.59010       -0.18690       11.69470
C        -11.75320       -1.00820       10.95430
C        -10.78410       -0.42140       10.15470
C         -9.77820       -0.98610        9.26210
C         -9.66620       -2.31380        8.93780
C         -8.77220       -2.86190        7.99430
N         -8.09550       -3.39080        7.23080
C        -10.47620       -3.32990        9.48640
N        -11.09430       -4.20570        9.89830
H          5.45230       -6.31680       -8.55960
H         10.30910       -6.24390      -10.73740
H         12.62210       -5.62300      -11.34260
H         14.43350       -3.92990      -11.45300
H         11.83970       -0.99370       -9.76360
H          9.52770       -1.56890       -9.18290
H          1.17120       -7.58770       -9.55100
H          0.43490       -9.87090       -9.08160
H          1.17070      -10.80270       -7.76930
H          3.26040      -11.03940       -9.11080
H          2.53370      -10.10390      -10.41570
H          1.86930      -11.68500       -9.98890
H          2.97780       -9.83730       -6.41910
H          4.01920       -8.68560       -4.61260
H          4.33010       -6.94670       -4.66130
H          6.17560       -7.30780       -6.28700
H          6.43780       -8.27510       -4.83410
H          5.83360       -9.03650       -6.30930
H          1.82420       -5.35830       -9.93960
H          2.99750       -4.52290       -8.92020
H          0.76860       -3.49840       -8.69660
H          1.26370       -4.21260       -7.16250
H          0.08220       -5.04530       -8.17700
H          2.61860       -4.87330       -4.87900
H          7.21160       -2.47100       -3.97420
H          9.15620       -1.64620       -5.24750
H          8.96300        0.39380       -6.61570
H          7.39940        1.93570       -7.80800
H          5.78120        2.21760       -7.15500
H          8.39650        3.02120       -5.78660
H          6.78090        3.29280       -5.13420
H          7.28630        4.11900       -6.61270
H          4.88540        0.79660       -5.44000
H         -3.24470        5.83780        4.30800
H         -3.07370        7.86490        5.69640
H         -2.96390        7.68300        8.14670
H         -3.51380        4.56220       10.01530
H         -3.34660        6.31840       10.14250
H         -0.90270        6.11750        9.68070
H         -1.06720        4.36680        9.55800
H         -1.36260        5.17370       11.10210
H         -3.22010        3.43610        7.83830
H          0.61890       -2.15070       -1.44710
H         -0.35930       -1.64210       -0.07530
H         -1.55820       -1.17680       -2.19150
H         -1.14180        0.35530       -1.40610
H         -0.19490       -0.22140       -2.77830
H         -0.13990       -1.32450        1.80100
H         -1.02530       -0.82710        3.23930
H         -2.48340       -2.12860        1.67170
H         -3.09750       -0.51480        2.01710
H         -2.32520       -0.83900        0.46990
H         -6.76340        7.35690        6.81390
H         -7.62550        8.67960        4.87350
H         -7.25460        8.13110        3.23410
H         -4.81690        8.46300        3.69220
H         -5.72840        9.96240        3.90100
H         -5.20980        9.03790        5.31460
H         -6.62720        5.87570        2.84230
H         -7.32900        3.26110        2.85570
H         -6.22940        2.32270        3.85470
H         -5.45650        4.32140        1.67460
H         -4.29360        3.57760        2.76430
H         -5.23290        2.57450        1.65530
H         -7.40580        4.42290        8.37340
H         -5.65270        4.31890        8.36750
H         -5.56650        6.81800        8.77780
H         -7.33280        6.80980        8.91340
H         -6.35930        5.89810       10.05890
H         -8.20220        2.69890        7.15050
H         -7.44290       -1.06210        7.95800
H        -11.40080        2.86330       10.81430
H        -13.74140        1.54570       13.36690
H        -14.33220        2.24880       11.86420
H        -12.98220        3.00500       12.70630
H        -13.34560       -0.64150       12.31910
H        -11.86380       -2.07830       11.01570
