215

C          5.58530        4.23220       -7.59390
C          6.15960        5.48880       -7.64120
C          5.38770        6.73620       -7.55290
O          4.18660        6.85490       -7.38820
C          6.35170        7.82040       -7.83550
C          6.13890        9.16530       -7.88180
C          7.22730       10.02620       -8.15560
C          7.06680       11.42510       -8.20510
C          8.12570       12.24820       -8.47400
C          9.38450       11.67810       -8.70030
F         10.41710       12.50360       -8.96240
C          9.59520       10.32770       -8.66310
C          8.51600        9.46630       -8.38780
C          8.70310        8.06370       -8.34000
C          7.63700        7.25440       -8.06260
C          7.52840        5.80450       -7.92350
C          8.58030        4.91870       -7.89560
C          8.44300        3.54620       -7.61420
N          8.40560        2.42640       -7.35900
C          9.92630        5.28990       -8.05720
N         11.04360        5.53810       -8.16360
C          4.39150        3.90570       -6.95310
C          3.70830        4.52170       -5.88020
N          4.17620        5.51940       -5.07940
C          3.25570        6.32680       -4.37400
C          3.44810        6.57440       -3.01980
C          2.54630        7.36160       -2.33000
C          1.44400        7.91570       -2.96910
C          0.44950        8.74320       -2.21500
C          1.27300        7.67390       -4.32820
C          2.16610        6.89050       -5.03040
C          5.54150        5.78440       -4.90070
C          6.47200        4.75230       -4.78490
C          7.81320        5.04090       -4.65010
C          8.27060        6.35730       -4.62750
C          9.73490        6.64760       -4.53020
C          7.33340        7.37860       -4.69800
C          5.98470        7.10320       -4.82860
C          2.47520        3.86880       -5.64480
S          1.21630        4.08200       -4.47650
C          0.34410        2.70640       -5.13200
C          1.03170        2.07590       -6.16100
N          0.61760        0.93250       -6.81470
C          0.91930        0.72470       -8.16950
C          1.00670        1.78160       -9.07170
C          1.31140        1.54050      -10.39750
C          1.52440        0.25100      -10.86430
C          1.87810       -0.00430      -12.29710
C          1.42120       -0.80030       -9.96000
C          1.12720       -0.57310       -8.63180
C         -0.19170       -0.01150       -6.14860
C          0.19150       -0.52090       -4.91350
C         -0.62640       -1.41750       -4.25070
C         -1.83490       -1.82710       -4.79730
C         -2.72700       -2.79100       -4.07700
C         -2.19460       -1.33220       -6.04700
C         -1.38630       -0.44000       -6.72070
C          2.23790        2.76290       -6.44890
S          3.54780        2.45820       -7.52870
C         -0.84080        2.24360       -4.45530
C         -2.13940        2.05560       -4.88140
C         -2.74430        2.57450       -6.10970
C         -2.00810        2.87350       -7.25390
C         -2.63150        3.35130       -8.39020
C         -3.99900        3.55590       -8.40860
C         -4.75310        3.29610       -7.27200
C         -6.22750        3.58020       -7.24500
C         -6.48480        5.00940       -6.76360
C         -4.11810        2.81550       -6.13830
C         -2.88030        1.33510       -3.90460
S         -4.46550        0.59800       -3.92960
C         -4.15060       -0.11190       -2.38530
C         -4.74160       -1.01600       -1.48760
C         -5.91380       -1.79420       -1.59080
C         -6.19060       -2.76750       -0.57300
N         -7.28250       -3.47100       -0.82900
S         -7.91070       -2.95210       -2.22820
N         -6.81200       -1.80980       -2.56370
C         -5.34750       -2.83020        0.55700
C         -5.45060       -3.57220        1.74590
S         -6.47140       -4.77800        2.45150
C         -5.51440       -4.69640        3.91090
C         -5.58040       -5.39260        5.13690
C         -6.53960       -6.46730        5.40300
C         -7.88140       -6.31330        5.06790
C         -8.77590       -7.33560        5.32430
C         -8.34510       -8.51090        5.91430
C         -7.00550       -8.68800        6.23880
C         -6.52850       -9.93790        6.92080
C         -6.40610       -9.70460        8.42810
C         -6.11160       -7.66350        5.97080
C         -4.58140       -4.98790        5.99800
S         -3.53590       -3.76920        5.28860
C         -4.46260       -3.78330        3.83120
C         -4.42440       -3.14050        2.58600
N         -3.66300       -2.18810        1.95550
C         -4.21300       -1.98490        0.69660
C         -3.83830       -1.16210       -0.39800
N         -2.71000       -0.40750       -0.66570
C         -2.90380        0.22790       -1.86340
C         -2.17250        1.03790       -2.74410
S         -0.57660        1.68340       -2.80350
C         -1.38000       -0.49020       -0.10850
C         -0.98600        0.78420        0.63620
C         -2.90960       -1.26240        2.77410
C         -3.74610       -0.03170        3.11810
C         -4.33460       -5.40400        7.36120
C         -3.01870       -5.47400        7.84500
C         -2.80630       -5.90920        9.13090
C         -1.52140       -6.10580        9.85640
O         -0.40300       -5.92650        9.44030
C         -1.93180       -6.59470       11.20190
C         -3.33790       -6.69760       11.25110
C         -3.87900       -6.26670        9.97180
C         -5.17930       -6.16330        9.51090
C         -5.39590       -5.72900        8.21340
C         -3.95570       -7.18060       12.39140
C         -3.16450       -7.54170       13.46830
C         -1.77050       -7.39490       13.44770
C         -1.14610       -6.92920       12.27680
C         -1.02050       -7.79780       14.60970
C          0.12970       -7.25140       15.08030
C          0.67480       -5.91650       14.69720
O          0.26060       -5.15590       13.85200
C          1.77580       -5.65600       15.64280
C          2.58310       -4.55730       15.71710
C          3.58690       -4.50630       16.70890
C          4.45430       -3.40070       16.82520
C          5.41820       -3.36120       17.79370
C          5.53650       -4.44260       18.67800
F          6.49010       -4.38440       19.62470
C          4.72320       -5.53910       18.60830
C          3.72510       -5.59760       17.61580
C          2.87220       -6.72060       17.51610
C          1.91240       -6.75320       16.53820
C          0.91880       -7.76240       16.19220
C          0.80710       -8.99950       16.76820
C          1.61710       -9.45290       17.83150
N          2.23770       -9.87950       18.69760
C         -0.10700      -10.00300       16.38130
N         -0.80780      -10.87510       16.12260
H          6.06420        3.42540       -8.13600
H          5.15470        9.57360       -7.70590
H          6.08610       11.84110       -8.02820
H          8.01830       13.32040       -8.51760
H         10.57920        9.92330       -8.84200
H          9.68780        7.66770       -8.53040
H          4.30060        6.14510       -2.51370
H          2.70040        7.54370       -1.27630
H          0.12190        9.59220       -2.81120
H         -0.42920        8.14190       -1.98000
H          0.87160        9.10780       -1.28190
H          0.43080        8.11130       -4.84410
H          2.05170        6.72980       -6.09080
H          6.14220        3.72440       -4.80630
H          8.52290        4.23040       -4.57020
H         10.15100        6.20720       -3.62510
H          9.91920        7.71860       -4.51540
H         10.26560        6.21680       -5.37890
H          7.66050        8.40790       -4.66730
H          5.26760        7.90790       -4.89160
H          0.83010        2.79560       -8.74410
H          1.37760        2.37390      -11.08190
H          1.53100        0.80560      -12.93420
H          1.44220       -0.93890      -12.64340
H          2.96080       -0.07940      -12.40470
H          1.58210       -1.81290      -10.30050
H          1.05790       -1.39970       -7.94030
H          1.12850       -0.20790       -4.47540
H         -0.31660       -1.80530       -3.29000
H         -3.77060       -2.49940       -4.17840
H         -2.47860       -2.84110       -3.01890
H         -2.61780       -3.79010       -4.49970
H         -3.13070       -1.63940       -6.48930
H         -1.68130       -0.05370       -7.68500
H         -0.94550        2.73010       -7.26450
H         -2.04140        3.56110       -9.27070
H         -4.48160        3.92290       -9.30290
H         -6.64660        3.45630       -8.24540
H         -6.72650        2.87840       -6.57420
H         -6.08500        5.14780       -5.76150
H         -7.55180        5.21880       -6.74410
H         -6.00200        5.72480       -7.42590
H         -4.71270        2.64630       -5.25450
H         -8.22160       -5.39100        4.62180
H         -9.81720       -7.21250        5.06560
H         -9.05260       -9.30150        6.11860
H         -7.22890      -10.75420        6.73590
H         -5.55330      -10.22640        6.52310
H         -6.06330      -10.60830        8.92660
H         -7.37050       -9.42240        8.84510
H         -5.69680       -8.90460        8.63180
H         -5.06410       -7.79620        6.20170
H         -0.68230       -0.63020       -0.94250
H         -1.31660       -1.37670        0.52420
H         -1.71580        1.04310        1.39820
H         -0.91730        1.61260       -0.06400
H         -0.01480        0.65200        1.10520
H         -1.98550       -0.96530        2.28690
H         -2.64600       -1.79700        3.69020
H         -4.04160        0.49440        2.21240
H         -4.64680       -0.32640        3.65190
H         -3.17390        0.64280        3.74960
H         -2.18480       -5.20990        7.21110
H         -6.01720       -6.40860       10.14580
H         -6.40710       -5.63270        7.84920
H         -5.02890       -7.28510       12.44240
H         -3.63160       -7.92500       14.36440
H         -0.07300       -6.86720       12.20250
H         -1.45990       -8.61550       15.16910
H          2.45820       -3.73960       15.02310
H          4.34360       -2.58010       16.13260
H          6.08930       -2.52330       17.89700
H          4.84410       -6.35440       19.30450
H          2.99890       -7.52670       18.22060
