249

C          9.16390       -2.00340       -7.66370
C          9.27790       -3.31350       -8.09110
C          8.36800       -4.38770       -7.67130
O          7.43950       -4.30860       -6.88660
C          8.72860       -5.55880       -8.49830
C          8.17930       -6.80550       -8.50480
C          8.70080       -7.78430       -9.38290
C          8.17680       -9.09140       -9.42530
C          8.68510      -10.02830      -10.28270
C          9.74460       -9.66970      -11.12510
F         10.23390      -10.60510      -11.96290
C         10.29100       -8.41630      -11.12280
C          9.77930       -7.44010      -10.24680
C         10.32450       -6.13370      -10.22060
C          9.80940       -5.20950       -9.35520
C         10.17030       -3.81910       -9.09130
C         11.27640       -3.16740       -9.58610
C         11.66440       -1.87190       -9.19570
N         12.05560       -0.83410       -8.89460
C         12.19920       -3.74840      -10.47260
N         12.99390       -4.17880      -11.18290
C          8.61230       -1.57930       -6.45700
C          8.43720       -2.24500       -5.22180
N          8.95410       -3.45570       -4.86950
C         10.09330       -4.00600       -5.47410
C         10.14740       -5.37420       -5.73050
C         11.24680       -5.92080       -6.36650
C         12.31840       -5.12870       -6.75500
C         13.48820       -5.70410       -7.48870
C         12.27710       -3.76950       -6.45020
C         11.18550       -3.21100       -5.82020
C          8.34380       -4.18860       -3.82750
C          6.96640       -4.38480       -3.81940
C          6.38160       -5.09910       -2.79310
C          7.14750       -5.63210       -1.76190
C          6.49700       -6.37790       -0.63800
C          8.52400       -5.44320       -1.79140
C          9.12320       -4.73010       -2.81150
C          7.74750       -1.41080       -4.31040
S          7.18310       -1.61700       -2.68500
C          6.61880        0.04250       -2.65110
C          6.80770        0.70370       -3.85630
N          6.36080        1.98040       -4.14900
C          5.14410        2.44520       -3.63030
C          5.00830        3.77060       -3.22120
C          3.84100        4.19820       -2.62330
C          2.77210        3.33020       -2.42500
C          1.52780        3.79770       -1.73300
C          2.88990        2.03050       -2.89640
C          4.05390        1.58970       -3.49680
C          7.13690        2.80150       -4.98210
C          6.52780        3.64670       -5.90480
C          7.29750        4.44230       -6.73040
C          8.68470        4.41250       -6.66860
C          9.52380        5.25210       -7.58200
C          9.28430        3.56670       -5.74270
C          8.52710        2.77260       -4.90630
C          7.47570       -0.13350       -4.78210
S          8.04910        0.09970       -6.38910
C          5.97470        0.59960       -1.49650
C          6.24740        1.82370       -0.92100
C          7.46820        2.58400       -1.17880
C          8.67710        1.92760       -1.40480
C          9.82460        2.65540       -1.65260
C          9.78340        4.03880       -1.68370
C          8.59300        4.71070       -1.44190
C          8.54220        6.21080       -1.40990
C          8.66690        6.71570        0.02900
C          7.44810        3.97450       -1.17800
C          5.21070        2.21050       -0.04260
S          4.90820        3.66010        0.88040
C          3.37250        3.02120        1.35670
C          2.22750        3.41720        2.07550
C          1.93270        4.51740        2.91220
C          0.66970        4.55550        3.60760
N          0.57040        5.60280        4.41050
S          1.93100        6.47220        4.29860
N          2.70670        5.54570        3.22080
C         -0.31050        3.58100        3.31160
C         -1.67180        3.44550        3.64870
S         -2.84910        4.17680        4.68860
C         -4.04440        3.05580        4.08690
C         -5.39320        2.82860        4.42870
C         -6.11060        3.62660        5.42710
C         -5.59570        3.76560        6.71210
C         -6.27550        4.52310        7.64620
C         -7.46530        5.14630        7.30890
C         -7.98240        5.03360        6.02570
C         -9.24750        5.73750        5.62880
C         -8.93400        7.06030        4.92800
C         -7.28840        4.28110        5.08930
C         -5.90470        1.74330        3.74850
S         -4.76070        1.08870        2.57720
C         -3.54480        2.18180        3.12360
C         -2.18410        2.39590        2.87990
N         -1.19170        1.84460        2.10890
C         -0.03270        2.54740        2.38230
C          1.28570        2.37130        1.91300
N          1.85840        1.33660        1.19570
C          3.12330        1.74400        0.84850
C          4.18260        1.27510        0.06210
S          4.50110       -0.13420       -0.88180
C          1.53740       -0.06950        1.32850
C          2.52320       -0.77740        2.25770
C         -1.51860        1.16990        0.87030
C         -2.28910        2.09300       -0.07370
C         -7.11280        1.00940        3.98220
C         -7.20890       -0.36680        4.15180
N         -6.15370       -1.26100        4.21720
C         -4.91210       -0.90270        4.75830
C         -4.81880       -0.01290        5.82660
C         -3.58140        0.41160        6.26810
C         -2.40790       -0.03340        5.67130
C         -1.07900        0.50130        6.10840
C         -2.50830       -0.96490        4.64540
C         -3.73770       -1.39960        4.19360
C         -6.35000       -2.56110        3.71940
C         -7.04730       -2.76370        2.53200
C         -7.26300       -4.04530        2.06390
C         -6.78370       -5.15050        2.75460
C         -7.04290       -6.54100        2.26280
C         -6.07310       -4.93690        3.93110
C         -5.85830       -3.66270        4.41440
C         -8.56040       -0.76100        4.30960
S         -9.33740       -2.28060        4.58140
C        -10.90790       -1.48580        4.61940
C        -10.81130       -0.09710        4.51460
N        -11.84790        0.78990        4.69540
C        -12.90300        0.49540        5.58180
C        -12.66500       -0.15760        6.78640
C        -13.72160       -0.52060        7.59940
C        -15.03330       -0.23090        7.24620
C        -16.18740       -0.65510        8.09860
C        -15.25730        0.46860        6.06500
C        -14.21170        0.82820        5.24000
C        -11.81610        2.03750        4.05240
C        -11.37190        2.14150        2.73600
C        -11.33470        3.37230        2.11200
C        -11.75080        4.52390        2.76960
C        -11.68050        5.85740        2.09200
C        -12.21190        4.40680        4.07590
C        -12.24190        3.18420        4.71670
C         -9.46600        0.28790        4.29910
S         -8.67140        1.80920        4.10380
C        -12.08810       -2.25750        4.76580
C        -13.34830       -1.98040        4.25500
C        -14.32620       -2.86290        4.68180
C        -13.83700       -3.86410        5.50600
C        -14.53360       -4.92460        6.14140
C        -15.89980       -4.98790        6.34140
C        -16.79080       -3.94610        6.03690
N        -17.53950       -3.09580        5.84480
C        -16.49320       -6.11450        6.94580
N        -16.99750       -7.02440        7.42910
C        -13.75450       -6.00190        6.63580
N        -13.11480       -6.86920        7.02400
S        -12.10980       -3.69880        5.72780
H          9.48720       -1.21460       -8.33260
H          7.35930       -7.04940       -7.84550
H          7.35900       -9.34390       -8.76690
H          8.29290      -11.03190      -10.32880
H         11.10760       -8.17530      -11.78550
H         11.13330       -5.89880      -10.89410
H          9.31700       -6.00100       -5.44200
H         11.26110       -6.98040       -6.57700
H         13.51790       -5.32340       -8.51000
H         13.42790       -6.78850       -7.52910
H         14.42130       -5.41940       -7.00550
H         13.11150       -3.13860       -6.71980
H         11.17450       -2.15420       -5.59930
H          6.37760       -4.00020       -4.63730
H          5.31230       -5.25180       -2.79490
H          7.20540       -7.04110       -0.14780
H          6.12220       -5.67270        0.10450
H          5.65390       -6.96330       -0.99830
H          9.13660       -5.85520       -1.00260
H         10.19380       -4.58580       -2.82440
H          5.83490        4.45080       -3.35920
H          3.76150        5.22100       -2.28380
H          1.77710        4.34850       -0.82730
H          0.95950        4.46390       -2.38270
H          0.89360        2.95530       -1.46610
H          2.06250        1.34360       -2.78540
H          4.12580        0.57250       -3.85420
H          5.45020        3.67180       -5.97440
H          6.80830        5.09010       -7.44360
H          8.91290        5.96980       -8.12380
H         10.28360        5.79110       -7.01850
H         10.03500        4.61830       -8.30650
H         10.36160        3.53130       -5.67430
H          9.00810        2.13440       -4.18080
H          8.71800        0.84900       -1.36740
H         10.75920        2.14060       -1.82300
H         10.68310        4.60020       -1.88970
H          7.59570        6.55740       -1.83010
H          9.35450        6.62240       -2.01190
H          9.60910        6.38890        0.46350
H          8.63040        7.80220        0.05550
H          7.85500        6.32480        0.63800
H          6.52120        4.49190       -0.98380
H         -4.67180        3.27280        6.97270
H         -5.87760        4.62660        8.64500
H         -7.99450        5.73020        8.04830
H         -9.82190        5.09810        4.95490
H         -9.85450        5.93400        6.51460
H         -8.37490        7.71730        5.59050
H         -9.85320        7.56250        4.63540
H         -8.33380        6.88420        4.03810
H         -7.65870        4.22020        4.07560
H          0.53720       -0.16330        1.75030
H          1.56670       -0.53590        0.33790
H          3.52720       -0.76180        1.84340
H          2.53810       -0.28960        3.23020
H          2.22050       -1.81270        2.38910
H         -0.59970        0.86030        0.37680
H         -2.12430        0.28870        1.10570
H         -1.71150        2.99400       -0.27080
H         -3.24450        2.37820        0.35740
H         -2.47370        1.58170       -1.01440
H         -5.71770        0.35300        6.30100
H         -3.52420        1.10810        7.09190
H         -0.27090       -0.15320        5.79020
H         -0.91130        1.48670        5.67030
H         -1.04110        0.60860        7.19030
H         -1.60980       -1.34340        4.17850
H         -3.80030       -2.10250        3.37590
H         -7.41410       -1.91180        1.97740
H         -7.80940       -4.18710        1.14260
H         -7.25770       -6.54410        1.19690
H         -6.18780       -7.18570        2.45370
H         -7.90290       -6.96360        2.78340
H         -5.69230       -5.78410        4.48280
H         -5.31400       -3.51010        5.33470
H        -11.65170       -0.39280        7.07810
H        -13.51920       -1.04120        8.52440
H        -15.84900       -1.21750        8.96520
H        -16.74490        0.21440        8.44410
H        -16.87000       -1.27740        7.52060
H        -16.26940        0.71380        5.77980
H        -14.40220        1.35400        4.31540
H        -11.06510        1.25280        2.20400
H        -10.98440        3.43880        1.09220
H        -12.34240        6.57360        2.57240
H        -10.66330        6.24710        2.14290
H        -11.95320        5.77310        1.04220
H        -12.54620        5.28780        4.60440
H        -12.59060        3.11050        5.73590
H        -13.53150       -1.17410        3.56980
H        -15.35580       -2.79760        4.38150
