261

C         -1.45120       -4.39700       -5.52030
C         -0.13920       -4.52530       -5.13990
C          0.62410       -5.71770       -5.56520
O          0.28320       -6.55180       -6.37840
C          1.86020       -5.69910       -4.75440
C          2.88390       -6.59960       -4.72300
C          3.96710       -6.38280       -3.83990
C          5.07580       -7.25120       -3.81230
C          6.11840       -7.03450       -2.95560
C          6.05960       -5.93950       -2.08740
F          7.09130       -5.74820       -1.24020
C          5.00760       -5.06700       -2.06980
C          3.93950       -5.25690       -2.96690
C          2.87390       -4.32740       -3.03440
C          1.86690       -4.53110       -3.93690
C          0.71450       -3.71390       -4.31310
C          0.64730       -2.34600       -4.17540
C          1.56010       -1.60110       -3.41100
N          2.28160       -0.96360       -2.78400
C         -0.26670       -1.56060       -4.90360
N         -0.94990       -0.90720       -5.55780
C         -2.44950       -3.58760       -4.96600
C         -3.63850       -3.15550       -5.58750
N         -4.08060       -3.51780       -6.82570
C         -3.90760       -4.81670       -7.33150
C         -3.57780       -5.00930       -8.66950
C         -3.40090       -6.28860       -9.15840
C         -3.54620       -7.39930       -8.33560
C         -3.30130       -8.78010       -8.85600
C         -3.89580       -7.19620       -7.00470
C         -4.08100       -5.92410       -6.50350
C         -4.74200       -2.55700       -7.61850
C         -4.22880       -1.26580       -7.71620
C         -4.88140       -0.32690       -8.48820
C         -6.04410       -0.64860       -9.18140
C         -6.74600        0.38920      -10.00120
C         -6.53760       -1.94360       -9.08460
C         -5.89860       -2.89370       -8.31140
C         -4.29760       -2.19280       -4.78740
S         -5.73790       -1.24790       -4.97260
C         -5.47690       -0.49910       -3.41540
C         -4.35750       -1.00250       -2.76780
N         -3.91810       -0.59800       -1.51240
C         -4.83600       -0.48400       -0.45610
C         -5.88690       -1.38950       -0.34430
C         -6.79130       -1.28810        0.69560
C         -6.67670       -0.29130        1.65460
C         -7.65820       -0.15530        2.77700
C         -5.61900        0.60420        1.54230
C         -4.71840        0.52220        0.50210
C         -2.58710       -0.17850       -1.36170
C         -1.94400       -0.28750       -0.13060
C         -0.68670        0.25470        0.05040
C         -0.01390        0.87800       -0.99380
C          1.33050        1.50260       -0.79320
C         -0.62630        0.90290       -2.24180
C         -1.89700        0.39610       -2.42840
C         -3.69820       -1.96490       -3.56020
S         -2.28360       -2.92150       -3.33710
C         -6.16090        0.66080       -2.88780
C         -7.32290        0.80170       -2.15580
C         -8.42150       -0.15740       -2.21410
C         -9.23230       -0.41560       -1.11110
C        -10.24960       -1.34520       -1.20710
C        -10.47600       -2.02380       -2.39280
C         -9.69900       -1.75770       -3.51260
C         -9.91510       -2.48840       -4.80750
C         -8.88280       -3.60450       -4.97780
C         -8.68490       -0.81860       -3.41110
C         -7.25800        1.95530       -1.32880
S         -8.13100        2.44800        0.11380
C         -6.82660        3.51720        0.53720
C         -6.24250        4.07580        1.69270
C         -6.59030        3.93480        3.05570
C         -5.55460        4.05250        4.05200
N         -5.98680        3.74570        5.26360
S         -7.55690        3.35640        5.17250
N         -7.74380        3.54610        3.57250
C         -4.24750        4.40850        3.65000
C         -2.99370        4.31060        4.29210
S         -2.28640        3.61190        5.71670
C         -0.69850        3.73030        4.98000
C          0.54100        3.09460        5.26340
C          0.79370        2.40570        6.52870
C          1.61910        1.29040        6.63270
C          1.82320        0.68880        7.86060
C          1.20520        1.18000        8.99540
C          0.36920        2.28770        8.91410
C         -0.28850        2.83390       10.14960
C          0.69810        3.65620       10.98030
C          0.17910        2.89160        7.68260
C          1.42680        3.26580        4.22420
S          0.78060        4.28830        2.93730
C         -0.73300        4.38090        3.75280
C         -2.03670        4.71480        3.36470
N         -2.62780        5.09720        2.18810
C         -3.98410        4.82040        2.31550
C         -4.95100        4.54090        1.31650
N         -4.78320        4.31350       -0.03450
C         -5.87330        3.62030       -0.47460
C         -6.10540        2.71150       -1.51480
S         -5.08020        2.04170       -2.72210
C         -3.66360        4.55650       -0.91100
C         -2.53110        3.54840       -0.72290
C         -1.97120        6.10290        1.37260
C         -2.80170        7.37930        1.28420
C          2.71490        2.68900        3.91500
C          3.90350        3.37160        3.74210
N          4.08280        4.69640        4.08520
C          4.91800        5.51780        3.31610
C          5.65000        6.53260        3.92740
C          6.48270        7.33530        3.17510
C          6.61730        7.14780        1.80400
C          7.55480        7.99810        1.00260
C          5.87650        6.13940        1.20170
C          5.02940        5.33670        1.94010
C          3.34160        5.23950        5.14990
C          3.25130        4.56060        6.36150
C          2.50850        5.08780        7.39720
C          1.83350        6.29520        7.25400
C          1.00730        6.84100        8.37840
C          1.93970        6.97140        6.04550
C          2.68720        6.45800        5.00350
C          4.90190        2.53170        3.18700
S          6.57910        2.73250        2.82960
C          6.66180        1.08120        2.19340
C          5.45020        0.37970        2.39680
N          5.27280       -0.96090        2.26980
C          3.98720       -1.50630        2.03080
C          3.51290       -2.53130        2.84350
C          2.28990       -3.11180        2.57170
C          1.52860       -2.70320        1.48050
C          0.21140       -3.35260        1.18610
C          2.02010       -1.68690        0.67190
C          3.23010       -1.08000        0.94690
C          6.33980       -1.87230        2.34430
C          6.39930       -2.94250        1.45790
C          7.44640       -3.84250        1.52230
C          8.44820       -3.70650        2.47350
C          9.59490       -4.66520        2.53000
C          8.36350       -2.64980        3.37820
C          7.32730       -1.74290        3.31930
C          4.46110        1.24540        2.91030
S          2.80650        1.02210        3.35630
C          7.82500        0.65500        1.55320
C          7.82920       -0.31130        0.55900
C          6.68540       -0.49760       -0.34570
O          5.62090        0.08870       -0.32870
C          7.13760       -1.46520       -1.36820
C          6.43360       -1.96920       -2.43840
C          7.06170       -2.92890       -3.23650
C          6.37650       -3.53200       -4.40570
O          6.77110       -4.50470       -5.00310
O          5.26430       -2.86380       -4.74330
C          4.58350       -3.32450       -5.89790
C          8.36020       -3.34290       -2.94310
C          9.07260       -2.81160       -1.87690
C          8.45670       -1.85930       -1.08210
C          8.91080       -1.12980        0.10500
C         10.11610       -1.30160        0.74510
C         10.46270       -0.64360        1.94030
N         10.80110       -0.15430        2.92340
C         11.12710       -2.17730        0.31370
N         11.99180       -2.87450        0.01830
H         -1.74320       -5.05600       -6.33100
H          2.87630       -7.46310       -5.37120
H          5.09460       -8.08970       -4.49180
H          6.98280       -7.67820       -2.93320
H          5.00050       -4.22830       -1.39120
H          2.88450       -3.47600       -2.37170
H         -3.44810       -4.15280       -9.31420
H         -3.13190       -6.42530      -10.19540
H         -3.44240       -8.82310       -9.93310
H         -2.27450       -9.07340       -8.63580
H         -3.96460       -9.49920       -8.38050
H         -4.02440       -8.04710       -6.35220
H         -4.35350       -5.77770       -5.46830
H         -3.31770       -1.01100       -7.19430
H         -4.47750        0.67210       -8.56140
H         -7.48290       -0.06440      -10.65900
H         -7.25820        1.09630       -9.34840
H         -6.03340        0.94990      -10.60310
H         -7.43810       -2.21350       -9.61670
H         -6.29220       -3.89680       -8.23720
H         -5.99690       -2.17480       -1.07840
H         -7.59810       -2.00370        0.75890
H         -8.08330        0.84840        2.78500
H         -7.16330       -0.31260        3.73520
H         -8.46470       -0.87770        2.68010
H         -5.50510        1.38760        2.27780
H         -3.91760        1.24180        0.43390
H         -2.44500       -0.77670        0.69140
H         -0.22160        0.19170        1.02400
H          1.32740        2.53280       -1.14700
H          1.60940        1.49280        0.25750
H          2.08280        0.95900       -1.36300
H         -0.11100        1.35070       -3.07900
H         -2.36410        0.46970       -3.39950
H         -9.05760        0.09980       -0.18090
H        -10.87280       -1.54400       -0.34750
H        -11.27090       -2.75340       -2.45330
H        -10.91860       -2.91730       -4.82790
H         -9.82320       -1.78990       -5.64210
H         -9.05280       -4.14010       -5.90900
H         -8.94960       -4.31090       -4.15300
H         -7.87760       -3.18950       -4.99660
H         -8.10430       -0.57630       -4.28930
H          2.08190        0.87320        5.75460
H          2.46430       -0.17820        7.92850
H          1.36270        0.69720        9.94910
H         -0.66330        2.00720       10.75730
H         -1.13720        3.46030        9.86880
H          0.21660        4.03120       11.88050
H          1.06290        4.50410       10.40560
H          1.55110        3.04730       11.27190
H         -0.45260        3.76490        7.61740
H         -3.31940        5.58230       -0.77590
H         -4.04330        4.47370       -1.93330
H         -2.24710        3.45590        0.32210
H         -1.66130        3.85290       -1.29870
H         -2.83740        2.57070       -1.08260
H         -1.02020        6.32180        1.86560
H         -1.73120        5.72040        0.38010
H         -3.77080        7.18680        0.82870
H         -2.97080        7.78770        2.27810
H         -2.27590        8.12070        0.68830
H          5.56200        6.68270        4.99340
H          7.04730        8.11660        3.66340
H          8.55290        7.55860        1.01020
H          7.22700        8.06950       -0.03200
H          7.62630        8.99930        1.42150
H          5.95620        5.98230        0.13570
H          4.44400        4.57340        1.44870
H          3.76230        3.61720        6.48510
H          2.45310        4.55010        8.33200
H          0.13220        6.21230        8.54290
H          0.66770        7.85010        8.15910
H          1.58280        6.86030        9.30280
H          1.42540        7.91270        5.91320
H          2.76120        6.99050        4.06640
H          4.10740       -2.86710        3.68070
H          1.92220       -3.90130        3.21130
H          0.33400       -4.42780        1.06030
H         -0.23040       -2.94100        0.28180
H         -0.48030       -3.19260        2.01250
H          1.46090       -1.37440       -0.19640
H          3.61840       -0.30900        0.30110
H          5.62420       -3.05650        0.71440
H          7.49080       -4.65650        0.81680
H         10.51350       -4.17610        2.20530
H          9.41720       -5.51880        1.88150
H          9.75150       -5.01690        3.54810
H          9.12290       -2.53750        4.13750
H          7.27890       -0.93050        4.02890
H          8.74720        1.15800        1.81570
H          5.42570       -1.64220       -2.64320
H          3.64850       -2.77150       -5.94150
H          5.18150       -3.12850       -6.79050
H          4.39530       -4.39800       -5.83080
H          8.80910       -4.09350       -3.57620
H         10.07980       -3.14330       -1.68400
