
  xtb     02082200023D
 energy: -347.472450711530 gnorm: 0.000632752156 xtb: 6.4.1 (unknown)
203224  0     0  0            999 V2000
    8.8492   -0.8878    1.2279 C   0  0  0  0  0  0  0  0  0  0  0  0
    9.0846   -2.2275    0.9935 C   0  0  0  0  0  0  0  0  0  0  0  0
    8.1215   -3.1945    0.4679 C   0  0  0  0  0  0  0  0  0  0  0  0
    7.0060   -2.9799    0.0221 O   0  0  0  0  0  0  0  0  0  0  0  0
    8.7572   -4.5185    0.6036 C   0  0  0  0  0  0  0  0  0  0  0  0
    8.2601   -5.7446    0.2737 C   0  0  0  0  0  0  0  0  0  0  0  0
    9.0532   -6.8926    0.5002 C   0  0  0  0  0  0  0  0  0  0  0  0
    8.5899   -8.1848    0.1820 C   0  0  0  0  0  0  0  0  0  0  0  0
    9.3662   -9.2878    0.4082 C   0  0  0  0  0  0  0  0  0  0  0  0
   10.6401   -9.1158    0.9646 C   0  0  0  0  0  0  0  0  0  0  0  0
   11.3906  -10.2132    1.1811 F   0  0  0  0  0  0  0  0  0  0  0  0
   11.1381   -7.8849    1.2905 C   0  0  0  0  0  0  0  0  0  0  0  0
   10.3520   -6.7386    1.0646 C   0  0  0  0  0  0  0  0  0  0  0  0
   10.8416   -5.4511    1.3911 C   0  0  0  0  0  0  0  0  0  0  0  0
   10.0545   -4.3549    1.1653 C   0  0  0  0  0  0  0  0  0  0  0  0
   10.2839   -2.9272    1.3822 C   0  0  0  0  0  0  0  0  0  0  0  0
   11.4528   -2.3793    1.8578 C   0  0  0  0  0  0  0  0  0  0  0  0
   12.5532   -3.1353    2.3053 C   0  0  0  0  0  0  0  0  0  0  0  0
   13.4761   -3.6886    2.7086 N   0  0  0  0  0  0  0  0  0  0  0  0
   11.7370   -1.0044    1.9461 C   0  0  0  0  0  0  0  0  0  0  0  0
   12.0634    0.0963    2.0193 N   0  0  0  0  0  0  0  0  0  0  0  0
    7.7383   -0.1022    0.9424 C   0  0  0  0  0  0  0  0  0  0  0  0
    7.6125    1.2502    1.3638 C   0  0  0  0  0  0  0  0  0  0  0  0
    8.4201    1.8703    2.2738 N   0  0  0  0  0  0  0  0  0  0  0  0
    9.0116    1.1918    3.3578 C   0  0  0  0  0  0  0  0  0  0  0  0
   10.2900    1.5464    3.7802 C   0  0  0  0  0  0  0  0  0  0  0  0
   10.8776    0.8770    4.8350 C   0  0  0  0  0  0  0  0  0  0  0  0
   10.2181   -0.1586    5.4864 C   0  0  0  0  0  0  0  0  0  0  0  0
   10.8930   -0.9088    6.5923 C   0  0  0  0  0  0  0  0  0  0  0  0
    8.9308   -0.4850    5.0742 C   0  0  0  0  0  0  0  0  0  0  0  0
    8.3244    0.1845    4.0305 C   0  0  0  0  0  0  0  0  0  0  0  0
    8.6019    3.2654    2.1953 C   0  0  0  0  0  0  0  0  0  0  0  0
    8.9230    3.8593    0.9803 C   0  0  0  0  0  0  0  0  0  0  0  0
    9.1474    5.2206    0.9173 C   0  0  0  0  0  0  0  0  0  0  0  0
    9.0424    6.0184    2.0489 C   0  0  0  0  0  0  0  0  0  0  0  0
    9.2767    7.4960    1.9836 C   0  0  0  0  0  0  0  0  0  0  0  0
    8.7110    5.4139    3.2578 C   0  0  0  0  0  0  0  0  0  0  0  0
    8.4978    4.0537    3.3380 C   0  0  0  0  0  0  0  0  0  0  0  0
    6.4900    1.8540    0.7716 C   0  0  0  0  0  0  0  0  0  0  0  0
    5.7674    3.4306    0.8665 S   0  0  0  0  0  0  0  0  0  0  0  0
    4.3966    2.8796   -0.0831 C   0  0  0  0  0  0  0  0  0  0  0  0
    4.5353    1.5614   -0.4929 C   0  0  0  0  0  0  0  0  0  0  0  0
    3.6208    0.8831   -1.2765 N   0  0  0  0  0  0  0  0  0  0  0  0
    3.4155   -0.4880   -1.0478 C   0  0  0  0  0  0  0  0  0  0  0  0
    3.3743   -0.9875    0.2513 C   0  0  0  0  0  0  0  0  0  0  0  0
    3.2215   -2.3416    0.4676 C   0  0  0  0  0  0  0  0  0  0  0  0
    3.0924   -3.2267   -0.5956 C   0  0  0  0  0  0  0  0  0  0  0  0
    2.9736   -4.6983   -0.3445 C   0  0  0  0  0  0  0  0  0  0  0  0
    3.1009   -2.7147   -1.8867 C   0  0  0  0  0  0  0  0  0  0  0  0
    3.2624   -1.3630   -2.1177 C   0  0  0  0  0  0  0  0  0  0  0  0
    2.8734    1.5478   -2.2599 C   0  0  0  0  0  0  0  0  0  0  0  0
    3.4592    2.5157   -3.0693 C   0  0  0  0  0  0  0  0  0  0  0  0
    2.6991    3.1959   -4.0002 C   0  0  0  0  0  0  0  0  0  0  0  0
    1.3388    2.9498   -4.1357 C   0  0  0  0  0  0  0  0  0  0  0  0
    0.4993    3.7465   -5.0865 C   0  0  0  0  0  0  0  0  0  0  0  0
    0.7667    1.9616   -3.3422 C   0  0  0  0  0  0  0  0  0  0  0  0
    1.5198    1.2593   -2.4241 C   0  0  0  0  0  0  0  0  0  0  0  0
    5.7358    0.9870   -0.0095 C   0  0  0  0  0  0  0  0  0  0  0  0
    6.3830   -0.6108   -0.0691 S   0  0  0  0  0  0  0  0  0  0  0  0
    3.1527    3.5954   -0.2263 C   0  0  0  0  0  0  0  0  0  0  0  0
    2.7644    4.7094   -0.9378 C   0  0  0  0  0  0  0  0  0  0  0  0
    3.6372    5.6490   -1.6426 C   0  0  0  0  0  0  0  0  0  0  0  0
    3.2130    6.1960   -2.8525 C   0  0  0  0  0  0  0  0  0  0  0  0
    3.9947    7.1242   -3.5113 C   0  0  0  0  0  0  0  0  0  0  0  0
    5.2083    7.5156   -2.9788 C   0  0  0  0  0  0  0  0  0  0  0  0
    5.6598    6.9708   -1.7822 C   0  0  0  0  0  0  0  0  0  0  0  0
    6.9978    7.3803   -1.2347 C   0  0  0  0  0  0  0  0  0  0  0  0
    8.1276    6.9161   -2.1550 C   0  0  0  0  0  0  0  0  0  0  0  0
    4.8662    6.0458   -1.1216 C   0  0  0  0  0  0  0  0  0  0  0  0
    1.3485    4.8129   -0.9761 C   0  0  0  0  0  0  0  0  0  0  0  0
    0.2528    5.9216   -1.7712 S   0  0  0  0  0  0  0  0  0  0  0  0
   -1.0899    4.9839   -1.2123 C   0  0  0  0  0  0  0  0  0  0  0  0
   -2.4919    4.9430   -1.3240 C   0  0  0  0  0  0  0  0  0  0  0  0
   -3.4239    5.8293   -1.9070 C   0  0  0  0  0  0  0  0  0  0  0  0
   -4.8266    5.5296   -1.8103 C   0  0  0  0  0  0  0  0  0  0  0  0
   -5.5826    6.4693   -2.3550 N   0  0  0  0  0  0  0  0  0  0  0  0
   -4.6170    7.6291   -2.9431 S   0  0  0  0  0  0  0  0  0  0  0  0
   -3.1953    6.9757   -2.5280 N   0  0  0  0  0  0  0  0  0  0  0  0
   -5.2251    4.2907   -1.2600 C   0  0  0  0  0  0  0  0  0  0  0  0
   -6.4638    3.6303   -1.2517 C   0  0  0  0  0  0  0  0  0  0  0  0
   -8.1005    3.9187   -1.7336 S   0  0  0  0  0  0  0  0  0  0  0  0
   -8.4825    2.2606   -1.3346 C   0  0  0  0  0  0  0  0  0  0  0  0
   -9.6710    1.5161   -1.4128 C   0  0  0  0  0  0  0  0  0  0  0  0
  -10.9637    2.0895   -1.7951 C   0  0  0  0  0  0  0  0  0  0  0  0
  -11.0890    2.8412   -2.9587 C   0  0  0  0  0  0  0  0  0  0  0  0
  -12.3174    3.3770   -3.3004 C   0  0  0  0  0  0  0  0  0  0  0  0
  -13.4178    3.1812   -2.4846 C   0  0  0  0  0  0  0  0  0  0  0  0
  -13.3035    2.4556   -1.3039 C   0  0  0  0  0  0  0  0  0  0  0  0
  -14.4957    2.2217   -0.4206 C   0  0  0  0  0  0  0  0  0  0  0  0
  -15.1900    0.9071   -0.7826 C   0  0  0  0  0  0  0  0  0  0  0  0
  -12.0723    1.9130   -0.9716 C   0  0  0  0  0  0  0  0  0  0  0  0
   -9.4700    0.2048   -1.0049 C   0  0  0  0  0  0  0  0  0  0  0  0
   -7.8228   -0.0891   -0.4739 S   0  0  0  0  0  0  0  0  0  0  0  0
   -7.3883    1.5425   -0.8376 C   0  0  0  0  0  0  0  0  0  0  0  0
   -6.2353    2.3335   -0.7783 C   0  0  0  0  0  0  0  0  0  0  0  0
   -4.9116    2.1815   -0.4585 N   0  0  0  0  0  0  0  0  0  0  0  0
   -4.2729    3.3751   -0.7322 C   0  0  0  0  0  0  0  0  0  0  0  0
   -2.9173    3.7754   -0.6343 C   0  0  0  0  0  0  0  0  0  0  0  0
   -1.8122    3.1639   -0.0638 N   0  0  0  0  0  0  0  0  0  0  0  0
   -0.7104    3.8920   -0.4325 C   0  0  0  0  0  0  0  0  0  0  0  0
    0.6796    3.8058   -0.2882 C   0  0  0  0  0  0  0  0  0  0  0  0
    1.7804    2.7170    0.4595 S   0  0  0  0  0  0  0  0  0  0  0  0
   -1.7566    2.3711    1.1455 C   0  0  0  0  0  0  0  0  0  0  0  0
   -1.4304    3.2400    2.3604 C   0  0  0  0  0  0  0  0  0  0  0  0
   -4.3588    0.8626   -0.2448 C   0  0  0  0  0  0  0  0  0  0  0  0
   -4.7038    0.3086    1.1376 C   0  0  0  0  0  0  0  0  0  0  0  0
  -10.3763   -0.8874   -1.0372 C   0  0  0  0  0  0  0  0  0  0  0  0
  -11.5137   -0.9952   -1.8206 C   0  0  0  0  0  0  0  0  0  0  0  0
  -12.1814   -2.1976   -1.6331 C   0  0  0  0  0  0  0  0  0  0  0  0
  -13.6565   -2.6745   -2.4265 S   0  0  0  0  0  0  0  0  0  0  0  0
  -13.8804   -1.3612   -3.6866 C   0  0  0  0  0  0  0  0  0  0  0  0
  -15.1273   -1.6763   -4.4901 C   0  0  0  0  0  0  0  0  0  0  0  0
  -11.5530   -3.0540   -0.6975 C   0  0  0  0  0  0  0  0  0  0  0  0
  -10.1063   -2.2963   -0.0632 S   0  0  0  0  0  0  0  0  0  0  0  0
  -12.0457   -4.3150   -0.3852 C   0  0  0  0  0  0  0  0  0  0  0  0
  -11.5577   -5.2805    0.4721 C   0  0  0  0  0  0  0  0  0  0  0  0
  -10.3600   -5.1570    1.2964 C   0  0  0  0  0  0  0  0  0  0  0  0
   -9.5920   -4.2127    1.3736 O   0  0  0  0  0  0  0  0  0  0  0  0
  -10.2464   -6.4295    2.0417 C   0  0  0  0  0  0  0  0  0  0  0  0
   -9.2843   -6.8126    2.9515 C   0  0  0  0  0  0  0  0  0  0  0  0
   -9.3840   -8.0752    3.5257 C   0  0  0  0  0  0  0  0  0  0  0  0
   -8.2015   -8.5908    4.6625 Cl  0  0  0  0  0  0  0  0  0  0  0  0
  -10.4419   -8.9150    3.1746 C   0  0  0  0  0  0  0  0  0  0  0  0
  -10.5769  -10.6334    3.9550 Br  0  0  0  0  0  0  0  0  0  0  0  0
  -11.4118   -8.5265    2.2572 C   0  0  0  0  0  0  0  0  0  0  0  0
  -11.3134   -7.2707    1.6833 C   0  0  0  0  0  0  0  0  0  0  0  0
  -12.1494   -6.5783    0.6998 C   0  0  0  0  0  0  0  0  0  0  0  0
  -13.2750   -7.1057    0.1169 C   0  0  0  0  0  0  0  0  0  0  0  0
  -14.0914   -6.4701   -0.8416 C   0  0  0  0  0  0  0  0  0  0  0  0
  -14.8156   -6.0374   -1.6216 N   0  0  0  0  0  0  0  0  0  0  0  0
  -13.7784   -8.3921    0.4007 C   0  0  0  0  0  0  0  0  0  0  0  0
  -14.2372   -9.4280    0.5868 N   0  0  0  0  0  0  0  0  0  0  0  0
    9.6472   -0.3574    1.7309 H   0  0  0  0  0  0  0  0  0  0  0  0
    7.2746   -5.8393   -0.1573 H   0  0  0  0  0  0  0  0  0  0  0  0
    7.6045   -8.2917   -0.2463 H   0  0  0  0  0  0  0  0  0  0  0  0
    9.0263  -10.2834    0.1708 H   0  0  0  0  0  0  0  0  0  0  0  0
   12.1245   -7.7901    1.7170 H   0  0  0  0  0  0  0  0  0  0  0  0
   11.8298   -5.3696    1.8142 H   0  0  0  0  0  0  0  0  0  0  0  0
   10.8241    2.3310    3.2681 H   0  0  0  0  0  0  0  0  0  0  0  0
   11.8757    1.1494    5.1423 H   0  0  0  0  0  0  0  0  0  0  0  0
   11.6748   -1.5494    6.1833 H   0  0  0  0  0  0  0  0  0  0  0  0
   11.3626   -0.2211    7.2929 H   0  0  0  0  0  0  0  0  0  0  0  0
   10.1852   -1.5335    7.1314 H   0  0  0  0  0  0  0  0  0  0  0  0
    8.3907   -1.2716    5.5814 H   0  0  0  0  0  0  0  0  0  0  0  0
    7.3218   -0.0775    3.7251 H   0  0  0  0  0  0  0  0  0  0  0  0
    9.0183    3.2467    0.0958 H   0  0  0  0  0  0  0  0  0  0  0  0
    9.4250    5.6640   -0.0258 H   0  0  0  0  0  0  0  0  0  0  0  0
    8.3525    8.0340    2.1940 H   0  0  0  0  0  0  0  0  0  0  0  0
   10.0119    7.7983    2.7275 H   0  0  0  0  0  0  0  0  0  0  0  0
    9.6320    7.7926    1.0005 H   0  0  0  0  0  0  0  0  0  0  0  0
    8.6226    6.0196    4.1478 H   0  0  0  0  0  0  0  0  0  0  0  0
    8.2496    3.5918    4.2820 H   0  0  0  0  0  0  0  0  0  0  0  0
    3.4626   -0.3071    1.0865 H   0  0  0  0  0  0  0  0  0  0  0  0
    3.2040   -2.7197    1.4796 H   0  0  0  0  0  0  0  0  0  0  0  0
    2.6320   -5.2215   -1.2342 H   0  0  0  0  0  0  0  0  0  0  0  0
    3.9475   -5.0985   -0.0625 H   0  0  0  0  0  0  0  0  0  0  0  0
    2.2815   -4.8989    0.4714 H   0  0  0  0  0  0  0  0  0  0  0  0
    2.9961   -3.3851   -2.7277 H   0  0  0  0  0  0  0  0  0  0  0  0
    3.2829   -0.9775   -3.1266 H   0  0  0  0  0  0  0  0  0  0  0  0
    4.5110    2.7373   -2.9619 H   0  0  0  0  0  0  0  0  0  0  0  0
    3.1754    3.9359   -4.6263 H   0  0  0  0  0  0  0  0  0  0  0  0
   -0.0110    4.5483   -4.5500 H   0  0  0  0  0  0  0  0  0  0  0  0
   -0.2609    3.1223   -5.5514 H   0  0  0  0  0  0  0  0  0  0  0  0
    1.1124    4.1959   -5.8638 H   0  0  0  0  0  0  0  0  0  0  0  0
   -0.2888    1.7483   -3.4377 H   0  0  0  0  0  0  0  0  0  0  0  0
    1.0641    0.4961   -1.8097 H   0  0  0  0  0  0  0  0  0  0  0  0
    2.2751    5.8881   -3.2840 H   0  0  0  0  0  0  0  0  0  0  0  0
    3.6505    7.5481   -4.4432 H   0  0  0  0  0  0  0  0  0  0  0  0
    5.8067    8.2557   -3.4900 H   0  0  0  0  0  0  0  0  0  0  0  0
    7.0347    8.4694   -1.1466 H   0  0  0  0  0  0  0  0  0  0  0  0
    7.1362    6.9515   -0.2408 H   0  0  0  0  0  0  0  0  0  0  0  0
    8.1372    5.8303   -2.2211 H   0  0  0  0  0  0  0  0  0  0  0  0
    7.9963    7.3154   -3.1577 H   0  0  0  0  0  0  0  0  0  0  0  0
    9.0911    7.2557   -1.7806 H   0  0  0  0  0  0  0  0  0  0  0  0
    5.1948    5.6511   -0.1718 H   0  0  0  0  0  0  0  0  0  0  0  0
  -10.2305    2.9908   -3.5955 H   0  0  0  0  0  0  0  0  0  0  0  0
  -12.4157    3.9533   -4.2083 H   0  0  0  0  0  0  0  0  0  0  0  0
  -14.3732    3.6048   -2.7587 H   0  0  0  0  0  0  0  0  0  0  0  0
  -14.1765    2.1813    0.6226 H   0  0  0  0  0  0  0  0  0  0  0  0
  -15.2044    3.0446   -0.5302 H   0  0  0  0  0  0  0  0  0  0  0  0
  -16.0431    0.7366   -0.1308 H   0  0  0  0  0  0  0  0  0  0  0  0
  -15.5453    0.9368   -1.8109 H   0  0  0  0  0  0  0  0  0  0  0  0
  -14.5023    0.0708   -0.6728 H   0  0  0  0  0  0  0  0  0  0  0  0
  -11.9646    1.3506   -0.0549 H   0  0  0  0  0  0  0  0  0  0  0  0
   -2.7168    1.8961    1.3106 H   0  0  0  0  0  0  0  0  0  0  0  0
   -0.9843    1.6052    1.0199 H   0  0  0  0  0  0  0  0  0  0  0  0
   -0.4476    3.6926    2.2628 H   0  0  0  0  0  0  0  0  0  0  0  0
   -2.1699    4.0314    2.4657 H   0  0  0  0  0  0  0  0  0  0  0  0
   -1.4408    2.6288    3.2587 H   0  0  0  0  0  0  0  0  0  0  0  0
   -4.7881    0.1954   -1.0012 H   0  0  0  0  0  0  0  0  0  0  0  0
   -3.2816    0.8995   -0.4102 H   0  0  0  0  0  0  0  0  0  0  0  0
   -4.4403    1.0069    1.9291 H   0  0  0  0  0  0  0  0  0  0  0  0
   -4.1727   -0.6247    1.3012 H   0  0  0  0  0  0  0  0  0  0  0  0
   -5.7700    0.1123    1.2081 H   0  0  0  0  0  0  0  0  0  0  0  0
  -11.8160   -0.2271   -2.5060 H   0  0  0  0  0  0  0  0  0  0  0  0
  -12.9922   -1.3578   -4.3181 H   0  0  0  0  0  0  0  0  0  0  0  0
  -13.9767   -0.4067   -3.1705 H   0  0  0  0  0  0  0  0  0  0  0  0
  -15.2826   -0.9082   -5.2445 H   0  0  0  0  0  0  0  0  0  0  0  0
  -15.0296   -2.6393   -4.9854 H   0  0  0  0  0  0  0  0  0  0  0  0
  -15.9989   -1.7117   -3.8409 H   0  0  0  0  0  0  0  0  0  0  0  0
  -12.9590   -4.5579   -0.9163 H   0  0  0  0  0  0  0  0  0  0  0  0
   -8.4746   -6.1486    3.2093 H   0  0  0  0  0  0  0  0  0  0  0  0
  -12.2114   -9.2081    2.0164 H   0  0  0  0  0  0  0  0  0  0  0  0
  1  2  2  0  0  0  0
  2  3  1  0  0  0  0
  3  4  2  0  0  0  0
  3  5  1  0  0  0  0
  5  6  2  0  0  0  0
  6  7  1  0  0  0  0
  7  8  2  0  0  0  0
  8  9  1  0  0  0  0
  9 10  2  0  0  0  0
 10 11  1  0  0  0  0
 10 12  1  0  0  0  0
 12 13  2  0  0  0  0
 13 14  1  0  0  0  0
 14 15  2  0  0  0  0
 15 16  1  0  0  0  0
 16 17  2  0  0  0  0
 17 18  1  0  0  0  0
 18 19  3  0  0  0  0
 17 20  1  0  0  0  0
 20 21  3  0  0  0  0
  1 22  1  0  0  0  0
 22 23  2  0  0  0  0
 23 24  1  0  0  0  0
 24 25  1  0  0  0  0
 25 26  2  0  0  0  0
 26 27  1  0  0  0  0
 27 28  2  0  0  0  0
 28 29  1  0  0  0  0
 28 30  1  0  0  0  0
 30 31  2  0  0  0  0
 24 32  1  0  0  0  0
 32 33  2  0  0  0  0
 33 34  1  0  0  0  0
 34 35  2  0  0  0  0
 35 36  1  0  0  0  0
 35 37  1  0  0  0  0
 37 38  2  0  0  0  0
 23 39  1  0  0  0  0
 39 40  1  0  0  0  0
 40 41  1  0  0  0  0
 41 42  2  0  0  0  0
 42 43  1  0  0  0  0
 43 44  1  0  0  0  0
 44 45  2  0  0  0  0
 45 46  1  0  0  0  0
 46 47  2  0  0  0  0
 47 48  1  0  0  0  0
 47 49  1  0  0  0  0
 49 50  2  0  0  0  0
 43 51  1  0  0  0  0
 51 52  2  0  0  0  0
 52 53  1  0  0  0  0
 53 54  2  0  0  0  0
 54 55  1  0  0  0  0
 54 56  1  0  0  0  0
 56 57  2  0  0  0  0
 42 58  1  0  0  0  0
 58 59  1  0  0  0  0
 41 60  1  0  0  0  0
 60 61  2  0  0  0  0
 61 62  1  0  0  0  0
 62 63  2  0  0  0  0
 63 64  1  0  0  0  0
 64 65  2  0  0  0  0
 65 66  1  0  0  0  0
 66 67  1  0  0  0  0
 67 68  1  0  0  0  0
 66 69  2  0  0  0  0
 61 70  1  0  0  0  0
 70 71  1  0  0  0  0
 71 72  1  0  0  0  0
 72 73  1  0  0  0  0
 73 74  1  0  0  0  0
 74 75  1  0  0  0  0
 75 76  2  0  0  0  0
 76 77  1  0  0  0  0
 77 78  1  0  0  0  0
 75 79  1  0  0  0  0
 79 80  1  0  0  0  0
 80 81  1  0  0  0  0
 81 82  1  0  0  0  0
 82 83  1  0  0  0  0
 83 84  1  0  0  0  0
 84 85  2  0  0  0  0
 85 86  1  0  0  0  0
 86 87  2  0  0  0  0
 87 88  1  0  0  0  0
 88 89  1  0  0  0  0
 89 90  1  0  0  0  0
 88 91  2  0  0  0  0
 83 92  2  0  0  0  0
 92 93  1  0  0  0  0
 93 94  1  0  0  0  0
 94 95  1  0  0  0  0
 95 96  1  0  0  0  0
 96 97  1  0  0  0  0
 97 98  1  0  0  0  0
 98 99  1  0  0  0  0
 99100  1  0  0  0  0
100101  1  0  0  0  0
101102  1  0  0  0  0
 99103  1  0  0  0  0
103104  1  0  0  0  0
 96105  1  0  0  0  0
105106  1  0  0  0  0
 92107  1  0  0  0  0
107108  2  0  0  0  0
108109  1  0  0  0  0
109110  1  0  0  0  0
110111  1  0  0  0  0
111112  1  0  0  0  0
109113  2  0  0  0  0
113114  1  0  0  0  0
113115  1  0  0  0  0
115116  2  0  0  0  0
116117  1  0  0  0  0
117118  2  0  0  0  0
117119  1  0  0  0  0
119120  2  0  0  0  0
120121  1  0  0  0  0
121122  1  0  0  0  0
121123  2  0  0  0  0
123124  1  0  0  0  0
123125  1  0  0  0  0
125126  2  0  0  0  0
126127  1  0  0  0  0
127128  2  0  0  0  0
128129  1  0  0  0  0
129130  3  0  0  0  0
128131  1  0  0  0  0
131132  3  0  0  0  0
 16  2  1  0  0  0  0
 59 22  1  0  0  0  0
102 60  1  0  0  0  0
114107  1  0  0  0  0
127116  1  0  0  0  0
 15  5  1  0  0  0  0
 31 25  1  0  0  0  0
 38 32  1  0  0  0  0
 58 39  2  0  0  0  0
 69 62  1  0  0  0  0
101 70  2  0  0  0  0
126119  1  0  0  0  0
 13  7  1  0  0  0  0
 50 44  1  0  0  0  0
 57 51  1  0  0  0  0
100 72  2  0  0  0  0
 98 73  2  0  0  0  0
 78 74  2  0  0  0  0
 97 79  2  0  0  0  0
 95 80  2  0  0  0  0
 94 82  2  0  0  0  0
 91 84  1  0  0  0  0
  1133  1  0  0  0  0
  6134  1  0  0  0  0
  8135  1  0  0  0  0
  9136  1  0  0  0  0
 12137  1  0  0  0  0
 14138  1  0  0  0  0
 26139  1  0  0  0  0
 27140  1  0  0  0  0
 29141  1  0  0  0  0
 29142  1  0  0  0  0
 29143  1  0  0  0  0
 30144  1  0  0  0  0
 31145  1  0  0  0  0
 33146  1  0  0  0  0
 34147  1  0  0  0  0
 36148  1  0  0  0  0
 36149  1  0  0  0  0
 36150  1  0  0  0  0
 37151  1  0  0  0  0
 38152  1  0  0  0  0
 45153  1  0  0  0  0
 46154  1  0  0  0  0
 48155  1  0  0  0  0
 48156  1  0  0  0  0
 48157  1  0  0  0  0
 49158  1  0  0  0  0
 50159  1  0  0  0  0
 52160  1  0  0  0  0
 53161  1  0  0  0  0
 55162  1  0  0  0  0
 55163  1  0  0  0  0
 55164  1  0  0  0  0
 56165  1  0  0  0  0
 57166  1  0  0  0  0
 63167  1  0  0  0  0
 64168  1  0  0  0  0
 65169  1  0  0  0  0
 67170  1  0  0  0  0
 67171  1  0  0  0  0
 68172  1  0  0  0  0
 68173  1  0  0  0  0
 68174  1  0  0  0  0
 69175  1  0  0  0  0
 85176  1  0  0  0  0
 86177  1  0  0  0  0
 87178  1  0  0  0  0
 89179  1  0  0  0  0
 89180  1  0  0  0  0
 90181  1  0  0  0  0
 90182  1  0  0  0  0
 90183  1  0  0  0  0
 91184  1  0  0  0  0
103185  1  0  0  0  0
103186  1  0  0  0  0
104187  1  0  0  0  0
104188  1  0  0  0  0
104189  1  0  0  0  0
105190  1  0  0  0  0
105191  1  0  0  0  0
106192  1  0  0  0  0
106193  1  0  0  0  0
106194  1  0  0  0  0
108195  1  0  0  0  0
111196  1  0  0  0  0
111197  1  0  0  0  0
112198  1  0  0  0  0
112199  1  0  0  0  0
112200  1  0  0  0  0
115201  1  0  0  0  0
120202  1  0  0  0  0
125203  1  0  0  0  0
M  END
