
  xtb     02072212553D
 energy: -347.660705505415 gnorm: 0.000973622626 xtb: 6.4.1 (unknown)
205227  0     0  0            999 V2000
    1.9508    4.0879   -8.3616 C   0  0  0  0  0  0  0  0  0  0  0  0
    2.4565    3.2293   -9.3182 C   0  0  0  0  0  0  0  0  0  0  0  0
    3.4508    2.1806   -9.0985 C   0  0  0  0  0  0  0  0  0  0  0  0
    3.9423    1.8189   -8.0415 O   0  0  0  0  0  0  0  0  0  0  0  0
    3.7773    1.6401  -10.4314 C   0  0  0  0  0  0  0  0  0  0  0  0
    4.6521    0.6479  -10.7622 C   0  0  0  0  0  0  0  0  0  0  0  0
    4.8041    0.2893  -12.1211 C   0  0  0  0  0  0  0  0  0  0  0  0
    5.6914   -0.7296  -12.5211 C   0  0  0  0  0  0  0  0  0  0  0  0
    5.8270   -1.0694  -13.8389 C   0  0  0  0  0  0  0  0  0  0  0  0
    5.0656   -0.3858  -14.7953 C   0  0  0  0  0  0  0  0  0  0  0  0
    5.2104   -0.7351  -16.0884 F   0  0  0  0  0  0  0  0  0  0  0  0
    4.1921    0.6115  -14.4614 C   0  0  0  0  0  0  0  0  0  0  0  0
    4.0401    0.9741  -13.1093 C   0  0  0  0  0  0  0  0  0  0  0  0
    3.1402    2.0001  -12.7332 C   0  0  0  0  0  0  0  0  0  0  0  0
    3.0094    2.3291  -11.4115 C   0  0  0  0  0  0  0  0  0  0  0  0
    2.1600    3.3030  -10.7270 C   0  0  0  0  0  0  0  0  0  0  0  0
    1.2269    4.1045  -11.3441 C   0  0  0  0  0  0  0  0  0  0  0  0
    1.0526    4.1809  -12.7393 C   0  0  0  0  0  0  0  0  0  0  0  0
    0.8714    4.3087  -13.8668 N   0  0  0  0  0  0  0  0  0  0  0  0
    0.2931    4.9283  -10.6903 C   0  0  0  0  0  0  0  0  0  0  0  0
   -0.5299    5.5941  -10.2396 N   0  0  0  0  0  0  0  0  0  0  0  0
    2.1230    4.1056   -6.9829 C   0  0  0  0  0  0  0  0  0  0  0  0
    1.5052    5.0677   -6.1352 C   0  0  0  0  0  0  0  0  0  0  0  0
    0.8933    6.2163   -6.5508 N   0  0  0  0  0  0  0  0  0  0  0  0
    1.3394    6.9532   -7.6659 C   0  0  0  0  0  0  0  0  0  0  0  0
    2.6978    7.0586   -7.9537 C   0  0  0  0  0  0  0  0  0  0  0  0
    3.1150    7.7720   -9.0594 C   0  0  0  0  0  0  0  0  0  0  0  0
    2.2006    8.4106   -9.8895 C   0  0  0  0  0  0  0  0  0  0  0  0
    2.6466    9.1591  -11.1070 C   0  0  0  0  0  0  0  0  0  0  0  0
    0.8501    8.3298   -9.5707 C   0  0  0  0  0  0  0  0  0  0  0  0
    0.4161    7.6085   -8.4766 C   0  0  0  0  0  0  0  0  0  0  0  0
   -0.1440    6.7609   -5.7671 C   0  0  0  0  0  0  0  0  0  0  0  0
   -1.1556    5.9390   -5.2762 C   0  0  0  0  0  0  0  0  0  0  0  0
   -2.1588    6.4718   -4.4934 C   0  0  0  0  0  0  0  0  0  0  0  0
   -2.1863    7.8285   -4.1869 C   0  0  0  0  0  0  0  0  0  0  0  0
   -3.2777    8.3858   -3.3265 C   0  0  0  0  0  0  0  0  0  0  0  0
   -1.1860    8.6426   -4.7016 C   0  0  0  0  0  0  0  0  0  0  0  0
   -0.1733    8.1217   -5.4833 C   0  0  0  0  0  0  0  0  0  0  0  0
    1.6054    4.6772   -4.7895 C   0  0  0  0  0  0  0  0  0  0  0  0
    1.0606    5.3573   -3.2891 S   0  0  0  0  0  0  0  0  0  0  0  0
    1.7942    4.0355   -2.3982 C   0  0  0  0  0  0  0  0  0  0  0  0
    2.4904    3.1663   -3.2279 C   0  0  0  0  0  0  0  0  0  0  0  0
    3.2690    2.1126   -2.7864 N   0  0  0  0  0  0  0  0  0  0  0  0
    3.4122    0.9957   -3.6302 C   0  0  0  0  0  0  0  0  0  0  0  0
    4.6650    0.4442   -3.8752 C   0  0  0  0  0  0  0  0  0  0  0  0
    4.7929   -0.6151   -4.7511 C   0  0  0  0  0  0  0  0  0  0  0  0
    3.6873   -1.1456   -5.4036 C   0  0  0  0  0  0  0  0  0  0  0  0
    3.8361   -2.2527   -6.4008 C   0  0  0  0  0  0  0  0  0  0  0  0
    2.4368   -0.6035   -5.1336 C   0  0  0  0  0  0  0  0  0  0  0  0
    2.2939    0.4511   -4.2549 C   0  0  0  0  0  0  0  0  0  0  0  0
    4.0235    2.2121   -1.6114 C   0  0  0  0  0  0  0  0  0  0  0  0
    4.5338    3.4340   -1.1775 C   0  0  0  0  0  0  0  0  0  0  0  0
    5.2363    3.5132    0.0075 C   0  0  0  0  0  0  0  0  0  0  0  0
    5.4533    2.3888    0.7943 C   0  0  0  0  0  0  0  0  0  0  0  0
    6.1663    2.4985    2.1071 C   0  0  0  0  0  0  0  0  0  0  0  0
    4.9724    1.1677    0.3381 C   0  0  0  0  0  0  0  0  0  0  0  0
    4.2662    1.0740   -0.8451 C   0  0  0  0  0  0  0  0  0  0  0  0
    2.3522    3.5228   -4.5903 C   0  0  0  0  0  0  0  0  0  0  0  0
    2.9526    2.8460   -6.0603 S   0  0  0  0  0  0  0  0  0  0  0  0
    1.5867    3.8270   -0.9936 C   0  0  0  0  0  0  0  0  0  0  0  0
    1.7901    4.6426    0.0975 C   0  0  0  0  0  0  0  0  0  0  0  0
    2.2080    6.0466    0.0727 C   0  0  0  0  0  0  0  0  0  0  0  0
    3.2952    6.4512    0.8423 C   0  0  0  0  0  0  0  0  0  0  0  0
    3.6877    7.7757    0.8373 C   0  0  0  0  0  0  0  0  0  0  0  0
    3.0042    8.7037    0.0710 C   0  0  0  0  0  0  0  0  0  0  0  0
    1.9022    8.3214   -0.6831 C   0  0  0  0  0  0  0  0  0  0  0  0
    1.1875    9.3132   -1.5541 C   0  0  0  0  0  0  0  0  0  0  0  0
    1.8866    9.4072   -2.9112 C   0  0  0  0  0  0  0  0  0  0  0  0
    1.5065    6.9925   -0.6645 C   0  0  0  0  0  0  0  0  0  0  0  0
    1.5838    3.9403    1.3062 C   0  0  0  0  0  0  0  0  0  0  0  0
    1.7287    4.4133    2.9808 S   0  0  0  0  0  0  0  0  0  0  0  0
    1.2015    2.8321    3.4524 C   0  0  0  0  0  0  0  0  0  0  0  0
    0.9565    2.0922    4.6252 C   0  0  0  0  0  0  0  0  0  0  0  0
    1.2016    2.3332    5.9967 C   0  0  0  0  0  0  0  0  0  0  0  0
    0.9743    1.2756    6.9503 C   0  0  0  0  0  0  0  0  0  0  0  0
    1.3253    1.6220    8.1780 N   0  0  0  0  0  0  0  0  0  0  0  0
    1.8830    3.1415    8.1472 S   0  0  0  0  0  0  0  0  0  0  0  0
    1.7030    3.4191    6.5629 N   0  0  0  0  0  0  0  0  0  0  0  0
    0.3644    0.0753    6.5182 C   0  0  0  0  0  0  0  0  0  0  0  0
   -0.1219   -1.0601    7.1920 C   0  0  0  0  0  0  0  0  0  0  0  0
   -0.1374   -1.7340    8.7862 S   0  0  0  0  0  0  0  0  0  0  0  0
   -1.0786   -3.0796    8.1874 C   0  0  0  0  0  0  0  0  0  0  0  0
   -1.5775   -4.2416    8.8022 C   0  0  0  0  0  0  0  0  0  0  0  0
   -1.2639   -4.6323   10.1749 C   0  0  0  0  0  0  0  0  0  0  0  0
   -1.3574   -3.7143   11.2167 C   0  0  0  0  0  0  0  0  0  0  0  0
   -1.0532   -4.1078   12.5057 C   0  0  0  0  0  0  0  0  0  0  0  0
   -0.6506   -5.4065   12.7656 C   0  0  0  0  0  0  0  0  0  0  0  0
   -0.5269   -6.3286   11.7339 C   0  0  0  0  0  0  0  0  0  0  0  0
   -0.1291   -7.7515   12.0027 C   0  0  0  0  0  0  0  0  0  0  0  0
   -1.3636   -8.6553   12.0267 C   0  0  0  0  0  0  0  0  0  0  0  0
   -0.8303   -5.9277   10.4425 C   0  0  0  0  0  0  0  0  0  0  0  0
   -2.2826   -5.0232    7.8965 C   0  0  0  0  0  0  0  0  0  0  0  0
   -2.2673   -4.3501    6.2700 S   0  0  0  0  0  0  0  0  0  0  0  0
   -1.3555   -2.9905    6.8186 C   0  0  0  0  0  0  0  0  0  0  0  0
   -0.8017   -1.8411    6.2491 C   0  0  0  0  0  0  0  0  0  0  0  0
   -0.7317   -1.2537    5.0092 N   0  0  0  0  0  0  0  0  0  0  0  0
    0.0098   -0.0964    5.1555 C   0  0  0  0  0  0  0  0  0  0  0  0
    0.4660    0.8325    4.1974 C   0  0  0  0  0  0  0  0  0  0  0  0
    0.4819    0.7725    2.8157 N   0  0  0  0  0  0  0  0  0  0  0  0
    0.9289    1.9908    2.3688 C   0  0  0  0  0  0  0  0  0  0  0  0
    1.1705    2.6209    1.1413 C   0  0  0  0  0  0  0  0  0  0  0  0
    1.0761    2.2008   -0.5280 S   0  0  0  0  0  0  0  0  0  0  0  0
    0.6733   -0.4188    2.0136 C   0  0  0  0  0  0  0  0  0  0  0  0
    2.1531   -0.6352    1.7033 C   0  0  0  0  0  0  0  0  0  0  0  0
   -1.7710   -1.4834    4.0254 C   0  0  0  0  0  0  0  0  0  0  0  0
   -3.1510   -1.1428    4.5873 C   0  0  0  0  0  0  0  0  0  0  0  0
   -2.9951   -6.2337    8.0741 C   0  0  0  0  0  0  0  0  0  0  0  0
   -3.1904   -7.4378    6.6329 Se  0  0  0  0  0  2  0  0  0  0  0  0
   -4.1899   -8.5701    7.7887 C   0  0  0  0  0  0  0  0  0  0  0  0
   -4.2918   -7.9623    9.0630 C   0  0  0  0  0  0  0  0  0  0  0  0
   -4.9627   -8.3476   10.2480 C   0  0  0  0  0  0  0  0  0  0  0  0
   -4.8607   -7.4233   11.2399 C   0  0  0  0  0  0  0  0  0  0  0  0
   -5.4741   -7.4720   12.5942 C   0  0  0  0  0  0  0  0  0  0  0  0
   -6.7199   -6.5850   12.6629 C   0  0  0  0  0  0  0  0  0  0  0  0
   -3.9255   -6.0253   10.7724 S   0  0  0  0  0  0  0  0  0  0  0  0
   -3.6474   -6.7127    9.1998 C   0  0  0  0  0  0  0  0  0  0  0  0
   -4.7782   -9.7954    7.5214 C   0  0  0  0  0  0  0  0  0  0  0  0
   -4.8171  -10.5384    6.3514 C   0  0  0  0  0  0  0  0  0  0  0  0
   -4.1969  -10.1466    5.1053 C   0  0  0  0  0  0  0  0  0  0  0  0
   -3.5497   -9.1270    4.8796 O   0  0  0  0  0  0  0  0  0  0  0  0
   -4.4908  -11.2212    4.1361 C   0  0  0  0  0  0  0  0  0  0  0  0
   -4.1233  -11.3174    2.8114 C   0  0  0  0  0  0  0  0  0  0  0  0
   -4.5400  -12.4473    2.1183 C   0  0  0  0  0  0  0  0  0  0  0  0
   -4.0659  -12.6365    0.2872 Br  0  0  0  0  0  0  0  0  0  0  0  0
   -5.2935  -13.4393    2.7271 C   0  0  0  0  0  0  0  0  0  0  0  0
   -5.6576  -13.3309    4.0631 C   0  0  0  0  0  0  0  0  0  0  0  0
   -5.2546  -12.2141    4.7767 C   0  0  0  0  0  0  0  0  0  0  0  0
   -5.4721  -11.8097    6.1690 C   0  0  0  0  0  0  0  0  0  0  0  0
   -6.1784  -12.5332    7.0999 C   0  0  0  0  0  0  0  0  0  0  0  0
   -6.3948  -12.1511    8.4386 C   0  0  0  0  0  0  0  0  0  0  0  0
   -6.6190  -11.9051    9.5393 N   0  0  0  0  0  0  0  0  0  0  0  0
   -6.7887  -13.7760    6.8371 C   0  0  0  0  0  0  0  0  0  0  0  0
   -7.3123  -14.7870    6.6873 N   0  0  0  0  0  0  0  0  0  0  0  0
    1.3037    4.8707   -8.7358 H   0  0  0  0  0  0  0  0  0  0  0  0
    5.2212    0.1406   -9.9972 H   0  0  0  0  0  0  0  0  0  0  0  0
    6.2673   -1.2421  -11.7650 H   0  0  0  0  0  0  0  0  0  0  0  0
    6.5013   -1.8468  -14.1614 H   0  0  0  0  0  0  0  0  0  0  0  0
    3.6220    1.1167  -15.2254 H   0  0  0  0  0  0  0  0  0  0  0  0
    2.5776    2.4983  -13.5063 H   0  0  0  0  0  0  0  0  0  0  0  0
    3.4211    6.5736   -7.3145 H   0  0  0  0  0  0  0  0  0  0  0  0
    4.1714    7.8386   -9.2761 H   0  0  0  0  0  0  0  0  0  0  0  0
    3.7281    9.2670  -11.1265 H   0  0  0  0  0  0  0  0  0  0  0  0
    2.3369    8.6257  -12.0058 H   0  0  0  0  0  0  0  0  0  0  0  0
    2.1929   10.1481  -11.1371 H   0  0  0  0  0  0  0  0  0  0  0  0
    0.1239    8.8209  -10.2004 H   0  0  0  0  0  0  0  0  0  0  0  0
   -0.6367    7.5364   -8.2546 H   0  0  0  0  0  0  0  0  0  0  0  0
   -1.1514    4.8865   -5.5187 H   0  0  0  0  0  0  0  0  0  0  0  0
   -2.9382    5.8260   -4.1162 H   0  0  0  0  0  0  0  0  0  0  0  0
   -3.2894    7.8868   -2.3582 H   0  0  0  0  0  0  0  0  0  0  0  0
   -4.2485    8.2243   -3.7936 H   0  0  0  0  0  0  0  0  0  0  0  0
   -3.1432    9.4524   -3.1669 H   0  0  0  0  0  0  0  0  0  0  0  0
   -1.1939    9.7004   -4.4829 H   0  0  0  0  0  0  0  0  0  0  0  0
    0.6029    8.7636   -5.8724 H   0  0  0  0  0  0  0  0  0  0  0  0
    5.5349    0.8606   -3.3889 H   0  0  0  0  0  0  0  0  0  0  0  0
    5.7738   -1.0247   -4.9444 H   0  0  0  0  0  0  0  0  0  0  0  0
    3.0174   -2.9648   -6.3181 H   0  0  0  0  0  0  0  0  0  0  0  0
    3.8189   -1.8376   -7.4090 H   0  0  0  0  0  0  0  0  0  0  0  0
    4.7780   -2.7784   -6.2645 H   0  0  0  0  0  0  0  0  0  0  0  0
    1.5633   -1.0104   -5.6223 H   0  0  0  0  0  0  0  0  0  0  0  0
    1.3170    0.8656   -4.0505 H   0  0  0  0  0  0  0  0  0  0  0  0
    4.3854    4.3227   -1.7730 H   0  0  0  0  0  0  0  0  0  0  0  0
    5.6303    4.4688    0.3214 H   0  0  0  0  0  0  0  0  0  0  0  0
    6.9341    3.2680    2.0679 H   0  0  0  0  0  0  0  0  0  0  0  0
    6.6275    1.5525    2.3806 H   0  0  0  0  0  0  0  0  0  0  0  0
    5.4595    2.7701    2.8929 H   0  0  0  0  0  0  0  0  0  0  0  0
    5.1474    0.2749    0.9216 H   0  0  0  0  0  0  0  0  0  0  0  0
    3.8898    0.1195   -1.1831 H   0  0  0  0  0  0  0  0  0  0  0  0
    3.8289    5.7242    1.4348 H   0  0  0  0  0  0  0  0  0  0  0  0
    4.5322    8.0869    1.4346 H   0  0  0  0  0  0  0  0  0  0  0  0
    3.3204    9.7370    0.0674 H   0  0  0  0  0  0  0  0  0  0  0  0
    1.1867   10.2957   -1.0776 H   0  0  0  0  0  0  0  0  0  0  0  0
    0.1531    8.9996   -1.7064 H   0  0  0  0  0  0  0  0  0  0  0  0
    1.8599    8.4412   -3.4106 H   0  0  0  0  0  0  0  0  0  0  0  0
    2.9257    9.7022   -2.7827 H   0  0  0  0  0  0  0  0  0  0  0  0
    1.3933   10.1399   -3.5447 H   0  0  0  0  0  0  0  0  0  0  0  0
    0.6222    6.6953   -1.2087 H   0  0  0  0  0  0  0  0  0  0  0  0
   -1.6862   -2.7063   11.0156 H   0  0  0  0  0  0  0  0  0  0  0  0
   -1.1343   -3.3974   13.3149 H   0  0  0  0  0  0  0  0  0  0  0  0
   -0.4221   -5.7064   13.7782 H   0  0  0  0  0  0  0  0  0  0  0  0
    0.5528   -8.0979   11.2231 H   0  0  0  0  0  0  0  0  0  0  0  0
    0.3864   -7.8183   12.9623 H   0  0  0  0  0  0  0  0  0  0  0  0
   -1.8739   -8.6314   11.0661 H   0  0  0  0  0  0  0  0  0  0  0  0
   -2.0618   -8.3232   12.7922 H   0  0  0  0  0  0  0  0  0  0  0  0
   -1.0792   -9.6829   12.2396 H   0  0  0  0  0  0  0  0  0  0  0  0
   -0.7237   -6.6302    9.6272 H   0  0  0  0  0  0  0  0  0  0  0  0
    0.1109   -0.3039    1.0815 H   0  0  0  0  0  0  0  0  0  0  0  0
    0.3037   -1.2846    2.5596 H   0  0  0  0  0  0  0  0  0  0  0  0
    2.5515    0.1918    1.1226 H   0  0  0  0  0  0  0  0  0  0  0  0
    2.7200   -0.7181    2.6285 H   0  0  0  0  0  0  0  0  0  0  0  0
    2.2765   -1.5518    1.1333 H   0  0  0  0  0  0  0  0  0  0  0  0
   -1.7427   -2.5351    3.7227 H   0  0  0  0  0  0  0  0  0  0  0  0
   -1.5877   -0.8480    3.1608 H   0  0  0  0  0  0  0  0  0  0  0  0
   -3.4039   -1.7889    5.4229 H   0  0  0  0  0  0  0  0  0  0  0  0
   -3.9003   -1.2741    3.8117 H   0  0  0  0  0  0  0  0  0  0  0  0
   -3.1735   -0.1087    4.9248 H   0  0  0  0  0  0  0  0  0  0  0  0
   -5.5030   -9.2702   10.3668 H   0  0  0  0  0  0  0  0  0  0  0  0
   -4.7493   -7.1274   13.3357 H   0  0  0  0  0  0  0  0  0  0  0  0
   -5.7447   -8.5041   12.8240 H   0  0  0  0  0  0  0  0  0  0  0  0
   -7.1573   -6.6306   13.6566 H   0  0  0  0  0  0  0  0  0  0  0  0
   -6.4603   -5.5519   12.4429 H   0  0  0  0  0  0  0  0  0  0  0  0
   -7.4610   -6.9187   11.9405 H   0  0  0  0  0  0  0  0  0  0  0  0
   -5.2851  -10.2282    8.3742 H   0  0  0  0  0  0  0  0  0  0  0  0
   -3.5375  -10.5433    2.3409 H   0  0  0  0  0  0  0  0  0  0  0  0
   -5.5999  -14.3032    2.1576 H   0  0  0  0  0  0  0  0  0  0  0  0
   -6.2432  -14.1142    4.5153 H   0  0  0  0  0  0  0  0  0  0  0  0
  1  2  2  0  0  0  0
  2  3  1  0  0  0  0
  3  4  2  0  0  0  0
  3  5  1  0  0  0  0
  5  6  2  0  0  0  0
  6  7  1  0  0  0  0
  7  8  2  0  0  0  0
  8  9  1  0  0  0  0
  9 10  2  0  0  0  0
 10 11  1  0  0  0  0
 10 12  1  0  0  0  0
 12 13  2  0  0  0  0
 13 14  1  0  0  0  0
 14 15  2  0  0  0  0
 15 16  1  0  0  0  0
 16 17  2  0  0  0  0
 17 18  1  0  0  0  0
 18 19  3  0  0  0  0
 17 20  1  0  0  0  0
 20 21  3  0  0  0  0
  1 22  1  0  0  0  0
 22 23  2  0  0  0  0
 23 24  1  0  0  0  0
 24 25  1  0  0  0  0
 25 26  2  0  0  0  0
 26 27  1  0  0  0  0
 27 28  2  0  0  0  0
 28 29  1  0  0  0  0
 28 30  1  0  0  0  0
 30 31  2  0  0  0  0
 24 32  1  0  0  0  0
 32 33  2  0  0  0  0
 33 34  1  0  0  0  0
 34 35  2  0  0  0  0
 35 36  1  0  0  0  0
 35 37  1  0  0  0  0
 37 38  2  0  0  0  0
 23 39  1  0  0  0  0
 39 40  1  0  0  0  0
 40 41  1  0  0  0  0
 41 42  2  0  0  0  0
 42 43  1  0  0  0  0
 43 44  1  0  0  0  0
 44 45  2  0  0  0  0
 45 46  1  0  0  0  0
 46 47  2  0  0  0  0
 47 48  1  0  0  0  0
 47 49  1  0  0  0  0
 49 50  2  0  0  0  0
 43 51  1  0  0  0  0
 51 52  2  0  0  0  0
 52 53  1  0  0  0  0
 53 54  2  0  0  0  0
 54 55  1  0  0  0  0
 54 56  1  0  0  0  0
 56 57  2  0  0  0  0
 42 58  1  0  0  0  0
 58 59  1  0  0  0  0
 41 60  1  0  0  0  0
 60 61  2  0  0  0  0
 61 62  1  0  0  0  0
 62 63  2  0  0  0  0
 63 64  1  0  0  0  0
 64 65  2  0  0  0  0
 65 66  1  0  0  0  0
 66 67  1  0  0  0  0
 67 68  1  0  0  0  0
 66 69  2  0  0  0  0
 61 70  1  0  0  0  0
 70 71  1  0  0  0  0
 71 72  1  0  0  0  0
 72 73  1  0  0  0  0
 73 74  1  0  0  0  0
 74 75  1  0  0  0  0
 75 76  2  0  0  0  0
 76 77  1  0  0  0  0
 77 78  1  0  0  0  0
 75 79  1  0  0  0  0
 79 80  1  0  0  0  0
 80 81  1  0  0  0  0
 81 82  1  0  0  0  0
 82 83  1  0  0  0  0
 83 84  1  0  0  0  0
 84 85  2  0  0  0  0
 85 86  1  0  0  0  0
 86 87  2  0  0  0  0
 87 88  1  0  0  0  0
 88 89  1  0  0  0  0
 89 90  1  0  0  0  0
 88 91  2  0  0  0  0
 83 92  2  0  0  0  0
 92 93  1  0  0  0  0
 93 94  1  0  0  0  0
 94 95  1  0  0  0  0
 95 96  1  0  0  0  0
 96 97  1  0  0  0  0
 97 98  1  0  0  0  0
 98 99  1  0  0  0  0
 99100  1  0  0  0  0
100101  1  0  0  0  0
101102  1  0  0  0  0
 99103  1  0  0  0  0
103104  1  0  0  0  0
 96105  1  0  0  0  0
105106  1  0  0  0  0
 92107  1  0  0  0  0
107108  1  0  0  0  0
108109  1  0  0  0  0
109110  2  0  0  0  0
110111  1  0  0  0  0
111112  2  0  0  0  0
112113  1  0  0  0  0
113114  1  0  0  0  0
112115  1  0  0  0  0
115116  1  0  0  0  0
109117  1  0  0  0  0
117118  2  0  0  0  0
118119  1  0  0  0  0
119120  2  0  0  0  0
119121  1  0  0  0  0
121122  2  0  0  0  0
122123  1  0  0  0  0
123124  1  0  0  0  0
123125  2  0  0  0  0
125126  1  0  0  0  0
126127  2  0  0  0  0
127128  1  0  0  0  0
128129  2  0  0  0  0
129130  1  0  0  0  0
130131  3  0  0  0  0
129132  1  0  0  0  0
132133  3  0  0  0  0
 16  2  1  0  0  0  0
 59 22  1  0  0  0  0
102 60  1  0  0  0  0
116107  2  0  0  0  0
128118  1  0  0  0  0
 15  5  1  0  0  0  0
 31 25  1  0  0  0  0
 38 32  1  0  0  0  0
 58 39  2  0  0  0  0
 69 62  1  0  0  0  0
101 70  2  0  0  0  0
116110  1  0  0  0  0
127121  1  0  0  0  0
 13  7  1  0  0  0  0
 50 44  1  0  0  0  0
 57 51  1  0  0  0  0
100 72  2  0  0  0  0
 98 73  2  0  0  0  0
 78 74  2  0  0  0  0
 97 79  2  0  0  0  0
 95 80  2  0  0  0  0
 94 82  2  0  0  0  0
 91 84  1  0  0  0  0
  1134  1  0  0  0  0
  6135  1  0  0  0  0
  8136  1  0  0  0  0
  9137  1  0  0  0  0
 12138  1  0  0  0  0
 14139  1  0  0  0  0
 26140  1  0  0  0  0
 27141  1  0  0  0  0
 29142  1  0  0  0  0
 29143  1  0  0  0  0
 29144  1  0  0  0  0
 30145  1  0  0  0  0
 31146  1  0  0  0  0
 33147  1  0  0  0  0
 34148  1  0  0  0  0
 36149  1  0  0  0  0
 36150  1  0  0  0  0
 36151  1  0  0  0  0
 37152  1  0  0  0  0
 38153  1  0  0  0  0
 45154  1  0  0  0  0
 46155  1  0  0  0  0
 48156  1  0  0  0  0
 48157  1  0  0  0  0
 48158  1  0  0  0  0
 49159  1  0  0  0  0
 50160  1  0  0  0  0
 52161  1  0  0  0  0
 53162  1  0  0  0  0
 55163  1  0  0  0  0
 55164  1  0  0  0  0
 55165  1  0  0  0  0
 56166  1  0  0  0  0
 57167  1  0  0  0  0
 63168  1  0  0  0  0
 64169  1  0  0  0  0
 65170  1  0  0  0  0
 67171  1  0  0  0  0
 67172  1  0  0  0  0
 68173  1  0  0  0  0
 68174  1  0  0  0  0
 68175  1  0  0  0  0
 69176  1  0  0  0  0
 85177  1  0  0  0  0
 86178  1  0  0  0  0
 87179  1  0  0  0  0
 89180  1  0  0  0  0
 89181  1  0  0  0  0
 90182  1  0  0  0  0
 90183  1  0  0  0  0
 90184  1  0  0  0  0
 91185  1  0  0  0  0
103186  1  0  0  0  0
103187  1  0  0  0  0
104188  1  0  0  0  0
104189  1  0  0  0  0
104190  1  0  0  0  0
105191  1  0  0  0  0
105192  1  0  0  0  0
106193  1  0  0  0  0
106194  1  0  0  0  0
106195  1  0  0  0  0
111196  1  0  0  0  0
113197  1  0  0  0  0
113198  1  0  0  0  0
114199  1  0  0  0  0
114200  1  0  0  0  0
114201  1  0  0  0  0
117202  1  0  0  0  0
122203  1  0  0  0  0
125204  1  0  0  0  0
126205  1  0  0  0  0
M  END
