
  xtb     02072205573D
 energy: -492.144186912695 gnorm: 0.000297830807 xtb: 6.4.1 (unknown)
313343  0     0  0            999 V2000
   -3.6105    2.8952  -14.4868 C   0  0  0  0  0  0  0  0  0  0  0  0
   -2.8715    3.3087  -15.5816 C   0  0  0  0  0  0  0  0  0  0  0  0
   -1.6632    4.1371  -15.4777 C   0  0  0  0  0  0  0  0  0  0  0  0
   -1.1191    4.5324  -14.4620 O   0  0  0  0  0  0  0  0  0  0  0  0
   -1.3109    4.5013  -16.8666 C   0  0  0  0  0  0  0  0  0  0  0  0
   -0.2794    5.2695  -17.3159 C   0  0  0  0  0  0  0  0  0  0  0  0
   -0.1286    5.4759  -18.7072 C   0  0  0  0  0  0  0  0  0  0  0  0
    0.9225    6.2566  -19.2274 C   0  0  0  0  0  0  0  0  0  0  0  0
    1.0551    6.4548  -20.5744 C   0  0  0  0  0  0  0  0  0  0  0  0
    0.1257    5.8640  -21.4392 C   0  0  0  0  0  0  0  0  0  0  0  0
    0.2719    6.0685  -22.7635 F   0  0  0  0  0  0  0  0  0  0  0  0
   -0.9113    5.0961  -20.9871 C   0  0  0  0  0  0  0  0  0  0  0  0
   -1.0631    4.8836  -19.6036 C   0  0  0  0  0  0  0  0  0  0  0  0
   -2.1279    4.0947  -19.1048 C   0  0  0  0  0  0  0  0  0  0  0  0
   -2.2466    3.9041  -17.7565 C   0  0  0  0  0  0  0  0  0  0  0  0
   -3.2082    3.1424  -16.9633 C   0  0  0  0  0  0  0  0  0  0  0  0
   -4.1586    2.2812  -17.4621 C   0  0  0  0  0  0  0  0  0  0  0  0
   -4.3705    2.0534  -18.8322 C   0  0  0  0  0  0  0  0  0  0  0  0
   -4.5705    1.8158  -19.9392 N   0  0  0  0  0  0  0  0  0  0  0  0
   -4.9712    1.4597  -16.6585 C   0  0  0  0  0  0  0  0  0  0  0  0
   -5.6411    0.7392  -16.0643 N   0  0  0  0  0  0  0  0  0  0  0  0
   -3.1177    2.6896  -13.2012 C   0  0  0  0  0  0  0  0  0  0  0  0
   -1.8125    2.4042  -12.7362 C   0  0  0  0  0  0  0  0  0  0  0  0
   -0.7270    2.0830  -13.4958 N   0  0  0  0  0  0  0  0  0  0  0  0
   -0.8277    1.5320  -14.7808 C   0  0  0  0  0  0  0  0  0  0  0  0
   -1.8011    0.5818  -15.0878 C   0  0  0  0  0  0  0  0  0  0  0  0
   -1.9006    0.0807  -16.3681 C   0  0  0  0  0  0  0  0  0  0  0  0
   -1.0411    0.5058  -17.3793 C   0  0  0  0  0  0  0  0  0  0  0  0
   -1.2000   -0.0110  -18.7742 C   0  0  0  0  0  0  0  0  0  0  0  0
   -0.0486    1.4207  -17.0553 C   0  0  0  0  0  0  0  0  0  0  0  0
    0.0655    1.9277  -15.7740 C   0  0  0  0  0  0  0  0  0  0  0  0
    0.5660    2.2692  -12.9586 C   0  0  0  0  0  0  0  0  0  0  0  0
    0.9101    3.4751  -12.3563 C   0  0  0  0  0  0  0  0  0  0  0  0
    2.1709    3.6382  -11.8185 C   0  0  0  0  0  0  0  0  0  0  0  0
    3.1111    2.6152  -11.8698 C   0  0  0  0  0  0  0  0  0  0  0  0
    4.4612    2.7860  -11.2448 C   0  0  0  0  0  0  0  0  0  0  0  0
    2.7624    1.4244  -12.4964 C   0  0  0  0  0  0  0  0  0  0  0  0
    1.5047    1.2466  -13.0387 C   0  0  0  0  0  0  0  0  0  0  0  0
   -1.7931    2.3660  -11.3242 C   0  0  0  0  0  0  0  0  0  0  0  0
   -0.5587    2.0320  -10.1556 S   0  0  0  0  0  0  0  0  0  0  0  0
   -1.7252    2.1724   -8.8481 C   0  0  0  0  0  0  0  0  0  0  0  0
   -3.0180    2.4006   -9.3064 C   0  0  0  0  0  0  0  0  0  0  0  0
   -4.1639    2.4254   -8.5332 N   0  0  0  0  0  0  0  0  0  0  0  0
   -4.2775    1.6365   -7.3802 C   0  0  0  0  0  0  0  0  0  0  0  0
   -4.9336    2.1347   -6.2549 C   0  0  0  0  0  0  0  0  0  0  0  0
   -4.9452    1.4109   -5.0811 C   0  0  0  0  0  0  0  0  0  0  0  0
   -4.3010    0.1819   -4.9859 C   0  0  0  0  0  0  0  0  0  0  0  0
   -4.2681   -0.5499   -3.6793 C   0  0  0  0  0  0  0  0  0  0  0  0
   -3.6909   -0.3309   -6.1230 C   0  0  0  0  0  0  0  0  0  0  0  0
   -3.6889    0.3757   -7.3106 C   0  0  0  0  0  0  0  0  0  0  0  0
   -5.2150    3.2767   -8.9136 C   0  0  0  0  0  0  0  0  0  0  0  0
   -4.9472    4.5520   -9.4032 C   0  0  0  0  0  0  0  0  0  0  0  0
   -5.9834    5.3771   -9.7939 C   0  0  0  0  0  0  0  0  0  0  0  0
   -7.3052    4.9624   -9.6972 C   0  0  0  0  0  0  0  0  0  0  0  0
   -8.4256    5.8512  -10.1424 C   0  0  0  0  0  0  0  0  0  0  0  0
   -7.5635    3.6913   -9.1958 C   0  0  0  0  0  0  0  0  0  0  0  0
   -6.5371    2.8531   -8.8112 C   0  0  0  0  0  0  0  0  0  0  0  0
   -3.0308    2.5292  -10.7164 C   0  0  0  0  0  0  0  0  0  0  0  0
   -4.2905    2.7487  -11.8734 S   0  0  0  0  0  0  0  0  0  0  0  0
   -1.2586    1.9690   -7.5168 C   0  0  0  0  0  0  0  0  0  0  0  0
   -1.8715    2.8969   -6.1592 S   0  0  0  0  0  0  0  0  0  0  0  0
   -0.9308    1.9492   -5.0852 C   0  0  0  0  0  0  0  0  0  0  0  0
   -0.7565    1.7993   -3.6886 C   0  0  0  0  0  0  0  0  0  0  0  0
    0.1465    0.7677   -3.4573 C   0  0  0  0  0  0  0  0  0  0  0  0
    0.6169    0.1590   -4.7571 C   0  0  0  0  0  0  0  0  0  0  0  0
   -0.1371    1.0176   -5.7471 C   0  0  0  0  0  0  0  0  0  0  0  0
   -0.3147    1.0401   -7.1257 C   0  0  0  0  0  0  0  0  0  0  0  0
    2.1252    0.2671   -4.8466 C   0  0  0  0  0  0  0  0  0  0  0  0
    2.7428    1.2855   -5.5574 C   0  0  0  0  0  0  0  0  0  0  0  0
    4.1225    1.3767   -5.5887 C   0  0  0  0  0  0  0  0  0  0  0  0
    4.9152    0.4647   -4.9057 C   0  0  0  0  0  0  0  0  0  0  0  0
    6.4131    0.5420   -4.9810 C   0  0  0  0  0  0  0  0  0  0  0  0
    6.9282   -0.2454   -6.1876 C   0  0  0  0  0  0  0  0  0  0  0  0
    4.2898   -0.5487   -4.1903 C   0  0  0  0  0  0  0  0  0  0  0  0
    2.9125   -0.6479   -4.1589 C   0  0  0  0  0  0  0  0  0  0  0  0
    0.1524   -1.2736   -4.9503 C   0  0  0  0  0  0  0  0  0  0  0  0
   -0.8026   -1.8559   -4.1310 C   0  0  0  0  0  0  0  0  0  0  0  0
   -1.2385   -3.1465   -4.3712 C   0  0  0  0  0  0  0  0  0  0  0  0
   -0.7414   -3.8830   -5.4371 C   0  0  0  0  0  0  0  0  0  0  0  0
   -1.2629   -5.2613   -5.7254 C   0  0  0  0  0  0  0  0  0  0  0  0
   -2.5213   -5.1843   -6.5928 C   0  0  0  0  0  0  0  0  0  0  0  0
    0.2126   -3.2931   -6.2569 C   0  0  0  0  0  0  0  0  0  0  0  0
    0.6564   -2.0072   -6.0172 C   0  0  0  0  0  0  0  0  0  0  0  0
    0.3364    0.5512   -2.0944 C   0  0  0  0  0  0  0  0  0  0  0  0
    1.2734   -0.5613   -1.1435 S   0  0  0  0  0  0  0  0  0  0  0  0
    0.5848    0.1145    0.2976 C   0  0  0  0  0  0  0  0  0  0  0  0
    0.7049   -0.1394    1.6995 C   0  0  0  0  0  0  0  0  0  0  0  0
    1.4591   -1.0782    2.3985 C   0  0  0  0  0  0  0  0  0  0  0  0
    1.3498   -1.0796    3.7694 C   0  0  0  0  0  0  0  0  0  0  0  0
    2.0325   -1.9999    4.7715 C   0  0  0  0  0  0  0  0  0  0  0  0
    1.6218   -3.4548    4.6519 C   0  0  0  0  0  0  0  0  0  0  0  0
    2.3523   -4.4219    5.3328 C   0  0  0  0  0  0  0  0  0  0  0  0
    1.9766   -5.7500    5.2844 C   0  0  0  0  0  0  0  0  0  0  0  0
    0.8585   -6.1486    4.5624 C   0  0  0  0  0  0  0  0  0  0  0  0
    0.4817   -7.5995    4.4709 C   0  0  0  0  0  0  0  0  0  0  0  0
    1.2080   -8.2683    3.3021 C   0  0  0  0  0  0  0  0  0  0  0  0
    0.1263   -5.1777    3.8939 C   0  0  0  0  0  0  0  0  0  0  0  0
    0.4963   -3.8453    3.9415 C   0  0  0  0  0  0  0  0  0  0  0  0
    3.5326   -1.8259    4.6275 C   0  0  0  0  0  0  0  0  0  0  0  0
    4.2256   -2.5534    3.6676 C   0  0  0  0  0  0  0  0  0  0  0  0
    5.5842   -2.3720    3.4943 C   0  0  0  0  0  0  0  0  0  0  0  0
    6.2879   -1.4616    4.2723 C   0  0  0  0  0  0  0  0  0  0  0  0
    7.7566   -1.2369    4.0537 C   0  0  0  0  0  0  0  0  0  0  0  0
    7.9797   -0.1542    2.9960 C   0  0  0  0  0  0  0  0  0  0  0  0
    5.5898   -0.7313    5.2239 C   0  0  0  0  0  0  0  0  0  0  0  0
    4.2293   -0.9067    5.3989 C   0  0  0  0  0  0  0  0  0  0  0  0
    1.4864   -1.4646    6.0718 C   0  0  0  0  0  0  0  0  0  0  0  0
    0.6485   -0.3889    5.8294 C   0  0  0  0  0  0  0  0  0  0  0  0
    0.5300   -0.1358    4.4300 C   0  0  0  0  0  0  0  0  0  0  0  0
   -0.2360    0.7930    3.7312 C   0  0  0  0  0  0  0  0  0  0  0  0
   -0.1461    0.7780    2.3595 C   0  0  0  0  0  0  0  0  0  0  0  0
   -0.8925    1.6432    1.3558 C   0  0  0  0  0  0  0  0  0  0  0  0
   -2.3780    1.3475    1.4794 C   0  0  0  0  0  0  0  0  0  0  0  0
   -3.1252    1.9642    2.4747 C   0  0  0  0  0  0  0  0  0  0  0  0
   -4.4745    1.6946    2.6116 C   0  0  0  0  0  0  0  0  0  0  0  0
   -5.1190    0.8144    1.7526 C   0  0  0  0  0  0  0  0  0  0  0  0
   -6.5874    0.5241    1.8836 C   0  0  0  0  0  0  0  0  0  0  0  0
   -6.8337   -0.8839    2.4274 C   0  0  0  0  0  0  0  0  0  0  0  0
   -4.3656    0.1928    0.7656 C   0  0  0  0  0  0  0  0  0  0  0  0
   -3.0132    0.4457    0.6362 C   0  0  0  0  0  0  0  0  0  0  0  0
   -0.6108    3.1281    1.4703 C   0  0  0  0  0  0  0  0  0  0  0  0
    0.4842    3.6132    2.1703 C   0  0  0  0  0  0  0  0  0  0  0  0
    0.7409    4.9720    2.2110 C   0  0  0  0  0  0  0  0  0  0  0  0
   -0.0755    5.8751    1.5445 C   0  0  0  0  0  0  0  0  0  0  0  0
    0.1809    7.3524    1.6269 C   0  0  0  0  0  0  0  0  0  0  0  0
   -0.5831    7.9628    2.8037 C   0  0  0  0  0  0  0  0  0  0  0  0
   -1.1626    5.3819    0.8340 C   0  0  0  0  0  0  0  0  0  0  0  0
   -1.4276    4.0271    0.7948 C   0  0  0  0  0  0  0  0  0  0  0  0
   -0.3113    1.1395    0.0619 C   0  0  0  0  0  0  0  0  0  0  0  0
   -0.4509    1.4062   -1.2995 C   0  0  0  0  0  0  0  0  0  0  0  0
   -1.4071    2.5063   -2.2478 S   0  0  0  0  0  0  0  0  0  0  0  0
   -0.0232    0.2599    7.2658 S   0  0  0  0  0  0  0  0  0  0  0  0
    0.7780   -0.9791    8.2126 C   0  0  0  0  0  0  0  0  0  0  0  0
    1.5623   -1.8021    7.4173 C   0  0  0  0  0  0  0  0  0  0  0  0
    0.6566   -1.0739    9.6239 C   0  0  0  0  0  0  0  0  0  0  0  0
   -0.2460   -0.4943   10.5154 C   0  0  0  0  0  0  0  0  0  0  0  0
   -1.3275    0.3149   10.2094 N   0  0  0  0  0  0  0  0  0  0  0  0
   -2.1901    0.0257    9.1479 C   0  0  0  0  0  0  0  0  0  0  0  0
   -2.8359    1.0632    8.4738 C   0  0  0  0  0  0  0  0  0  0  0  0
   -3.6185    0.7928    7.3721 C   0  0  0  0  0  0  0  0  0  0  0  0
   -3.7801   -0.5075    6.9044 C   0  0  0  0  0  0  0  0  0  0  0  0
   -4.5885   -0.7685    5.6707 C   0  0  0  0  0  0  0  0  0  0  0  0
   -3.1637   -1.5377    7.6011 C   0  0  0  0  0  0  0  0  0  0  0  0
   -2.3849   -1.2830    8.7137 C   0  0  0  0  0  0  0  0  0  0  0  0
   -1.6248    1.3596   11.1018 C   0  0  0  0  0  0  0  0  0  0  0  0
   -2.9356    1.6162   11.4937 C   0  0  0  0  0  0  0  0  0  0  0  0
   -3.2043    2.6373   12.3824 C   0  0  0  0  0  0  0  0  0  0  0  0
   -2.1840    3.4209   12.9096 C   0  0  0  0  0  0  0  0  0  0  0  0
   -2.4805    4.5030   13.9015 C   0  0  0  0  0  0  0  0  0  0  0  0
   -0.8788    3.1581   12.5127 C   0  0  0  0  0  0  0  0  0  0  0  0
   -0.5971    2.1455   11.6176 C   0  0  0  0  0  0  0  0  0  0  0  0
    0.0703   -0.8460   11.8493 C   0  0  0  0  0  0  0  0  0  0  0  0
   -0.6131   -0.4667   13.3869 S   0  0  0  0  0  0  0  0  0  0  0  0
    0.5222   -1.5403   14.1968 C   0  0  0  0  0  0  0  0  0  0  0  0
    1.4073   -2.1377   13.2956 C   0  0  0  0  0  0  0  0  0  0  0  0
    2.5561   -2.8515   13.6403 N   0  0  0  0  0  0  0  0  0  0  0  0
    3.7797   -2.2876   13.2525 C   0  0  0  0  0  0  0  0  0  0  0  0
    3.9400   -0.9032   13.2823 C   0  0  0  0  0  0  0  0  0  0  0  0
    5.1363   -0.3314   12.8989 C   0  0  0  0  0  0  0  0  0  0  0  0
    6.2075   -1.1136   12.4863 C   0  0  0  0  0  0  0  0  0  0  0  0
    7.4982   -0.4888   12.0527 C   0  0  0  0  0  0  0  0  0  0  0  0
    6.0411   -2.4933   12.4638 C   0  0  0  0  0  0  0  0  0  0  0  0
    4.8470   -3.0784   12.8335 C   0  0  0  0  0  0  0  0  0  0  0  0
    2.4839   -4.2079   13.9918 C   0  0  0  0  0  0  0  0  0  0  0  0
    1.5959   -5.0602   13.3421 C   0  0  0  0  0  0  0  0  0  0  0  0
    1.5427   -6.3969   13.6894 C   0  0  0  0  0  0  0  0  0  0  0  0
    2.3694   -6.9157   14.6801 C   0  0  0  0  0  0  0  0  0  0  0  0
    2.2720   -8.3608   15.0556 C   0  0  0  0  0  0  0  0  0  0  0  0
    3.2570   -6.0560   15.3171 C   0  0  0  0  0  0  0  0  0  0  0  0
    3.3161   -4.7167   14.9845 C   0  0  0  0  0  0  0  0  0  0  0  0
    1.1461   -1.7101   11.9797 C   0  0  0  0  0  0  0  0  0  0  0  0
    1.8379   -2.0976   10.4454 S   0  0  0  0  0  0  0  0  0  0  0  0
    0.5666   -1.4990   15.6081 C   0  0  0  0  0  0  0  0  0  0  0  0
    0.8465   -2.4766   16.5200 C   0  0  0  0  0  0  0  0  0  0  0  0
    1.3337   -2.0787   17.8683 C   0  0  0  0  0  0  0  0  0  0  0  0
    1.4174   -0.9530   18.2992 O   0  0  0  0  0  0  0  0  0  0  0  0
    1.7117   -3.3486   18.5290 C   0  0  0  0  0  0  0  0  0  0  0  0
    2.3301   -3.5893   19.7425 C   0  0  0  0  0  0  0  0  0  0  0  0
    2.6935   -2.5829   20.5447 F   0  0  0  0  0  0  0  0  0  0  0  0
    2.5867   -4.8941   20.1456 C   0  0  0  0  0  0  0  0  0  0  0  0
    2.2201   -5.9480   19.3267 C   0  0  0  0  0  0  0  0  0  0  0  0
    1.5928   -5.7327   18.1060 C   0  0  0  0  0  0  0  0  0  0  0  0
    1.3408   -4.4310   17.7102 C   0  0  0  0  0  0  0  0  0  0  0  0
    0.7001   -3.9071   16.5018 C   0  0  0  0  0  0  0  0  0  0  0  0
   -0.1308   -4.6278   15.6818 C   0  0  0  0  0  0  0  0  0  0  0  0
   -0.4247   -5.9928   15.8665 C   0  0  0  0  0  0  0  0  0  0  0  0
   -0.7282   -7.0935   15.9933 N   0  0  0  0  0  0  0  0  0  0  0  0
   -0.8730   -4.0642   14.6262 C   0  0  0  0  0  0  0  0  0  0  0  0
   -1.5232   -3.6547   13.7728 N   0  0  0  0  0  0  0  0  0  0  0  0
   -4.6779    2.7552  -14.6095 H   0  0  0  0  0  0  0  0  0  0  0  0
    0.4194    5.7133  -16.6223 H   0  0  0  0  0  0  0  0  0  0  0  0
    1.6263    6.7026  -18.5405 H   0  0  0  0  0  0  0  0  0  0  0  0
    1.8521    7.0525  -20.9875 H   0  0  0  0  0  0  0  0  0  0  0  0
   -1.6086    4.6558  -21.6826 H   0  0  0  0  0  0  0  0  0  0  0  0
   -2.8265    3.6681  -19.8068 H   0  0  0  0  0  0  0  0  0  0  0  0
   -2.4813    0.2403  -14.3220 H   0  0  0  0  0  0  0  0  0  0  0  0
   -2.6646   -0.6495  -16.5918 H   0  0  0  0  0  0  0  0  0  0  0  0
   -2.1132    0.3834  -19.2207 H   0  0  0  0  0  0  0  0  0  0  0  0
   -0.3599    0.2840  -19.3974 H   0  0  0  0  0  0  0  0  0  0  0  0
   -1.2775   -1.0967  -18.7743 H   0  0  0  0  0  0  0  0  0  0  0  0
    0.6393    1.7558  -17.8181 H   0  0  0  0  0  0  0  0  0  0  0  0
    0.8378    2.6441  -15.5375 H   0  0  0  0  0  0  0  0  0  0  0  0
    0.1901    4.2781  -12.3429 H   0  0  0  0  0  0  0  0  0  0  0  0
    2.4317    4.5779  -11.3539 H   0  0  0  0  0  0  0  0  0  0  0  0
    5.2021    2.1616  -11.7385 H   0  0  0  0  0  0  0  0  0  0  0  0
    4.7831    3.8236  -11.2923 H   0  0  0  0  0  0  0  0  0  0  0  0
    4.4196    2.4946  -10.1946 H   0  0  0  0  0  0  0  0  0  0  0  0
    3.4831    0.6215  -12.5550 H   0  0  0  0  0  0  0  0  0  0  0  0
    1.2411    0.3156  -13.5192 H   0  0  0  0  0  0  0  0  0  0  0  0
   -5.4030    3.1059   -6.3005 H   0  0  0  0  0  0  0  0  0  0  0  0
   -5.4377    1.8206   -4.2110 H   0  0  0  0  0  0  0  0  0  0  0  0
   -3.7152    0.0302   -2.9396 H   0  0  0  0  0  0  0  0  0  0  0  0
   -5.2777   -0.6950   -3.2969 H   0  0  0  0  0  0  0  0  0  0  0  0
   -3.7911   -1.5198   -3.7913 H   0  0  0  0  0  0  0  0  0  0  0  0
   -3.1978   -1.2920   -6.0810 H   0  0  0  0  0  0  0  0  0  0  0  0
   -3.2101   -0.0419   -8.1840 H   0  0  0  0  0  0  0  0  0  0  0  0
   -3.9249    4.8953   -9.4688 H   0  0  0  0  0  0  0  0  0  0  0  0
   -5.7595    6.3632  -10.1742 H   0  0  0  0  0  0  0  0  0  0  0  0
   -8.1350    6.8979  -10.0928 H   0  0  0  0  0  0  0  0  0  0  0  0
   -8.6925    5.6231  -11.1750 H   0  0  0  0  0  0  0  0  0  0  0  0
   -9.3096    5.6995   -9.5270 H   0  0  0  0  0  0  0  0  0  0  0  0
   -8.5851    3.3495   -9.1143 H   0  0  0  0  0  0  0  0  0  0  0  0
   -6.7503    1.8645   -8.4320 H   0  0  0  0  0  0  0  0  0  0  0  0
    0.1728    0.3888   -7.8284 H   0  0  0  0  0  0  0  0  0  0  0  0
    2.1454    2.0099   -6.0914 H   0  0  0  0  0  0  0  0  0  0  0  0
    4.5896    2.1742   -6.1494 H   0  0  0  0  0  0  0  0  0  0  0  0
    6.8511    0.1311   -4.0693 H   0  0  0  0  0  0  0  0  0  0  0  0
    6.7263    1.5842   -5.0713 H   0  0  0  0  0  0  0  0  0  0  0  0
    6.5085    0.1555   -7.1077 H   0  0  0  0  0  0  0  0  0  0  0  0
    8.0126   -0.1878   -6.2461 H   0  0  0  0  0  0  0  0  0  0  0  0
    6.6391   -1.2909   -6.1076 H   0  0  0  0  0  0  0  0  0  0  0  0
    4.8877   -1.2673   -3.6483 H   0  0  0  0  0  0  0  0  0  0  0  0
    2.4418   -1.4437   -3.5999 H   0  0  0  0  0  0  0  0  0  0  0  0
   -1.2102   -1.3045   -3.2978 H   0  0  0  0  0  0  0  0  0  0  0  0
   -1.9761   -3.5900   -3.7165 H   0  0  0  0  0  0  0  0  0  0  0  0
   -1.5021   -5.7703   -4.7894 H   0  0  0  0  0  0  0  0  0  0  0  0
   -0.5014   -5.8445   -6.2467 H   0  0  0  0  0  0  0  0  0  0  0  0
   -3.3016   -4.6245   -6.0815 H   0  0  0  0  0  0  0  0  0  0  0  0
   -2.8962   -6.1817   -6.8098 H   0  0  0  0  0  0  0  0  0  0  0  0
   -2.3023   -4.6833   -7.5333 H   0  0  0  0  0  0  0  0  0  0  0  0
    0.6147   -3.8493   -7.0918 H   0  0  0  0  0  0  0  0  0  0  0  0
    1.4076   -1.5680   -6.6576 H   0  0  0  0  0  0  0  0  0  0  0  0
    2.0904   -1.7780    1.8729 H   0  0  0  0  0  0  0  0  0  0  0  0
    3.2264   -4.1305    5.8974 H   0  0  0  0  0  0  0  0  0  0  0  0
    2.5577   -6.4886    5.8184 H   0  0  0  0  0  0  0  0  0  0  0  0
    0.7480   -8.1099    5.3987 H   0  0  0  0  0  0  0  0  0  0  0  0
   -0.5964   -7.6941    4.3260 H   0  0  0  0  0  0  0  0  0  0  0  0
    0.9445   -7.7821    2.3654 H   0  0  0  0  0  0  0  0  0  0  0  0
    2.2852   -8.1943    3.4343 H   0  0  0  0  0  0  0  0  0  0  0  0
    0.9373   -9.3197    3.2364 H   0  0  0  0  0  0  0  0  0  0  0  0
   -0.7502   -5.4650    3.3302 H   0  0  0  0  0  0  0  0  0  0  0  0
   -0.0962   -3.1076    3.4202 H   0  0  0  0  0  0  0  0  0  0  0  0
    3.7003   -3.2775    3.0617 H   0  0  0  0  0  0  0  0  0  0  0  0
    6.1078   -2.9499    2.7457 H   0  0  0  0  0  0  0  0  0  0  0  0
    8.2284   -2.1648    3.7236 H   0  0  0  0  0  0  0  0  0  0  0  0
    8.2274   -0.9282    4.9893 H   0  0  0  0  0  0  0  0  0  0  0  0
    7.5260    0.7824    3.3127 H   0  0  0  0  0  0  0  0  0  0  0  0
    9.0429    0.0104    2.8368 H   0  0  0  0  0  0  0  0  0  0  0  0
    7.5277   -0.4492    2.0516 H   0  0  0  0  0  0  0  0  0  0  0  0
    6.1171   -0.0164    5.8398 H   0  0  0  0  0  0  0  0  0  0  0  0
    3.7088   -0.3259    6.1462 H   0  0  0  0  0  0  0  0  0  0  0  0
   -0.8690    1.4883    4.2603 H   0  0  0  0  0  0  0  0  0  0  0  0
   -2.6521    2.6751    3.1363 H   0  0  0  0  0  0  0  0  0  0  0  0
   -5.0379    2.1883    3.3910 H   0  0  0  0  0  0  0  0  0  0  0  0
   -7.0621    0.6148    0.9032 H   0  0  0  0  0  0  0  0  0  0  0  0
   -7.0487    1.2547    2.5507 H   0  0  0  0  0  0  0  0  0  0  0  0
   -7.9010   -1.0764    2.5087 H   0  0  0  0  0  0  0  0  0  0  0  0
   -6.3847   -0.9942    3.4111 H   0  0  0  0  0  0  0  0  0  0  0  0
   -6.3972   -1.6303    1.7680 H   0  0  0  0  0  0  0  0  0  0  0  0
   -4.8440   -0.4943    0.0820 H   0  0  0  0  0  0  0  0  0  0  0  0
   -2.4535   -0.0602   -0.1365 H   0  0  0  0  0  0  0  0  0  0  0  0
    1.1410    2.9290    2.6873 H   0  0  0  0  0  0  0  0  0  0  0  0
    1.5950    5.3339    2.7659 H   0  0  0  0  0  0  0  0  0  0  0  0
    1.2493    7.5364    1.7573 H   0  0  0  0  0  0  0  0  0  0  0  0
   -0.1390    7.8353    0.7014 H   0  0  0  0  0  0  0  0  0  0  0  0
   -1.6522    7.8019    2.6842 H   0  0  0  0  0  0  0  0  0  0  0  0
   -0.2703    7.5009    3.7376 H   0  0  0  0  0  0  0  0  0  0  0  0
   -0.3971    9.0325    2.8654 H   0  0  0  0  0  0  0  0  0  0  0  0
   -1.8072    6.0659    0.3006 H   0  0  0  0  0  0  0  0  0  0  0  0
   -2.2781    3.6621    0.2368 H   0  0  0  0  0  0  0  0  0  0  0  0
    2.1349   -2.6177    7.8213 H   0  0  0  0  0  0  0  0  0  0  0  0
   -2.6946    2.0808    8.8058 H   0  0  0  0  0  0  0  0  0  0  0  0
   -4.0983    1.6077    6.8494 H   0  0  0  0  0  0  0  0  0  0  0  0
   -4.7248   -1.8358    5.5138 H   0  0  0  0  0  0  0  0  0  0  0  0
   -4.0865   -0.3517    4.7963 H   0  0  0  0  0  0  0  0  0  0  0  0
   -5.5667   -0.2960    5.7509 H   0  0  0  0  0  0  0  0  0  0  0  0
   -3.2882   -2.5583    7.2689 H   0  0  0  0  0  0  0  0  0  0  0  0
   -1.9135   -2.0990    9.2413 H   0  0  0  0  0  0  0  0  0  0  0  0
   -3.7368    1.0065   11.1034 H   0  0  0  0  0  0  0  0  0  0  0  0
   -4.2258    2.8227   12.6814 H   0  0  0  0  0  0  0  0  0  0  0  0
   -1.7559    5.3104   13.8243 H   0  0  0  0  0  0  0  0  0  0  0  0
   -3.4786    4.9071   13.7499 H   0  0  0  0  0  0  0  0  0  0  0  0
   -2.4299    4.1015   14.9142 H   0  0  0  0  0  0  0  0  0  0  0  0
   -0.0710    3.7583   12.9059 H   0  0  0  0  0  0  0  0  0  0  0  0
    0.4215    1.9597   11.3082 H   0  0  0  0  0  0  0  0  0  0  0  0
    3.1259   -0.2765   13.6160 H   0  0  0  0  0  0  0  0  0  0  0  0
    5.2410    0.7436   12.9299 H   0  0  0  0  0  0  0  0  0  0  0  0
    7.6357    0.4829   12.5210 H   0  0  0  0  0  0  0  0  0  0  0  0
    8.3419   -1.1263   12.3072 H   0  0  0  0  0  0  0  0  0  0  0  0
    7.4989   -0.3466   10.9713 H   0  0  0  0  0  0  0  0  0  0  0  0
    6.8581   -3.1225   12.1408 H   0  0  0  0  0  0  0  0  0  0  0  0
    4.7352   -4.1514   12.7904 H   0  0  0  0  0  0  0  0  0  0  0  0
    0.9588   -4.6731   12.5605 H   0  0  0  0  0  0  0  0  0  0  0  0
    0.8478   -7.0505   13.1828 H   0  0  0  0  0  0  0  0  0  0  0  0
    2.4327   -8.9939   14.1845 H   0  0  0  0  0  0  0  0  0  0  0  0
    3.0047   -8.6188   15.8162 H   0  0  0  0  0  0  0  0  0  0  0  0
    1.2735   -8.5728   15.4390 H   0  0  0  0  0  0  0  0  0  0  0  0
    3.9078   -6.4367   16.0914 H   0  0  0  0  0  0  0  0  0  0  0  0
    4.0072   -4.0552   15.4863 H   0  0  0  0  0  0  0  0  0  0  0  0
    0.4313   -0.5098   16.0402 H   0  0  0  0  0  0  0  0  0  0  0  0
    3.0687   -5.0649   21.0953 H   0  0  0  0  0  0  0  0  0  0  0  0
    2.4255   -6.9588   19.6444 H   0  0  0  0  0  0  0  0  0  0  0  0
    1.3228   -6.5681   17.4825 H   0  0  0  0  0  0  0  0  0  0  0  0
  1  2  2  0  0  0  0
  2  3  1  0  0  0  0
  3  4  2  0  0  0  0
  3  5  1  0  0  0  0
  5  6  2  0  0  0  0
  6  7  1  0  0  0  0
  7  8  2  0  0  0  0
  8  9  1  0  0  0  0
  9 10  2  0  0  0  0
 10 11  1  0  0  0  0
 10 12  1  0  0  0  0
 12 13  2  0  0  0  0
 13 14  1  0  0  0  0
 14 15  2  0  0  0  0
 15 16  1  0  0  0  0
 16 17  2  0  0  0  0
 17 18  1  0  0  0  0
 18 19  3  0  0  0  0
 17 20  1  0  0  0  0
 20 21  3  0  0  0  0
  1 22  1  0  0  0  0
 22 23  2  0  0  0  0
 23 24  1  0  0  0  0
 24 25  1  0  0  0  0
 25 26  2  0  0  0  0
 26 27  1  0  0  0  0
 27 28  2  0  0  0  0
 28 29  1  0  0  0  0
 28 30  1  0  0  0  0
 30 31  2  0  0  0  0
 24 32  1  0  0  0  0
 32 33  2  0  0  0  0
 33 34  1  0  0  0  0
 34 35  2  0  0  0  0
 35 36  1  0  0  0  0
 35 37  1  0  0  0  0
 37 38  2  0  0  0  0
 23 39  1  0  0  0  0
 39 40  1  0  0  0  0
 40 41  1  0  0  0  0
 41 42  2  0  0  0  0
 42 43  1  0  0  0  0
 43 44  1  0  0  0  0
 44 45  2  0  0  0  0
 45 46  1  0  0  0  0
 46 47  2  0  0  0  0
 47 48  1  0  0  0  0
 47 49  1  0  0  0  0
 49 50  2  0  0  0  0
 43 51  1  0  0  0  0
 51 52  2  0  0  0  0
 52 53  1  0  0  0  0
 53 54  2  0  0  0  0
 54 55  1  0  0  0  0
 54 56  1  0  0  0  0
 56 57  2  0  0  0  0
 42 58  1  0  0  0  0
 58 59  1  0  0  0  0
 41 60  1  0  0  0  0
 60 61  1  0  0  0  0
 61 62  1  0  0  0  0
 62 63  1  0  0  0  0
 63 64  2  0  0  0  0
 64 65  1  0  0  0  0
 65 66  1  0  0  0  0
 66 67  1  0  0  0  0
 65 68  1  0  0  0  0
 68 69  2  0  0  0  0
 69 70  1  0  0  0  0
 70 71  2  0  0  0  0
 71 72  1  0  0  0  0
 72 73  1  0  0  0  0
 71 74  1  0  0  0  0
 74 75  2  0  0  0  0
 65 76  1  0  0  0  0
 76 77  2  0  0  0  0
 77 78  1  0  0  0  0
 78 79  2  0  0  0  0
 79 80  1  0  0  0  0
 80 81  1  0  0  0  0
 79 82  1  0  0  0  0
 82 83  2  0  0  0  0
 64 84  1  0  0  0  0
 84 85  1  0  0  0  0
 85 86  1  0  0  0  0
 86 87  1  0  0  0  0
 87 88  2  0  0  0  0
 88 89  1  0  0  0  0
 89 90  1  0  0  0  0
 90 91  1  0  0  0  0
 91 92  2  0  0  0  0
 92 93  1  0  0  0  0
 93 94  2  0  0  0  0
 94 95  1  0  0  0  0
 95 96  1  0  0  0  0
 94 97  1  0  0  0  0
 97 98  2  0  0  0  0
 90 99  1  0  0  0  0
 99100  2  0  0  0  0
100101  1  0  0  0  0
101102  2  0  0  0  0
102103  1  0  0  0  0
103104  1  0  0  0  0
102105  1  0  0  0  0
105106  2  0  0  0  0
 90107  1  0  0  0  0
107108  2  0  0  0  0
108109  1  0  0  0  0
109110  1  0  0  0  0
110111  2  0  0  0  0
111112  1  0  0  0  0
112113  1  0  0  0  0
113114  2  0  0  0  0
114115  1  0  0  0  0
115116  2  0  0  0  0
116117  1  0  0  0  0
117118  1  0  0  0  0
116119  1  0  0  0  0
119120  2  0  0  0  0
112121  1  0  0  0  0
121122  2  0  0  0  0
122123  1  0  0  0  0
123124  2  0  0  0  0
124125  1  0  0  0  0
125126  1  0  0  0  0
124127  1  0  0  0  0
127128  2  0  0  0  0
112129  1  0  0  0  0
129130  1  0  0  0  0
130131  1  0  0  0  0
108132  1  0  0  0  0
132133  1  0  0  0  0
133134  2  0  0  0  0
133135  1  0  0  0  0
135136  2  0  0  0  0
136137  1  0  0  0  0
137138  1  0  0  0  0
138139  2  0  0  0  0
139140  1  0  0  0  0
140141  2  0  0  0  0
141142  1  0  0  0  0
141143  1  0  0  0  0
143144  2  0  0  0  0
137145  1  0  0  0  0
145146  2  0  0  0  0
146147  1  0  0  0  0
147148  2  0  0  0  0
148149  1  0  0  0  0
148150  1  0  0  0  0
150151  2  0  0  0  0
136152  1  0  0  0  0
152153  1  0  0  0  0
153154  1  0  0  0  0
154155  2  0  0  0  0
155156  1  0  0  0  0
156157  1  0  0  0  0
157158  2  0  0  0  0
158159  1  0  0  0  0
159160  2  0  0  0  0
160161  1  0  0  0  0
160162  1  0  0  0  0
162163  2  0  0  0  0
156164  1  0  0  0  0
164165  2  0  0  0  0
165166  1  0  0  0  0
166167  2  0  0  0  0
167168  1  0  0  0  0
167169  1  0  0  0  0
169170  2  0  0  0  0
155171  1  0  0  0  0
171172  1  0  0  0  0
154173  1  0  0  0  0
173174  2  0  0  0  0
174175  1  0  0  0  0
175176  2  0  0  0  0
175177  1  0  0  0  0
177178  2  0  0  0  0
178179  1  0  0  0  0
178180  1  0  0  0  0
180181  2  0  0  0  0
181182  1  0  0  0  0
182183  2  0  0  0  0
183184  1  0  0  0  0
184185  2  0  0  0  0
185186  1  0  0  0  0
186187  3  0  0  0  0
185188  1  0  0  0  0
188189  3  0  0  0  0
 16  2  1  0  0  0  0
 59 22  1  0  0  0  0
 67 60  2  0  0  0  0
 75 68  1  0  0  0  0
 83 76  1  0  0  0  0
130 84  2  0  0  0  0
172135  1  0  0  0  0
184174  1  0  0  0  0
 15  5  1  0  0  0  0
 31 25  1  0  0  0  0
 38 32  1  0  0  0  0
 58 39  2  0  0  0  0
 66 62  2  0  0  0  0
129 86  2  0  0  0  0
144138  1  0  0  0  0
151145  1  0  0  0  0
171152  2  0  0  0  0
183177  1  0  0  0  0
 13  7  1  0  0  0  0
 50 44  1  0  0  0  0
 57 51  1  0  0  0  0
131 63  1  0  0  0  0
163157  1  0  0  0  0
170164  1  0  0  0  0
111 87  1  0  0  0  0
120113  1  0  0  0  0
128121  1  0  0  0  0
109 89  2  0  0  0  0
 98 91  1  0  0  0  0
106 99  1  0  0  0  0
134107  1  0  0  0  0
  1190  1  0  0  0  0
  6191  1  0  0  0  0
  8192  1  0  0  0  0
  9193  1  0  0  0  0
 12194  1  0  0  0  0
 14195  1  0  0  0  0
 26196  1  0  0  0  0
 27197  1  0  0  0  0
 29198  1  0  0  0  0
 29199  1  0  0  0  0
 29200  1  0  0  0  0
 30201  1  0  0  0  0
 31202  1  0  0  0  0
 33203  1  0  0  0  0
 34204  1  0  0  0  0
 36205  1  0  0  0  0
 36206  1  0  0  0  0
 36207  1  0  0  0  0
 37208  1  0  0  0  0
 38209  1  0  0  0  0
 45210  1  0  0  0  0
 46211  1  0  0  0  0
 48212  1  0  0  0  0
 48213  1  0  0  0  0
 48214  1  0  0  0  0
 49215  1  0  0  0  0
 50216  1  0  0  0  0
 52217  1  0  0  0  0
 53218  1  0  0  0  0
 55219  1  0  0  0  0
 55220  1  0  0  0  0
 55221  1  0  0  0  0
 56222  1  0  0  0  0
 57223  1  0  0  0  0
 67224  1  0  0  0  0
 69225  1  0  0  0  0
 70226  1  0  0  0  0
 72227  1  0  0  0  0
 72228  1  0  0  0  0
 73229  1  0  0  0  0
 73230  1  0  0  0  0
 73231  1  0  0  0  0
 74232  1  0  0  0  0
 75233  1  0  0  0  0
 77234  1  0  0  0  0
 78235  1  0  0  0  0
 80236  1  0  0  0  0
 80237  1  0  0  0  0
 81238  1  0  0  0  0
 81239  1  0  0  0  0
 81240  1  0  0  0  0
 82241  1  0  0  0  0
 83242  1  0  0  0  0
 88243  1  0  0  0  0
 92244  1  0  0  0  0
 93245  1  0  0  0  0
 95246  1  0  0  0  0
 95247  1  0  0  0  0
 96248  1  0  0  0  0
 96249  1  0  0  0  0
 96250  1  0  0  0  0
 97251  1  0  0  0  0
 98252  1  0  0  0  0
100253  1  0  0  0  0
101254  1  0  0  0  0
103255  1  0  0  0  0
103256  1  0  0  0  0
104257  1  0  0  0  0
104258  1  0  0  0  0
104259  1  0  0  0  0
105260  1  0  0  0  0
106261  1  0  0  0  0
110262  1  0  0  0  0
114263  1  0  0  0  0
115264  1  0  0  0  0
117265  1  0  0  0  0
117266  1  0  0  0  0
118267  1  0  0  0  0
118268  1  0  0  0  0
118269  1  0  0  0  0
119270  1  0  0  0  0
120271  1  0  0  0  0
122272  1  0  0  0  0
123273  1  0  0  0  0
125274  1  0  0  0  0
125275  1  0  0  0  0
126276  1  0  0  0  0
126277  1  0  0  0  0
126278  1  0  0  0  0
127279  1  0  0  0  0
128280  1  0  0  0  0
134281  1  0  0  0  0
139282  1  0  0  0  0
140283  1  0  0  0  0
142284  1  0  0  0  0
142285  1  0  0  0  0
142286  1  0  0  0  0
143287  1  0  0  0  0
144288  1  0  0  0  0
146289  1  0  0  0  0
147290  1  0  0  0  0
149291  1  0  0  0  0
149292  1  0  0  0  0
149293  1  0  0  0  0
150294  1  0  0  0  0
151295  1  0  0  0  0
158296  1  0  0  0  0
159297  1  0  0  0  0
161298  1  0  0  0  0
161299  1  0  0  0  0
161300  1  0  0  0  0
162301  1  0  0  0  0
163302  1  0  0  0  0
165303  1  0  0  0  0
166304  1  0  0  0  0
168305  1  0  0  0  0
168306  1  0  0  0  0
168307  1  0  0  0  0
169308  1  0  0  0  0
170309  1  0  0  0  0
173310  1  0  0  0  0
180311  1  0  0  0  0
181312  1  0  0  0  0
182313  1  0  0  0  0
M  END
