225

C         11.09890        0.85350       -2.59920
C         11.59970        0.49550       -3.81660
C         12.47870        1.44320       -4.55260
O         12.92110        2.49140       -4.13870
C         12.64850        0.85380       -5.89550
C         13.25580        1.38120       -6.99820
C         13.27870        0.63180       -8.19630
C         13.88340        1.13210       -9.36750
C         13.89160        0.40270      -10.52390
C         13.28710       -0.86150      -10.53160
F         13.30050       -1.56420      -11.68040
C         12.69040       -1.39530       -9.42390
C         12.67400       -0.65850       -8.22370
C         12.06530       -1.18470       -7.06110
C         12.04860       -0.43660       -5.91660
C         11.49230       -0.71250       -4.59490
C         11.19310       -1.96140       -4.11290
C         11.33120       -3.14310       -4.86700
N         11.45910       -4.14020       -5.42270
C         10.82410       -2.21950       -2.77970
N         10.55370       -2.49270       -1.69730
C          9.93520        0.40350       -1.93080
C          8.65120        0.21450       -2.44330
N          8.26440        0.42490       -3.76950
C          7.35580        1.47090       -3.98790
C          6.33730        1.37090       -4.93280
C          5.46210        2.42090       -5.12360
C          5.56080        3.58900       -4.37720
C          4.61590        4.72920       -4.60340
C          6.57380        3.67770       -3.43060
C          7.46340        2.64050       -3.23700
C          8.42100       -0.58750       -4.72780
C          8.27130       -1.92640       -4.37730
C          8.41990       -2.91180       -5.33430
C          8.71500       -2.59250       -6.65520
C          8.90370       -3.68020       -7.66510
C          8.85510       -1.25190       -6.99510
C          8.71560       -0.25710       -6.04740
C          7.72200        0.01070       -1.40430
S          6.01380       -0.24030       -1.38240
C          6.06260       -0.45840        0.36090
C          7.33040       -0.27180        0.89690
N          7.63310       -0.28290        2.24470
C          6.69000        0.18170        3.17380
C          5.90440        1.29420        2.88440
C          4.91520        1.69600        3.76040
C          4.68000        1.00710        4.94270
C          3.55350        1.38640        5.85430
C          5.51000       -0.06450        5.25270
C          6.50740       -0.47090        4.39030
C          8.87030       -0.78950        2.67280
C          9.47950       -1.84300        1.99620
C         10.70430       -2.32120        2.41380
C         11.35080       -1.77710        3.51690
C         12.67010       -2.32170        3.97210
C         10.73330       -0.73060        4.19020
C          9.51370       -0.23350        3.77490
C          8.26990       -0.01040       -0.12940
S          9.96220        0.32090       -0.17430
C          4.86140       -0.76860        1.07770
C          4.68180       -1.74720        2.03570
C          5.62980       -2.83080        2.28770
C          5.76680       -3.38140        3.55700
C          6.66780       -4.40990        3.76490
C          7.41830       -4.90580        2.71650
C          7.26730       -4.39690        1.42840
C          8.08010       -4.99970        0.31220
C          7.91710       -4.34290       -1.05240
C          6.37010       -3.36200        1.23170
C          3.41180       -1.62950        2.64320
S          2.60430       -2.53220        3.90080
C          1.18910       -1.56170        3.66830
C         -0.12570       -1.45090        4.15800
C         -0.80540       -2.10420        5.20910
C         -2.17320       -1.75370        5.47910
N         -2.66770       -2.41150        6.51570
S         -1.51700       -3.38860        7.10110
N         -0.34150       -3.01190        6.05350
C         -2.83590       -0.86100        4.60780
C         -4.19430       -0.52970        4.47060
S         -5.70850       -0.88450        5.22980
C         -6.52530       -0.02270        3.94880
C         -7.88780        0.23240        3.69330
C         -8.97530       -0.20940        4.57050
C         -9.01100       -1.52600        5.01890
C        -10.03150       -1.94270        5.85270
C        -11.02070       -1.05700        6.23980
C        -10.99900        0.26210        5.80410
C        -12.05170        1.23510        6.25180
C        -11.61700        1.94770        7.53380
C         -9.96350        0.67850        4.98330
C         -8.04230        0.96160        2.52800
S         -6.51510        1.36150        1.76440
C         -5.65100        0.52290        3.00560
C         -4.31360        0.23750        3.30820
N         -3.07950        0.42130        2.74150
C         -2.15340       -0.23760        3.52780
C         -0.75600       -0.43210        3.39420
N          0.17200        0.11140        2.51930
C          1.34140       -0.58910        2.67970
C          2.61910       -0.61610        2.10580
S          3.44440        0.24640        0.86030
C          0.22940        1.46810        2.01960
C          1.09800        2.34680        2.91910
C         -2.96870        0.89980        1.38180
C         -3.16370        2.41310        1.28590
C         -9.24280        1.34450        1.86080
C         -9.42790        2.20030        0.80470
C        -10.82390        2.23040        0.54540
C        -11.62860        2.90510       -0.38680
C        -11.10450        3.86090       -1.36300
C        -10.10140        4.76120       -1.01060
C         -9.63240        5.66110       -1.94530
F         -8.66250        6.52200       -1.56830
C        -10.11420        5.73410       -3.24750
C         -9.56480        6.70080       -4.25390
C         -8.37500        6.08720       -4.99600
C        -11.11670        4.82180       -3.55910
F        -11.63480        4.83640       -4.80560
C        -11.61620        3.90450       -2.65790
C        -12.98240        2.60010       -0.29690
C        -13.54860        1.72740        0.67030
C        -12.74580        1.06180        1.60960
C        -13.26450        0.16450        2.64350
C        -12.60430       -1.02590        2.93590
C        -13.10250       -1.85800        3.91640
C        -14.23690       -1.56220        4.66430
C        -14.77640       -2.49520        5.70720
C        -15.80080       -3.45170        5.09200
C        -14.86020       -0.35990        4.34970
C        -14.40740        0.49550        3.36630
F        -15.95990       -0.00280        5.04730
F        -12.46000       -3.01820        4.15730
C        -11.39120        1.33110        1.48820
O        -10.42360        0.81070        2.27370
C        -14.94230        1.72200        0.39770
C        -15.13550        2.56600       -0.66240
O        -13.95850        3.10680       -1.08760
C        -16.33140        2.93240       -1.35170
C        -16.44960        3.78700       -2.42550
C        -17.76680        3.92780       -2.86850
C        -18.65880        3.18130       -2.13370
C        -20.03950        3.09860       -2.31730
N        -21.17500        3.03860       -2.47650
S        -17.86520        2.28640       -0.87120
H         11.62700        1.66880       -2.11050
H         13.71150        2.35930       -6.95970
H         14.34250        2.10890       -9.33710
H         14.34890        0.77180      -11.42820
H         12.23920       -2.37460       -9.46380
H         11.61050       -2.16070       -7.10890
H          6.22610        0.46440       -5.50850
H          4.67720        2.32440       -5.86000
H          5.01940        5.40400       -5.35940
H          3.65160        4.36940       -4.95480
H          4.46950        5.29900       -3.68880
H          6.67330        4.57570       -2.83790
H          8.25090        2.73580       -2.50380
H          8.02940       -2.19060       -3.35840
H          8.30510       -3.94810       -5.05190
H          9.09810       -3.26900       -8.65260
H          8.01850       -4.31210       -7.71730
H          9.74290       -4.31120       -7.37060
H          9.08660       -0.97950       -8.01510
H          8.83180        0.78180       -6.31980
H          6.06570        1.83960        1.96560
H          4.31870        2.56400        3.51670
H          3.19170        2.38790        5.63330
H          3.86800        1.34670        6.89500
H          2.72540        0.68650        5.73130
H          5.36070       -0.59910        6.17970
H          7.13790       -1.31060        4.63940
H          8.99080       -2.29080        1.14650
H         11.16540       -3.13260        1.87060
H         13.17130       -1.62340        4.63770
H         12.52400       -3.25950        4.50920
H         13.31640       -2.52310        3.12020
H         11.21860       -0.28720        5.04800
H          9.05590        0.59160        4.30070
H          5.18190       -2.99670        4.37760
H          6.78280       -4.82750        4.75440
H          8.12180       -5.70750        2.88940
H          7.81400       -6.05860        0.23270
H          9.13500       -4.95820        0.59830
H          8.55290       -4.84730       -1.77700
H          8.22280       -3.29910       -1.01790
H          6.88780       -4.40430       -1.40010
H          6.21410       -2.96400        0.24220
H         -8.24990       -2.22260        4.70140
H        -10.06030       -2.96670        6.19300
H        -11.81960       -1.38930        6.88710
H        -12.98880        0.70550        6.43420
H        -12.22760        1.97400        5.46680
H        -12.38260        2.64890        7.85780
H        -11.44870        1.22450        8.32850
H        -10.69140        2.49440        7.36830
H         -9.91980        1.71020        4.66440
H         -0.77050        1.88530        1.99050
H          0.64780        1.44570        1.00810
H          0.69770        2.35950        3.93100
H          1.11200        3.36290        2.53380
H          2.11660        1.97160        2.95190
H         -2.00820        0.58650        0.97200
H         -3.75520        0.41340        0.79330
H         -2.96870        2.74420        0.26980
H         -2.50240        2.94900        1.96330
H         -4.18650        2.67410        1.54250
H         -8.65330        2.72200        0.28150
H         -9.70510        4.78740       -0.00890
H        -10.34520        6.95840       -4.97150
H         -9.24260        7.60980       -3.74310
H         -7.98470        6.79500       -5.72260
H         -7.58120        5.83400       -4.29680
H         -8.67950        5.18400       -5.52000
H        -12.39020        3.22400       -2.97190
H        -11.71490       -1.31540        2.40180
H        -13.95520       -3.07210        6.13530
H        -15.25390       -1.91680        6.50020
H        -15.34020       -4.04420        4.30480
H        -16.63300       -2.89460        4.66760
H        -16.18650       -4.12500        5.85300
H        -14.92800        1.42300        3.19100
H        -15.70200        1.15880        0.89960
H        -15.60470        4.28600       -2.86390
H        -18.06800        4.54820       -3.69360
