
  xtb     02082203483D
 energy: -408.635194743369 gnorm: 0.000228644257 xtb: 6.4.1 (unknown)
256281  0     0  0            999 V2000
   10.0160   -1.9212    8.6594 C   0  0  0  0  0  0  0  0  0  0  0  0
   10.5782   -0.7311    9.0820 C   0  0  0  0  0  0  0  0  0  0  0  0
   10.3854    0.5799    8.4667 C   0  0  0  0  0  0  0  0  0  0  0  0
    9.7951    0.8482    7.4324 O   0  0  0  0  0  0  0  0  0  0  0  0
   11.0378    1.5533    9.3626 C   0  0  0  0  0  0  0  0  0  0  0  0
   11.1228    2.9081    9.2372 C   0  0  0  0  0  0  0  0  0  0  0  0
   11.7981    3.6500   10.2331 C   0  0  0  0  0  0  0  0  0  0  0  0
   11.9166    5.0520   10.1565 C   0  0  0  0  0  0  0  0  0  0  0  0
   12.5706    5.7587   11.1277 C   0  0  0  0  0  0  0  0  0  0  0  0
   13.1266    5.0649   12.2098 C   0  0  0  0  0  0  0  0  0  0  0  0
   13.7672    5.7772   13.1577 F   0  0  0  0  0  0  0  0  0  0  0  0
   13.0408    3.7059   12.3323 C   0  0  0  0  0  0  0  0  0  0  0  0
   12.3714    2.9627   11.3412 C   0  0  0  0  0  0  0  0  0  0  0  0
   12.2689    1.5540   11.4400 C   0  0  0  0  0  0  0  0  0  0  0  0
   11.6108    0.8573   10.4634 C   0  0  0  0  0  0  0  0  0  0  0  0
   11.3595   -0.5724   10.2822 C   0  0  0  0  0  0  0  0  0  0  0  0
   11.8267   -1.5645   11.1143 C   0  0  0  0  0  0  0  0  0  0  0  0
   11.7164   -2.9477   10.8844 C   0  0  0  0  0  0  0  0  0  0  0  0
   11.7047   -4.0913   10.7591 N   0  0  0  0  0  0  0  0  0  0  0  0
   12.5236   -1.3240   12.3136 C   0  0  0  0  0  0  0  0  0  0  0  0
   13.0800   -1.2011   13.3117 N   0  0  0  0  0  0  0  0  0  0  0  0
    9.2514   -2.2092    7.5365 C   0  0  0  0  0  0  0  0  0  0  0  0
    8.7175   -3.5021    7.2694 C   0  0  0  0  0  0  0  0  0  0  0  0
    8.6800   -4.5402    8.1582 N   0  0  0  0  0  0  0  0  0  0  0  0
    8.4651   -4.3464    9.5363 C   0  0  0  0  0  0  0  0  0  0  0  0
    7.6206   -3.3359    9.9897 C   0  0  0  0  0  0  0  0  0  0  0  0
    7.4343   -3.1480   11.3444 C   0  0  0  0  0  0  0  0  0  0  0  0
    8.0621   -3.9667   12.2762 C   0  0  0  0  0  0  0  0  0  0  0  0
    7.8856   -3.7471   13.7469 C   0  0  0  0  0  0  0  0  0  0  0  0
    8.8734   -4.9951   11.8114 C   0  0  0  0  0  0  0  0  0  0  0  0
    9.0813   -5.1867   10.4601 C   0  0  0  0  0  0  0  0  0  0  0  0
    8.7126   -5.8584    7.6620 C   0  0  0  0  0  0  0  0  0  0  0  0
    9.6413   -6.2112    6.6870 C   0  0  0  0  0  0  0  0  0  0  0  0
    9.6718   -7.5009    6.1967 C   0  0  0  0  0  0  0  0  0  0  0  0
    8.7892   -8.4670    6.6653 C   0  0  0  0  0  0  0  0  0  0  0  0
    8.8111   -9.8565    6.1083 C   0  0  0  0  0  0  0  0  0  0  0  0
    7.8734   -8.1064    7.6468 C   0  0  0  0  0  0  0  0  0  0  0  0
    7.8292   -6.8191    8.1432 C   0  0  0  0  0  0  0  0  0  0  0  0
    8.2024   -3.5706    5.9655 C   0  0  0  0  0  0  0  0  0  0  0  0
    7.4048   -4.8064    5.0371 S   0  0  0  0  0  0  0  0  0  0  0  0
    7.1638   -3.6753    3.7198 C   0  0  0  0  0  0  0  0  0  0  0  0
    7.6179   -2.3962    4.0192 C   0  0  0  0  0  0  0  0  0  0  0  0
    7.4149   -1.2724    3.2318 N   0  0  0  0  0  0  0  0  0  0  0  0
    6.1962   -1.0823    2.5670 C   0  0  0  0  0  0  0  0  0  0  0  0
    6.1624   -0.4676    1.3177 C   0  0  0  0  0  0  0  0  0  0  0  0
    4.9679   -0.3392    0.6348 C   0  0  0  0  0  0  0  0  0  0  0  0
    3.7802   -0.8275    1.1622 C   0  0  0  0  0  0  0  0  0  0  0  0
    2.4912   -0.7415    0.4040 C   0  0  0  0  0  0  0  0  0  0  0  0
    3.8171   -1.4141    2.4222 C   0  0  0  0  0  0  0  0  0  0  0  0
    4.9989   -1.5312    3.1229 C   0  0  0  0  0  0  0  0  0  0  0  0
    8.3983   -0.2715    3.2325 C   0  0  0  0  0  0  0  0  0  0  0  0
    8.0477    1.0754    3.2546 C   0  0  0  0  0  0  0  0  0  0  0  0
    9.0287    2.0446    3.2953 C   0  0  0  0  0  0  0  0  0  0  0  0
   10.3763    1.7054    3.3220 C   0  0  0  0  0  0  0  0  0  0  0  0
   11.4311    2.7638    3.4230 C   0  0  0  0  0  0  0  0  0  0  0  0
   10.7178    0.3601    3.2852 C   0  0  0  0  0  0  0  0  0  0  0  0
    9.7466   -0.6197    3.2347 C   0  0  0  0  0  0  0  0  0  0  0  0
    8.2460   -2.3595    5.2840 C   0  0  0  0  0  0  0  0  0  0  0  0
    8.9537   -1.0841    6.2059 S   0  0  0  0  0  0  0  0  0  0  0  0
    6.4802   -4.0179    2.5125 C   0  0  0  0  0  0  0  0  0  0  0  0
    4.9220   -4.8337    2.5498 S   0  0  0  0  0  0  0  0  0  0  0  0
    4.6569   -4.4157    0.8982 C   0  0  0  0  0  0  0  0  0  0  0  0
    3.6119   -4.3757   -0.0494 C   0  0  0  0  0  0  0  0  0  0  0  0
    4.1517   -3.6745   -1.1668 C   0  0  0  0  0  0  0  0  0  0  0  0
    5.4664   -3.3533   -0.9232 N   0  0  0  0  0  0  0  0  0  0  0  0
    5.7620   -3.7541    0.3500 C   0  0  0  0  0  0  0  0  0  0  0  0
    6.7992   -3.5380    1.2638 C   0  0  0  0  0  0  0  0  0  0  0  0
    6.3181   -2.6102   -1.8061 C   0  0  0  0  0  0  0  0  0  0  0  0
    3.3698   -3.3261   -2.2571 C   0  0  0  0  0  0  0  0  0  0  0  0
    2.0177   -3.6223   -2.1886 C   0  0  0  0  0  0  0  0  0  0  0  0
    0.9166   -3.2997   -3.0617 C   0  0  0  0  0  0  0  0  0  0  0  0
   -0.2255   -3.8563   -2.5696 C   0  0  0  0  0  0  0  0  0  0  0  0
   -0.0125   -4.5488   -1.2537 C   0  0  0  0  0  0  0  0  0  0  0  0
   -0.4085   -6.0311   -1.2754 C   0  0  0  0  0  0  0  0  0  0  0  0
    0.2171   -6.7710   -2.4520 C   0  0  0  0  0  0  0  0  0  0  0  0
   -0.8195   -3.7457   -0.2045 C   0  0  0  0  0  0  0  0  0  0  0  0
   -0.6516   -4.1663    1.2494 C   0  0  0  0  0  0  0  0  0  0  0  0
    1.4820   -4.3575   -1.0879 C   0  0  0  0  0  0  0  0  0  0  0  0
    2.2701   -4.7692   -0.0460 C   0  0  0  0  0  0  0  0  0  0  0  0
   -1.3662   -3.4644   -3.3437 C   0  0  0  0  0  0  0  0  0  0  0  0
   -0.8889   -2.5751   -4.3443 C   0  0  0  0  0  0  0  0  0  0  0  0
    0.6292   -2.4360   -4.2669 C   0  0  0  0  0  0  0  0  0  0  0  0
    0.9013   -0.9368   -4.0093 C   0  0  0  0  0  0  0  0  0  0  0  0
    2.3423   -0.4990   -3.7919 C   0  0  0  0  0  0  0  0  0  0  0  0
    1.2130   -2.9663   -5.5958 C   0  0  0  0  0  0  0  0  0  0  0  0
    2.6260   -3.5331   -5.5476 C   0  0  0  0  0  0  0  0  0  0  0  0
   -1.7494   -1.9083   -5.1734 C   0  0  0  0  0  0  0  0  0  0  0  0
   -3.1184   -2.1142   -4.9809 C   0  0  0  0  0  0  0  0  0  0  0  0
   -4.2783   -1.4841   -5.4750 C   0  0  0  0  0  0  0  0  0  0  0  0
   -4.7133   -0.1227   -6.4348 S   0  0  0  0  0  0  0  0  0  0  0  0
   -6.3693   -0.2401   -5.8551 C   0  0  0  0  0  0  0  0  0  0  0  0
   -6.5838   -1.3478   -5.0709 C   0  0  0  0  0  0  0  0  0  0  0  0
   -5.3877   -2.0383   -4.8289 C   0  0  0  0  0  0  0  0  0  0  0  0
   -4.9663   -3.0298   -3.9832 N   0  0  0  0  0  0  0  0  0  0  0  0
   -5.7901   -3.7884   -3.0862 C   0  0  0  0  0  0  0  0  0  0  0  0
   -3.5911   -3.0543   -4.0167 C   0  0  0  0  0  0  0  0  0  0  0  0
   -2.7143   -3.7503   -3.1975 C   0  0  0  0  0  0  0  0  0  0  0  0
   -7.2680    0.8533   -6.0668 C   0  0  0  0  0  0  0  0  0  0  0  0
   -6.9983    2.1904   -5.8003 C   0  0  0  0  0  0  0  0  0  0  0  0
   -5.8384    2.6982   -5.2490 N   0  0  0  0  0  0  0  0  0  0  0  0
   -5.0872    1.9792   -4.3030 C   0  0  0  0  0  0  0  0  0  0  0  0
   -5.6895    1.1425   -3.3694 C   0  0  0  0  0  0  0  0  0  0  0  0
   -4.9105    0.4041   -2.4981 C   0  0  0  0  0  0  0  0  0  0  0  0
   -3.5257    0.4882   -2.5216 C   0  0  0  0  0  0  0  0  0  0  0  0
   -2.6786   -0.3387   -1.6040 C   0  0  0  0  0  0  0  0  0  0  0  0
   -2.9346    1.3607   -3.4298 C   0  0  0  0  0  0  0  0  0  0  0  0
   -3.6988    2.1001   -4.3073 C   0  0  0  0  0  0  0  0  0  0  0  0
   -5.5820    4.0764   -5.3964 C   0  0  0  0  0  0  0  0  0  0  0  0
   -5.3452    4.8700   -4.2780 C   0  0  0  0  0  0  0  0  0  0  0  0
   -5.1796    6.2332   -4.4192 C   0  0  0  0  0  0  0  0  0  0  0  0
   -5.2394    6.8362   -5.6698 C   0  0  0  0  0  0  0  0  0  0  0  0
   -5.0897    8.3195   -5.8188 C   0  0  0  0  0  0  0  0  0  0  0  0
   -5.4351    6.0307   -6.7856 C   0  0  0  0  0  0  0  0  0  0  0  0
   -5.6039    4.6655   -6.6579 C   0  0  0  0  0  0  0  0  0  0  0  0
   -8.1350    2.9854   -6.0702 C   0  0  0  0  0  0  0  0  0  0  0  0
   -8.4452    4.6664   -5.8776 S   0  0  0  0  0  0  0  0  0  0  0  0
  -10.1428    4.4288   -6.2947 C   0  0  0  0  0  0  0  0  0  0  0  0
  -10.4273    3.0776   -6.5752 C   0  0  0  0  0  0  0  0  0  0  0  0
  -11.6648    2.5882   -6.8735 N   0  0  0  0  0  0  0  0  0  0  0  0
  -12.8402    3.1751   -6.3555 C   0  0  0  0  0  0  0  0  0  0  0  0
  -13.9630    3.3003   -7.1663 C   0  0  0  0  0  0  0  0  0  0  0  0
  -15.1175    3.8673   -6.6628 C   0  0  0  0  0  0  0  0  0  0  0  0
  -15.1798    4.3197   -5.3504 C   0  0  0  0  0  0  0  0  0  0  0  0
  -16.4210    4.9692   -4.8225 C   0  0  0  0  0  0  0  0  0  0  0  0
  -14.0540    4.1757   -4.5467 C   0  0  0  0  0  0  0  0  0  0  0  0
  -12.8955    3.6046   -5.0328 C   0  0  0  0  0  0  0  0  0  0  0  0
  -11.7820    1.4194   -7.6475 C   0  0  0  0  0  0  0  0  0  0  0  0
  -12.7076    0.4379   -7.3090 C   0  0  0  0  0  0  0  0  0  0  0  0
  -12.8232   -0.6991   -8.0845 C   0  0  0  0  0  0  0  0  0  0  0  0
  -12.0257   -0.8880   -9.2064 C   0  0  0  0  0  0  0  0  0  0  0  0
  -12.1339   -2.1293  -10.0365 C   0  0  0  0  0  0  0  0  0  0  0  0
  -11.1087    0.1027   -9.5404 C   0  0  0  0  0  0  0  0  0  0  0  0
  -10.9868    1.2460   -8.7781 C   0  0  0  0  0  0  0  0  0  0  0  0
   -9.2643    2.2814   -6.4589 C   0  0  0  0  0  0  0  0  0  0  0  0
   -8.9351    0.5806   -6.5505 S   0  0  0  0  0  0  0  0  0  0  0  0
  -10.9814    5.5357   -6.4713 C   0  0  0  0  0  0  0  0  0  0  0  0
  -10.7133    6.8356   -6.1178 C   0  0  0  0  0  0  0  0  0  0  0  0
  -11.3491    7.9535   -6.8450 C   0  0  0  0  0  0  0  0  0  0  0  0
  -12.3127    7.9005   -7.5804 O   0  0  0  0  0  0  0  0  0  0  0  0
  -10.5161    9.1385   -6.5337 C   0  0  0  0  0  0  0  0  0  0  0  0
  -10.5834   10.4017   -7.0431 C   0  0  0  0  0  0  0  0  0  0  0  0
   -9.6328   11.3649   -6.6304 C   0  0  0  0  0  0  0  0  0  0  0  0
   -9.6547   12.6824   -7.1301 C   0  0  0  0  0  0  0  0  0  0  0  0
   -8.7243   13.6035   -6.7345 C   0  0  0  0  0  0  0  0  0  0  0  0
   -7.7381   13.2182   -5.8177 C   0  0  0  0  0  0  0  0  0  0  0  0
   -6.8267   14.1374   -5.4414 F   0  0  0  0  0  0  0  0  0  0  0  0
   -7.6721   11.9548   -5.3003 C   0  0  0  0  0  0  0  0  0  0  0  0
   -8.6250   10.9954   -5.6935 C   0  0  0  0  0  0  0  0  0  0  0  0
   -8.5913    9.6830   -5.1663 C   0  0  0  0  0  0  0  0  0  0  0  0
   -9.5244    8.7732   -5.5783 C   0  0  0  0  0  0  0  0  0  0  0  0
   -9.7489    7.3820   -5.1986 C   0  0  0  0  0  0  0  0  0  0  0  0
   -9.3245    6.8069   -4.0227 C   0  0  0  0  0  0  0  0  0  0  0  0
   -8.3903    7.3950   -3.1541 C   0  0  0  0  0  0  0  0  0  0  0  0
   -7.6070    7.8221   -2.4295 N   0  0  0  0  0  0  0  0  0  0  0  0
   -9.8471    5.5896   -3.5461 C   0  0  0  0  0  0  0  0  0  0  0  0
  -10.3062    4.6304   -3.1099 N   0  0  0  0  0  0  0  0  0  0  0  0
   10.1929   -2.7729    9.3035 H   0  0  0  0  0  0  0  0  0  0  0  0
   10.6800    3.4093    8.3893 H   0  0  0  0  0  0  0  0  0  0  0  0
   11.4787    5.5639    9.3125 H   0  0  0  0  0  0  0  0  0  0  0  0
   12.6697    6.8317   11.0840 H   0  0  0  0  0  0  0  0  0  0  0  0
   13.4818    3.2050   13.1800 H   0  0  0  0  0  0  0  0  0  0  0  0
   12.7151    1.0655   12.2911 H   0  0  0  0  0  0  0  0  0  0  0  0
    7.1192   -2.6960    9.2784 H   0  0  0  0  0  0  0  0  0  0  0  0
    6.7830   -2.3546   11.6821 H   0  0  0  0  0  0  0  0  0  0  0  0
    7.1016   -3.0201   13.9429 H   0  0  0  0  0  0  0  0  0  0  0  0
    7.6337   -4.6806   14.2469 H   0  0  0  0  0  0  0  0  0  0  0  0
    8.8145   -3.3785   14.1825 H   0  0  0  0  0  0  0  0  0  0  0  0
    9.3679   -5.6439   12.5183 H   0  0  0  0  0  0  0  0  0  0  0  0
    9.7315   -5.9749   10.1153 H   0  0  0  0  0  0  0  0  0  0  0  0
   10.3412   -5.4717    6.3263 H   0  0  0  0  0  0  0  0  0  0  0  0
   10.3980   -7.7641    5.4416 H   0  0  0  0  0  0  0  0  0  0  0  0
    8.1882   -9.9061    5.2145 H   0  0  0  0  0  0  0  0  0  0  0  0
    9.8213  -10.1470    5.8294 H   0  0  0  0  0  0  0  0  0  0  0  0
    8.4231  -10.5714    6.8298 H   0  0  0  0  0  0  0  0  0  0  0  0
    7.1790   -8.8428    8.0242 H   0  0  0  0  0  0  0  0  0  0  0  0
    7.1084   -6.5490    8.9006 H   0  0  0  0  0  0  0  0  0  0  0  0
    7.0800   -0.0976    0.8834 H   0  0  0  0  0  0  0  0  0  0  0  0
    4.9622    0.1423   -0.3332 H   0  0  0  0  0  0  0  0  0  0  0  0
    1.6836   -0.4141    1.0564 H   0  0  0  0  0  0  0  0  0  0  0  0
    2.2237   -1.7220    0.0088 H   0  0  0  0  0  0  0  0  0  0  0  0
    2.5729   -0.0467   -0.4284 H   0  0  0  0  0  0  0  0  0  0  0  0
    2.9021   -1.7841    2.8618 H   0  0  0  0  0  0  0  0  0  0  0  0
    5.0019   -1.9797    4.1054 H   0  0  0  0  0  0  0  0  0  0  0  0
    7.0042    1.3538    3.2549 H   0  0  0  0  0  0  0  0  0  0  0  0
    8.7416    3.0859    3.3239 H   0  0  0  0  0  0  0  0  0  0  0  0
   11.6146    2.9972    4.4723 H   0  0  0  0  0  0  0  0  0  0  0  0
   11.1160    3.6779    2.9244 H   0  0  0  0  0  0  0  0  0  0  0  0
   12.3673    2.4254    2.9847 H   0  0  0  0  0  0  0  0  0  0  0  0
   11.7596    0.0732    3.2973 H   0  0  0  0  0  0  0  0  0  0  0  0
   10.0278   -1.6628    3.2026 H   0  0  0  0  0  0  0  0  0  0  0  0
    7.7264   -3.0359    1.0558 H   0  0  0  0  0  0  0  0  0  0  0  0
    7.2689   -2.4265   -1.3117 H   0  0  0  0  0  0  0  0  0  0  0  0
    6.4995   -3.1700   -2.7280 H   0  0  0  0  0  0  0  0  0  0  0  0
    5.8630   -1.6504   -2.0622 H   0  0  0  0  0  0  0  0  0  0  0  0
    3.8041   -2.8240   -3.1036 H   0  0  0  0  0  0  0  0  0  0  0  0
   -1.4963   -6.1086   -1.3345 H   0  0  0  0  0  0  0  0  0  0  0  0
   -0.0853   -6.5017   -0.3458 H   0  0  0  0  0  0  0  0  0  0  0  0
    1.3018   -6.6980   -2.4119 H   0  0  0  0  0  0  0  0  0  0  0  0
   -0.0594   -7.8228   -2.4274 H   0  0  0  0  0  0  0  0  0  0  0  0
   -0.1207   -6.3463   -3.3948 H   0  0  0  0  0  0  0  0  0  0  0  0
   -0.5352   -2.6942   -0.2999 H   0  0  0  0  0  0  0  0  0  0  0  0
   -1.8749   -3.8222   -0.4741 H   0  0  0  0  0  0  0  0  0  0  0  0
   -1.3339   -3.5881    1.8699 H   0  0  0  0  0  0  0  0  0  0  0  0
    0.3595   -3.9763    1.5968 H   0  0  0  0  0  0  0  0  0  0  0  0
   -0.8818   -5.2194    1.3874 H   0  0  0  0  0  0  0  0  0  0  0  0
    1.8877   -5.3537    0.7755 H   0  0  0  0  0  0  0  0  0  0  0  0
    0.3189   -0.6518   -3.1282 H   0  0  0  0  0  0  0  0  0  0  0  0
    0.4958   -0.3838   -4.8594 H   0  0  0  0  0  0  0  0  0  0  0  0
    2.7518   -0.9483   -2.8929 H   0  0  0  0  0  0  0  0  0  0  0  0
    2.3695    0.5834   -3.6728 H   0  0  0  0  0  0  0  0  0  0  0  0
    2.9670   -0.7552   -4.6429 H   0  0  0  0  0  0  0  0  0  0  0  0
    1.1668   -2.1628   -6.3341 H   0  0  0  0  0  0  0  0  0  0  0  0
    0.5509   -3.7644   -5.9431 H   0  0  0  0  0  0  0  0  0  0  0  0
    3.3611   -2.7687   -5.3154 H   0  0  0  0  0  0  0  0  0  0  0  0
    2.6966   -4.3259   -4.8076 H   0  0  0  0  0  0  0  0  0  0  0  0
    2.8769   -3.9515   -6.5209 H   0  0  0  0  0  0  0  0  0  0  0  0
   -1.4136   -1.2096   -5.9240 H   0  0  0  0  0  0  0  0  0  0  0  0
   -7.5419   -1.5708   -4.6368 H   0  0  0  0  0  0  0  0  0  0  0  0
   -5.5358   -4.8487   -3.1460 H   0  0  0  0  0  0  0  0  0  0  0  0
   -5.6579   -3.4539   -2.0525 H   0  0  0  0  0  0  0  0  0  0  0  0
   -6.8335   -3.6614   -3.3666 H   0  0  0  0  0  0  0  0  0  0  0  0
   -3.0689   -4.4433   -2.4509 H   0  0  0  0  0  0  0  0  0  0  0  0
   -6.7665    1.0763   -3.3247 H   0  0  0  0  0  0  0  0  0  0  0  0
   -5.3942   -0.2462   -1.7829 H   0  0  0  0  0  0  0  0  0  0  0  0
   -1.8883    0.2655   -1.1619 H   0  0  0  0  0  0  0  0  0  0  0  0
   -2.2094   -1.1502   -2.1606 H   0  0  0  0  0  0  0  0  0  0  0  0
   -3.2760   -0.7720   -0.8055 H   0  0  0  0  0  0  0  0  0  0  0  0
   -1.8583    1.4483   -3.4562 H   0  0  0  0  0  0  0  0  0  0  0  0
   -3.2313    2.7647   -5.0186 H   0  0  0  0  0  0  0  0  0  0  0  0
   -5.3193    4.4150   -3.2989 H   0  0  0  0  0  0  0  0  0  0  0  0
   -5.0302    6.8402   -3.5387 H   0  0  0  0  0  0  0  0  0  0  0  0
   -5.8696    8.7213   -6.4641 H   0  0  0  0  0  0  0  0  0  0  0  0
   -5.1456    8.8092   -4.8502 H   0  0  0  0  0  0  0  0  0  0  0  0
   -4.1266    8.5598   -6.2698 H   0  0  0  0  0  0  0  0  0  0  0  0
   -5.4666    6.4805   -7.7676 H   0  0  0  0  0  0  0  0  0  0  0  0
   -5.7669    4.0484   -7.5298 H   0  0  0  0  0  0  0  0  0  0  0  0
  -13.9224    2.9601   -8.1909 H   0  0  0  0  0  0  0  0  0  0  0  0
  -15.9811    3.9678   -7.3038 H   0  0  0  0  0  0  0  0  0  0  0  0
  -16.3857    6.0419   -5.0160 H   0  0  0  0  0  0  0  0  0  0  0  0
  -16.5088    4.8242   -3.7484 H   0  0  0  0  0  0  0  0  0  0  0  0
  -17.3074    4.5693   -5.3094 H   0  0  0  0  0  0  0  0  0  0  0  0
  -14.0833    4.5093   -3.5200 H   0  0  0  0  0  0  0  0  0  0  0  0
  -12.0327    3.5026   -4.3920 H   0  0  0  0  0  0  0  0  0  0  0  0
  -13.3290    0.5704   -6.4359 H   0  0  0  0  0  0  0  0  0  0  0  0
  -13.5436   -1.4553   -7.8083 H   0  0  0  0  0  0  0  0  0  0  0  0
  -12.1446   -1.8834  -11.0966 H   0  0  0  0  0  0  0  0  0  0  0  0
  -13.0369   -2.6836   -9.7944 H   0  0  0  0  0  0  0  0  0  0  0  0
  -11.2752   -2.7755   -9.8538 H   0  0  0  0  0  0  0  0  0  0  0  0
  -10.4875   -0.0206  -10.4154 H   0  0  0  0  0  0  0  0  0  0  0  0
  -10.2839    2.0165   -9.0598 H   0  0  0  0  0  0  0  0  0  0  0  0
  -11.8798    5.3882   -7.0600 H   0  0  0  0  0  0  0  0  0  0  0  0
  -11.3494   10.6670   -7.7565 H   0  0  0  0  0  0  0  0  0  0  0  0
  -10.4238   12.9559   -7.8370 H   0  0  0  0  0  0  0  0  0  0  0  0
   -8.7284   14.6152   -7.1080 H   0  0  0  0  0  0  0  0  0  0  0  0
   -6.9010   11.6937   -4.5924 H   0  0  0  0  0  0  0  0  0  0  0  0
   -7.8214    9.4241   -4.4572 H   0  0  0  0  0  0  0  0  0  0  0  0
  1  2  2  0  0  0  0
  2  3  1  0  0  0  0
  3  4  2  0  0  0  0
  3  5  1  0  0  0  0
  5  6  2  0  0  0  0
  6  7  1  0  0  0  0
  7  8  2  0  0  0  0
  8  9  1  0  0  0  0
  9 10  2  0  0  0  0
 10 11  1  0  0  0  0
 10 12  1  0  0  0  0
 12 13  2  0  0  0  0
 13 14  1  0  0  0  0
 14 15  2  0  0  0  0
 15 16  1  0  0  0  0
 16 17  2  0  0  0  0
 17 18  1  0  0  0  0
 18 19  3  0  0  0  0
 17 20  1  0  0  0  0
 20 21  3  0  0  0  0
  1 22  1  0  0  0  0
 22 23  2  0  0  0  0
 23 24  1  0  0  0  0
 24 25  1  0  0  0  0
 25 26  2  0  0  0  0
 26 27  1  0  0  0  0
 27 28  2  0  0  0  0
 28 29  1  0  0  0  0
 28 30  1  0  0  0  0
 30 31  2  0  0  0  0
 24 32  1  0  0  0  0
 32 33  2  0  0  0  0
 33 34  1  0  0  0  0
 34 35  2  0  0  0  0
 35 36  1  0  0  0  0
 35 37  1  0  0  0  0
 37 38  2  0  0  0  0
 23 39  1  0  0  0  0
 39 40  1  0  0  0  0
 40 41  1  0  0  0  0
 41 42  2  0  0  0  0
 42 43  1  0  0  0  0
 43 44  1  0  0  0  0
 44 45  2  0  0  0  0
 45 46  1  0  0  0  0
 46 47  2  0  0  0  0
 47 48  1  0  0  0  0
 47 49  1  0  0  0  0
 49 50  2  0  0  0  0
 43 51  1  0  0  0  0
 51 52  2  0  0  0  0
 52 53  1  0  0  0  0
 53 54  2  0  0  0  0
 54 55  1  0  0  0  0
 54 56  1  0  0  0  0
 56 57  2  0  0  0  0
 42 58  1  0  0  0  0
 58 59  1  0  0  0  0
 41 60  1  0  0  0  0
 60 61  1  0  0  0  0
 61 62  1  0  0  0  0
 62 63  1  0  0  0  0
 63 64  2  0  0  0  0
 64 65  1  0  0  0  0
 65 66  1  0  0  0  0
 66 67  1  0  0  0  0
 65 68  1  0  0  0  0
 64 69  1  0  0  0  0
 69 70  2  0  0  0  0
 70 71  1  0  0  0  0
 71 72  2  0  0  0  0
 72 73  1  0  0  0  0
 73 74  1  0  0  0  0
 74 75  1  0  0  0  0
 73 76  1  0  0  0  0
 76 77  1  0  0  0  0
 73 78  1  0  0  0  0
 78 79  2  0  0  0  0
 72 80  1  0  0  0  0
 80 81  2  0  0  0  0
 81 82  1  0  0  0  0
 82 83  1  0  0  0  0
 83 84  1  0  0  0  0
 82 85  1  0  0  0  0
 85 86  1  0  0  0  0
 81 87  1  0  0  0  0
 87 88  2  0  0  0  0
 88 89  1  0  0  0  0
 89 90  1  0  0  0  0
 90 91  1  0  0  0  0
 91 92  2  0  0  0  0
 92 93  1  0  0  0  0
 93 94  1  0  0  0  0
 94 95  1  0  0  0  0
 94 96  1  0  0  0  0
 96 97  2  0  0  0  0
 91 98  1  0  0  0  0
 98 99  2  0  0  0  0
 99100  1  0  0  0  0
100101  1  0  0  0  0
101102  2  0  0  0  0
102103  1  0  0  0  0
103104  2  0  0  0  0
104105  1  0  0  0  0
104106  1  0  0  0  0
106107  2  0  0  0  0
100108  1  0  0  0  0
108109  2  0  0  0  0
109110  1  0  0  0  0
110111  2  0  0  0  0
111112  1  0  0  0  0
111113  1  0  0  0  0
113114  2  0  0  0  0
 99115  1  0  0  0  0
115116  1  0  0  0  0
116117  1  0  0  0  0
117118  2  0  0  0  0
118119  1  0  0  0  0
119120  1  0  0  0  0
120121  2  0  0  0  0
121122  1  0  0  0  0
122123  2  0  0  0  0
123124  1  0  0  0  0
123125  1  0  0  0  0
125126  2  0  0  0  0
119127  1  0  0  0  0
127128  2  0  0  0  0
128129  1  0  0  0  0
129130  2  0  0  0  0
130131  1  0  0  0  0
130132  1  0  0  0  0
132133  2  0  0  0  0
118134  1  0  0  0  0
134135  1  0  0  0  0
117136  1  0  0  0  0
136137  2  0  0  0  0
137138  1  0  0  0  0
138139  2  0  0  0  0
138140  1  0  0  0  0
140141  2  0  0  0  0
141142  1  0  0  0  0
142143  2  0  0  0  0
143144  1  0  0  0  0
144145  2  0  0  0  0
145146  1  0  0  0  0
145147  1  0  0  0  0
147148  2  0  0  0  0
148149  1  0  0  0  0
149150  2  0  0  0  0
150151  1  0  0  0  0
151152  2  0  0  0  0
152153  1  0  0  0  0
153154  3  0  0  0  0
152155  1  0  0  0  0
155156  3  0  0  0  0
 16  2  1  0  0  0  0
 59 22  1  0  0  0  0
 67 60  2  0  0  0  0
 78 70  1  0  0  0  0
 97 80  1  0  0  0  0
135 98  1  0  0  0  0
151137  1  0  0  0  0
 15  5  1  0  0  0  0
 31 25  1  0  0  0  0
 38 32  1  0  0  0  0
 58 39  2  0  0  0  0
 66 62  2  0  0  0  0
 82 71  1  0  0  0  0
 96 88  1  0  0  0  0
107101  1  0  0  0  0
114108  1  0  0  0  0
134115  2  0  0  0  0
150140  1  0  0  0  0
 13  7  1  0  0  0  0
 50 44  1  0  0  0  0
 57 51  1  0  0  0  0
 79 63  1  0  0  0  0
 93 89  2  0  0  0  0
126120  1  0  0  0  0
133127  1  0  0  0  0
148142  1  0  0  0  0
  1157  1  0  0  0  0
  6158  1  0  0  0  0
  8159  1  0  0  0  0
  9160  1  0  0  0  0
 12161  1  0  0  0  0
 14162  1  0  0  0  0
 26163  1  0  0  0  0
 27164  1  0  0  0  0
 29165  1  0  0  0  0
 29166  1  0  0  0  0
 29167  1  0  0  0  0
 30168  1  0  0  0  0
 31169  1  0  0  0  0
 33170  1  0  0  0  0
 34171  1  0  0  0  0
 36172  1  0  0  0  0
 36173  1  0  0  0  0
 36174  1  0  0  0  0
 37175  1  0  0  0  0
 38176  1  0  0  0  0
 45177  1  0  0  0  0
 46178  1  0  0  0  0
 48179  1  0  0  0  0
 48180  1  0  0  0  0
 48181  1  0  0  0  0
 49182  1  0  0  0  0
 50183  1  0  0  0  0
 52184  1  0  0  0  0
 53185  1  0  0  0  0
 55186  1  0  0  0  0
 55187  1  0  0  0  0
 55188  1  0  0  0  0
 56189  1  0  0  0  0
 57190  1  0  0  0  0
 67191  1  0  0  0  0
 68192  1  0  0  0  0
 68193  1  0  0  0  0
 68194  1  0  0  0  0
 69195  1  0  0  0  0
 74196  1  0  0  0  0
 74197  1  0  0  0  0
 75198  1  0  0  0  0
 75199  1  0  0  0  0
 75200  1  0  0  0  0
 76201  1  0  0  0  0
 76202  1  0  0  0  0
 77203  1  0  0  0  0
 77204  1  0  0  0  0
 77205  1  0  0  0  0
 79206  1  0  0  0  0
 83207  1  0  0  0  0
 83208  1  0  0  0  0
 84209  1  0  0  0  0
 84210  1  0  0  0  0
 84211  1  0  0  0  0
 85212  1  0  0  0  0
 85213  1  0  0  0  0
 86214  1  0  0  0  0
 86215  1  0  0  0  0
 86216  1  0  0  0  0
 87217  1  0  0  0  0
 92218  1  0  0  0  0
 95219  1  0  0  0  0
 95220  1  0  0  0  0
 95221  1  0  0  0  0
 97222  1  0  0  0  0
102223  1  0  0  0  0
103224  1  0  0  0  0
105225  1  0  0  0  0
105226  1  0  0  0  0
105227  1  0  0  0  0
106228  1  0  0  0  0
107229  1  0  0  0  0
109230  1  0  0  0  0
110231  1  0  0  0  0
112232  1  0  0  0  0
112233  1  0  0  0  0
112234  1  0  0  0  0
113235  1  0  0  0  0
114236  1  0  0  0  0
121237  1  0  0  0  0
122238  1  0  0  0  0
124239  1  0  0  0  0
124240  1  0  0  0  0
124241  1  0  0  0  0
125242  1  0  0  0  0
126243  1  0  0  0  0
128244  1  0  0  0  0
129245  1  0  0  0  0
131246  1  0  0  0  0
131247  1  0  0  0  0
131248  1  0  0  0  0
132249  1  0  0  0  0
133250  1  0  0  0  0
136251  1  0  0  0  0
141252  1  0  0  0  0
143253  1  0  0  0  0
144254  1  0  0  0  0
147255  1  0  0  0  0
149256  1  0  0  0  0
M  END
