
  xtb     02062207203D
 energy: -371.229835172258 gnorm: 0.000407055555 xtb: 6.4.1 (unknown)
217240  0     0  0            999 V2000
   -5.5261    8.1629    2.2670 C   0  0  0  0  0  0  0  0  0  0  0  0
   -4.8264    9.3536    2.2793 C   0  0  0  0  0  0  0  0  0  0  0  0
   -3.4780    9.5689    1.7563 C   0  0  0  0  0  0  0  0  0  0  0  0
   -2.7804    8.7917    1.1248 O   0  0  0  0  0  0  0  0  0  0  0  0
   -3.0922   10.9317    2.1671 C   0  0  0  0  0  0  0  0  0  0  0  0
   -1.9279   11.5996    1.9275 C   0  0  0  0  0  0  0  0  0  0  0  0
   -1.7753   12.9153    2.4208 C   0  0  0  0  0  0  0  0  0  0  0  0
   -0.5964   13.6547    2.1998 C   0  0  0  0  0  0  0  0  0  0  0  0
   -0.4617   14.9275    2.6815 C   0  0  0  0  0  0  0  0  0  0  0  0
   -1.5196   15.4921    3.4053 C   0  0  0  0  0  0  0  0  0  0  0  0
   -1.3689   16.7463    3.8734 F   0  0  0  0  0  0  0  0  0  0  0  0
   -2.6845   14.8187    3.6476 C   0  0  0  0  0  0  0  0  0  0  0  0
   -2.8410   13.5081    3.1571 C   0  0  0  0  0  0  0  0  0  0  0  0
   -4.0390   12.7892    3.3856 C   0  0  0  0  0  0  0  0  0  0  0  0
   -4.1643   11.5175    2.8962 C   0  0  0  0  0  0  0  0  0  0  0  0
   -5.2639   10.5547    2.9467 C   0  0  0  0  0  0  0  0  0  0  0  0
   -6.4940   10.7945    3.5146 C   0  0  0  0  0  0  0  0  0  0  0  0
   -6.8185   11.9649    4.2270 C   0  0  0  0  0  0  0  0  0  0  0  0
   -7.1425   12.8816    4.8393 N   0  0  0  0  0  0  0  0  0  0  0  0
   -7.6079    9.9380    3.4503 C   0  0  0  0  0  0  0  0  0  0  0  0
   -8.5749    9.3159    3.4159 N   0  0  0  0  0  0  0  0  0  0  0  0
   -5.2186    6.9422    1.6770 C   0  0  0  0  0  0  0  0  0  0  0  0
   -6.0197    5.7766    1.8312 C   0  0  0  0  0  0  0  0  0  0  0  0
   -7.0398    5.6405    2.7328 N   0  0  0  0  0  0  0  0  0  0  0  0
   -6.9818    6.2287    4.0124 C   0  0  0  0  0  0  0  0  0  0  0  0
   -8.1362    6.7380    4.6019 C   0  0  0  0  0  0  0  0  0  0  0  0
   -8.0723    7.3179    5.8529 C   0  0  0  0  0  0  0  0  0  0  0  0
   -6.8688    7.4134    6.5419 C   0  0  0  0  0  0  0  0  0  0  0  0
   -6.8132    8.0854    7.8787 C   0  0  0  0  0  0  0  0  0  0  0  0
   -5.7268    6.8824    5.9531 C   0  0  0  0  0  0  0  0  0  0  0  0
   -5.7770    6.2876    4.7084 C   0  0  0  0  0  0  0  0  0  0  0  0
   -8.1499    4.8358    2.4198 C   0  0  0  0  0  0  0  0  0  0  0  0
   -8.7110    4.0065    3.3881 C   0  0  0  0  0  0  0  0  0  0  0  0
   -9.8509    3.2855    3.1028 C   0  0  0  0  0  0  0  0  0  0  0  0
  -10.4590    3.3660    1.8538 C   0  0  0  0  0  0  0  0  0  0  0  0
  -11.7315    2.6224    1.5899 C   0  0  0  0  0  0  0  0  0  0  0  0
   -9.8706    4.1673    0.8835 C   0  0  0  0  0  0  0  0  0  0  0  0
   -8.7290    4.8963    1.1564 C   0  0  0  0  0  0  0  0  0  0  0  0
   -5.5795    4.7517    0.9783 C   0  0  0  0  0  0  0  0  0  0  0  0
   -6.0780    3.1137    0.6868 S   0  0  0  0  0  0  0  0  0  0  0  0
   -4.6888    2.8577   -0.3575 C   0  0  0  0  0  0  0  0  0  0  0  0
   -3.9312    4.0095   -0.5194 C   0  0  0  0  0  0  0  0  0  0  0  0
   -2.8205    4.1183   -1.3354 N   0  0  0  0  0  0  0  0  0  0  0  0
   -1.7813    4.9784   -0.9374 C   0  0  0  0  0  0  0  0  0  0  0  0
   -1.3537    4.9913    0.3874 C   0  0  0  0  0  0  0  0  0  0  0  0
   -0.3816    5.8830    0.7917 C   0  0  0  0  0  0  0  0  0  0  0  0
    0.1937    6.7708   -0.1090 C   0  0  0  0  0  0  0  0  0  0  0  0
    1.2018    7.7742    0.3588 C   0  0  0  0  0  0  0  0  0  0  0  0
   -0.2117    6.7228   -1.4365 C   0  0  0  0  0  0  0  0  0  0  0  0
   -1.1884    5.8402   -1.8531 C   0  0  0  0  0  0  0  0  0  0  0  0
   -2.7269    3.4142   -2.5423 C   0  0  0  0  0  0  0  0  0  0  0  0
   -1.5024    2.8850   -2.9465 C   0  0  0  0  0  0  0  0  0  0  0  0
   -1.4199    2.1188   -4.0910 C   0  0  0  0  0  0  0  0  0  0  0  0
   -2.5408    1.8782   -4.8771 C   0  0  0  0  0  0  0  0  0  0  0  0
   -2.4606    0.9913   -6.0814 C   0  0  0  0  0  0  0  0  0  0  0  0
   -3.7443    2.4596   -4.4990 C   0  0  0  0  0  0  0  0  0  0  0  0
   -3.8463    3.2078   -3.3433 C   0  0  0  0  0  0  0  0  0  0  0  0
   -4.4449    5.0826    0.2467 C   0  0  0  0  0  0  0  0  0  0  0  0
   -3.8752    6.6792    0.5628 S   0  0  0  0  0  0  0  0  0  0  0  0
   -4.2717    1.5736   -0.8521 C   0  0  0  0  0  0  0  0  0  0  0  0
   -4.8471    0.6691   -1.7154 C   0  0  0  0  0  0  0  0  0  0  0  0
   -6.2114    0.7099   -2.2431 C   0  0  0  0  0  0  0  0  0  0  0  0
   -6.4293    0.4896   -3.6010 C   0  0  0  0  0  0  0  0  0  0  0  0
   -7.7152    0.4981   -4.1048 C   0  0  0  0  0  0  0  0  0  0  0  0
   -8.7932    0.7019   -3.2615 C   0  0  0  0  0  0  0  0  0  0  0  0
   -8.5956    0.8952   -1.9004 C   0  0  0  0  0  0  0  0  0  0  0  0
   -9.7636    1.0243   -0.9677 C   0  0  0  0  0  0  0  0  0  0  0  0
  -10.2263   -0.3601   -0.5099 C   0  0  0  0  0  0  0  0  0  0  0  0
   -7.3015    0.9000   -1.4027 C   0  0  0  0  0  0  0  0  0  0  0  0
   -3.9259   -0.3388   -2.0865 C   0  0  0  0  0  0  0  0  0  0  0  0
   -4.0559   -1.7169   -3.1520 S   0  0  0  0  0  0  0  0  0  0  0  0
   -2.4214   -2.1415   -2.7700 C   0  0  0  0  0  0  0  0  0  0  0  0
   -1.5053   -3.1782   -3.0139 C   0  0  0  0  0  0  0  0  0  0  0  0
   -1.6527   -4.4248   -3.6626 C   0  0  0  0  0  0  0  0  0  0  0  0
   -0.6202   -5.4137   -3.5131 C   0  0  0  0  0  0  0  0  0  0  0  0
   -0.9332   -6.5614   -4.0927 N   0  0  0  0  0  0  0  0  0  0  0  0
   -2.3930   -6.4107   -4.7776 S   0  0  0  0  0  0  0  0  0  0  0  0
   -2.6867   -4.8751   -4.3549 N   0  0  0  0  0  0  0  0  0  0  0  0
    0.5727   -5.0633   -2.8426 C   0  0  0  0  0  0  0  0  0  0  0  0
    1.7544   -5.7775   -2.5859 C   0  0  0  0  0  0  0  0  0  0  0  0
    2.3900   -7.3772   -2.7744 S   0  0  0  0  0  0  0  0  0  0  0  0
    3.8771   -6.8391   -2.0207 C   0  0  0  0  0  0  0  0  0  0  0  0
    5.0645   -7.4985   -1.7046 C   0  0  0  0  0  0  0  0  0  0  0  0
    5.2964   -8.8949   -2.0912 C   0  0  0  0  0  0  0  0  0  0  0  0
    6.3495   -9.2218   -2.9434 C   0  0  0  0  0  0  0  0  0  0  0  0
    6.5201  -10.5291   -3.3509 C   0  0  0  0  0  0  0  0  0  0  0  0
    5.6452  -11.5132   -2.9239 C   0  0  0  0  0  0  0  0  0  0  0  0
    4.5862  -11.2024   -2.0832 C   0  0  0  0  0  0  0  0  0  0  0  0
    3.5967  -12.2494   -1.6622 C   0  0  0  0  0  0  0  0  0  0  0  0
    2.3696  -12.2151   -2.5753 C   0  0  0  0  0  0  0  0  0  0  0  0
    4.4169   -9.8863   -1.6784 C   0  0  0  0  0  0  0  0  0  0  0  0
    5.9804   -6.6448   -1.0766 C   0  0  0  0  0  0  0  0  0  0  0  0
    5.3779   -4.9908   -0.9833 S   0  0  0  0  0  0  0  0  0  0  0  0
    3.8709   -5.4845   -1.6641 C   0  0  0  0  0  0  0  0  0  0  0  0
    2.6514   -4.8849   -1.9883 C   0  0  0  0  0  0  0  0  0  0  0  0
    2.0680   -3.6495   -1.8523 N   0  0  0  0  0  0  0  0  0  0  0  0
    0.7759   -3.7486   -2.3364 C   0  0  0  0  0  0  0  0  0  0  0  0
   -0.3219   -2.8535   -2.2949 C   0  0  0  0  0  0  0  0  0  0  0  0
   -0.5356   -1.6749   -1.6054 N   0  0  0  0  0  0  0  0  0  0  0  0
   -1.8056   -1.2510   -1.8870 C   0  0  0  0  0  0  0  0  0  0  0  0
   -2.6736   -0.2252   -1.4893 C   0  0  0  0  0  0  0  0  0  0  0  0
   -2.6103    1.1390   -0.4393 S   0  0  0  0  0  0  0  0  0  0  0  0
    0.1990   -1.0902   -0.5066 C   0  0  0  0  0  0  0  0  0  0  0  0
    0.7823    0.2748   -0.8719 C   0  0  0  0  0  0  0  0  0  0  0  0
    2.9176   -2.4788   -1.8009 C   0  0  0  0  0  0  0  0  0  0  0  0
    3.7837   -2.3685   -3.0559 C   0  0  0  0  0  0  0  0  0  0  0  0
    7.1623   -7.0727   -0.4284 C   0  0  0  0  0  0  0  0  0  0  0  0
    7.3377   -8.7777   -0.1238 S   0  0  0  0  0  0  0  0  0  0  0  0
    8.8663   -8.5446    0.6781 C   0  0  0  0  0  0  0  0  0  0  0  0
    9.2329   -7.1932    0.6610 C   0  0  0  0  0  0  0  0  0  0  0  0
   10.5330   -6.7020    1.1493 C   0  0  0  0  0  0  0  0  0  0  0  0
   11.4751   -7.4380    1.3971 O   0  0  0  0  0  0  0  0  0  0  0  0
   10.5978   -5.2497    1.2754 C   0  0  0  0  0  0  0  0  0  0  0  0
   11.6288   -4.5639    1.8676 C   0  0  0  0  0  0  0  0  0  0  0  0
   12.8368   -5.0984    2.5462 C   0  0  0  0  0  0  0  0  0  0  0  0
   12.4966   -5.6307    3.9424 C   0  0  0  0  0  0  0  0  0  0  0  0
   11.3360   -2.8590    1.8179 S   0  0  0  0  0  0  0  0  0  0  0  0
    9.8377   -3.0610    0.9760 C   0  0  0  0  0  0  0  0  0  0  0  0
    9.0490   -1.8710    0.5646 C   0  0  0  0  0  0  0  0  0  0  0  0
    9.3584   -1.4900   -0.8863 C   0  0  0  0  0  0  0  0  0  0  0  0
    9.5778   -4.3914    0.7542 C   0  0  0  0  0  0  0  0  0  0  0  0
    8.3868   -4.9019    0.0814 C   0  0  0  0  0  0  0  0  0  0  0  0
    7.5486   -4.1541   -0.4143 O   0  0  0  0  0  0  0  0  0  0  0  0
    8.2558   -6.3525    0.0886 C   0  0  0  0  0  0  0  0  0  0  0  0
    9.5833   -9.5418    1.3587 C   0  0  0  0  0  0  0  0  0  0  0  0
    9.3517  -10.8883    1.4454 C   0  0  0  0  0  0  0  0  0  0  0  0
    8.3780  -11.6653    0.6631 C   0  0  0  0  0  0  0  0  0  0  0  0
    7.4958  -11.2395   -0.0574 O   0  0  0  0  0  0  0  0  0  0  0  0
    8.6967  -13.0818    0.9250 C   0  0  0  0  0  0  0  0  0  0  0  0
    8.1219  -14.2275    0.4003 C   0  0  0  0  0  0  0  0  0  0  0  0
    6.8331  -14.1252   -0.7247 Cl  0  0  0  0  0  0  0  0  0  0  0  0
    8.6098  -15.4685    0.8039 C   0  0  0  0  0  0  0  0  0  0  0  0
    9.6507  -15.5422    1.7126 C   0  0  0  0  0  0  0  0  0  0  0  0
   10.2330  -14.4003    2.2517 C   0  0  0  0  0  0  0  0  0  0  0  0
    9.7504  -13.1650    1.8563 C   0  0  0  0  0  0  0  0  0  0  0  0
   10.1278  -11.8078    2.2514 C   0  0  0  0  0  0  0  0  0  0  0  0
   10.9820  -11.4789    3.2707 C   0  0  0  0  0  0  0  0  0  0  0  0
   11.1987  -10.1732    3.7659 C   0  0  0  0  0  0  0  0  0  0  0  0
   11.3892   -9.1623    4.2761 N   0  0  0  0  0  0  0  0  0  0  0  0
   11.7109  -12.4226    4.0244 C   0  0  0  0  0  0  0  0  0  0  0  0
   12.3365  -13.1404    4.6656 N   0  0  0  0  0  0  0  0  0  0  0  0
   -6.4624    8.1682    2.8098 H   0  0  0  0  0  0  0  0  0  0  0  0
   -1.1336   11.1331    1.3639 H   0  0  0  0  0  0  0  0  0  0  0  0
    0.2050   13.1975    1.6388 H   0  0  0  0  0  0  0  0  0  0  0  0
    0.4333   15.5072    2.5200 H   0  0  0  0  0  0  0  0  0  0  0  0
   -3.4790   15.2859    4.2083 H   0  0  0  0  0  0  0  0  0  0  0  0
   -4.8269   13.2690    3.9435 H   0  0  0  0  0  0  0  0  0  0  0  0
   -9.0737    6.6926    4.0710 H   0  0  0  0  0  0  0  0  0  0  0  0
   -8.9713    7.7220    6.2929 H   0  0  0  0  0  0  0  0  0  0  0  0
   -7.6069    7.7178    8.5264 H   0  0  0  0  0  0  0  0  0  0  0  0
   -5.8553    7.9148    8.3635 H   0  0  0  0  0  0  0  0  0  0  0  0
   -6.9534    9.1602    7.7614 H   0  0  0  0  0  0  0  0  0  0  0  0
   -4.7839    6.9272    6.4789 H   0  0  0  0  0  0  0  0  0  0  0  0
   -4.8822    5.8734    4.2671 H   0  0  0  0  0  0  0  0  0  0  0  0
   -8.2530    3.9412    4.3638 H   0  0  0  0  0  0  0  0  0  0  0  0
  -10.2836    2.6526    3.8638 H   0  0  0  0  0  0  0  0  0  0  0  0
  -11.6399    1.5832    1.9004 H   0  0  0  0  0  0  0  0  0  0  0  0
  -11.9944    2.6549    0.5364 H   0  0  0  0  0  0  0  0  0  0  0  0
  -12.5460    3.0676    2.1612 H   0  0  0  0  0  0  0  0  0  0  0  0
  -10.3203    4.2402   -0.0958 H   0  0  0  0  0  0  0  0  0  0  0  0
   -8.2988    5.5374    0.4012 H   0  0  0  0  0  0  0  0  0  0  0  0
   -1.7942    4.3025    1.0943 H   0  0  0  0  0  0  0  0  0  0  0  0
   -0.0679    5.8956    1.8254 H   0  0  0  0  0  0  0  0  0  0  0  0
    1.9165    7.3193    1.0422 H   0  0  0  0  0  0  0  0  0  0  0  0
    0.6906    8.5749    0.8934 H   0  0  0  0  0  0  0  0  0  0  0  0
    1.7406    8.2096   -0.4792 H   0  0  0  0  0  0  0  0  0  0  0  0
    0.2287    7.4002   -2.1541 H   0  0  0  0  0  0  0  0  0  0  0  0
   -1.5101    5.8236   -2.8842 H   0  0  0  0  0  0  0  0  0  0  0  0
   -0.6244    3.0667   -2.3434 H   0  0  0  0  0  0  0  0  0  0  0  0
   -0.4688    1.6910   -4.3749 H   0  0  0  0  0  0  0  0  0  0  0  0
   -3.2207    1.2578   -6.8120 H   0  0  0  0  0  0  0  0  0  0  0  0
   -1.4812    1.0561   -6.5500 H   0  0  0  0  0  0  0  0  0  0  0  0
   -2.6245   -0.0471   -5.7880 H   0  0  0  0  0  0  0  0  0  0  0  0
   -4.6205    2.3256   -5.1160 H   0  0  0  0  0  0  0  0  0  0  0  0
   -4.7967    3.6342   -3.0570 H   0  0  0  0  0  0  0  0  0  0  0  0
   -5.5893    0.3210   -4.2559 H   0  0  0  0  0  0  0  0  0  0  0  0
   -7.8787    0.3367   -5.1602 H   0  0  0  0  0  0  0  0  0  0  0  0
   -9.7977    0.7000   -3.6599 H   0  0  0  0  0  0  0  0  0  0  0  0
  -10.5881    1.5279   -1.4766 H   0  0  0  0  0  0  0  0  0  0  0  0
   -9.4766    1.6171   -0.0979 H   0  0  0  0  0  0  0  0  0  0  0  0
  -10.5049   -0.9696   -1.3667 H   0  0  0  0  0  0  0  0  0  0  0  0
   -9.4255   -0.8671    0.0234 H   0  0  0  0  0  0  0  0  0  0  0  0
  -11.0864   -0.2770    0.1503 H   0  0  0  0  0  0  0  0  0  0  0  0
   -7.1420    1.0227   -0.3414 H   0  0  0  0  0  0  0  0  0  0  0  0
    7.0251   -8.4479   -3.2794 H   0  0  0  0  0  0  0  0  0  0  0  0
    7.3382  -10.7831   -4.0091 H   0  0  0  0  0  0  0  0  0  0  0  0
    5.7877  -12.5341   -3.2484 H   0  0  0  0  0  0  0  0  0  0  0  0
    3.2853  -12.0688   -0.6313 H   0  0  0  0  0  0  0  0  0  0  0  0
    4.0567  -13.2380   -1.7115 H   0  0  0  0  0  0  0  0  0  0  0  0
    2.6596  -12.4143   -3.6047 H   0  0  0  0  0  0  0  0  0  0  0  0
    1.8968  -11.2363   -2.5385 H   0  0  0  0  0  0  0  0  0  0  0  0
    1.6445  -12.9650   -2.2674 H   0  0  0  0  0  0  0  0  0  0  0  0
    3.6003   -9.6287   -1.0192 H   0  0  0  0  0  0  0  0  0  0  0  0
   -0.5016   -0.9540    0.3254 H   0  0  0  0  0  0  0  0  0  0  0  0
    0.9687   -1.7896   -0.1793 H   0  0  0  0  0  0  0  0  0  0  0  0
    1.4040    0.6392   -0.0590 H   0  0  0  0  0  0  0  0  0  0  0  0
    1.3807    0.2277   -1.7792 H   0  0  0  0  0  0  0  0  0  0  0  0
   -0.0204    0.9874   -1.0389 H   0  0  0  0  0  0  0  0  0  0  0  0
    3.5596   -2.5578   -0.9181 H   0  0  0  0  0  0  0  0  0  0  0  0
    2.3024   -1.5894   -1.7280 H   0  0  0  0  0  0  0  0  0  0  0  0
    3.1573   -2.3491   -3.9456 H   0  0  0  0  0  0  0  0  0  0  0  0
    4.3652   -1.4516   -3.0154 H   0  0  0  0  0  0  0  0  0  0  0  0
    4.4707   -3.2063   -3.1287 H   0  0  0  0  0  0  0  0  0  0  0  0
   13.2409   -5.9193    1.9508 H   0  0  0  0  0  0  0  0  0  0  0  0
   13.5859   -4.3080    2.6255 H   0  0  0  0  0  0  0  0  0  0  0  0
   13.4073   -5.9435    4.4449 H   0  0  0  0  0  0  0  0  0  0  0  0
   12.0139   -4.8603    4.5402 H   0  0  0  0  0  0  0  0  0  0  0  0
   11.8374   -6.4908    3.8689 H   0  0  0  0  0  0  0  0  0  0  0  0
    7.9860   -2.1072    0.6436 H   0  0  0  0  0  0  0  0  0  0  0  0
    9.2847   -1.0328    1.2231 H   0  0  0  0  0  0  0  0  0  0  0  0
    8.8029   -0.5973   -1.1603 H   0  0  0  0  0  0  0  0  0  0  0  0
    9.0646   -2.2988   -1.5497 H   0  0  0  0  0  0  0  0  0  0  0  0
   10.4210   -1.2946   -1.0127 H   0  0  0  0  0  0  0  0  0  0  0  0
   10.4543   -9.1625    1.8808 H   0  0  0  0  0  0  0  0  0  0  0  0
    8.1690  -16.3664    0.4012 H   0  0  0  0  0  0  0  0  0  0  0  0
   10.0197  -16.5112    2.0122 H   0  0  0  0  0  0  0  0  0  0  0  0
   11.0429  -14.4903    2.9563 H   0  0  0  0  0  0  0  0  0  0  0  0
  1  2  2  0  0  0  0
  2  3  1  0  0  0  0
  3  4  2  0  0  0  0
  3  5  1  0  0  0  0
  5  6  2  0  0  0  0
  6  7  1  0  0  0  0
  7  8  2  0  0  0  0
  8  9  1  0  0  0  0
  9 10  2  0  0  0  0
 10 11  1  0  0  0  0
 10 12  1  0  0  0  0
 12 13  2  0  0  0  0
 13 14  1  0  0  0  0
 14 15  2  0  0  0  0
 15 16  1  0  0  0  0
 16 17  2  0  0  0  0
 17 18  1  0  0  0  0
 18 19  3  0  0  0  0
 17 20  1  0  0  0  0
 20 21  3  0  0  0  0
  1 22  1  0  0  0  0
 22 23  2  0  0  0  0
 23 24  1  0  0  0  0
 24 25  1  0  0  0  0
 25 26  2  0  0  0  0
 26 27  1  0  0  0  0
 27 28  2  0  0  0  0
 28 29  1  0  0  0  0
 28 30  1  0  0  0  0
 30 31  2  0  0  0  0
 24 32  1  0  0  0  0
 32 33  2  0  0  0  0
 33 34  1  0  0  0  0
 34 35  2  0  0  0  0
 35 36  1  0  0  0  0
 35 37  1  0  0  0  0
 37 38  2  0  0  0  0
 23 39  1  0  0  0  0
 39 40  1  0  0  0  0
 40 41  1  0  0  0  0
 41 42  2  0  0  0  0
 42 43  1  0  0  0  0
 43 44  1  0  0  0  0
 44 45  2  0  0  0  0
 45 46  1  0  0  0  0
 46 47  2  0  0  0  0
 47 48  1  0  0  0  0
 47 49  1  0  0  0  0
 49 50  2  0  0  0  0
 43 51  1  0  0  0  0
 51 52  2  0  0  0  0
 52 53  1  0  0  0  0
 53 54  2  0  0  0  0
 54 55  1  0  0  0  0
 54 56  1  0  0  0  0
 56 57  2  0  0  0  0
 42 58  1  0  0  0  0
 58 59  1  0  0  0  0
 41 60  1  0  0  0  0
 60 61  2  0  0  0  0
 61 62  1  0  0  0  0
 62 63  2  0  0  0  0
 63 64  1  0  0  0  0
 64 65  2  0  0  0  0
 65 66  1  0  0  0  0
 66 67  1  0  0  0  0
 67 68  1  0  0  0  0
 66 69  2  0  0  0  0
 61 70  1  0  0  0  0
 70 71  1  0  0  0  0
 71 72  1  0  0  0  0
 72 73  1  0  0  0  0
 73 74  1  0  0  0  0
 74 75  1  0  0  0  0
 75 76  2  0  0  0  0
 76 77  1  0  0  0  0
 77 78  1  0  0  0  0
 75 79  1  0  0  0  0
 79 80  1  0  0  0  0
 80 81  1  0  0  0  0
 81 82  1  0  0  0  0
 82 83  1  0  0  0  0
 83 84  1  0  0  0  0
 84 85  2  0  0  0  0
 85 86  1  0  0  0  0
 86 87  2  0  0  0  0
 87 88  1  0  0  0  0
 88 89  1  0  0  0  0
 89 90  1  0  0  0  0
 88 91  2  0  0  0  0
 83 92  2  0  0  0  0
 92 93  1  0  0  0  0
 93 94  1  0  0  0  0
 94 95  1  0  0  0  0
 95 96  1  0  0  0  0
 96 97  1  0  0  0  0
 97 98  1  0  0  0  0
 98 99  1  0  0  0  0
 99100  1  0  0  0  0
100101  1  0  0  0  0
101102  1  0  0  0  0
 99103  1  0  0  0  0
103104  1  0  0  0  0
 96105  1  0  0  0  0
105106  1  0  0  0  0
 92107  1  0  0  0  0
107108  1  0  0  0  0
108109  1  0  0  0  0
109110  2  0  0  0  0
110111  1  0  0  0  0
111112  2  0  0  0  0
111113  1  0  0  0  0
113114  2  0  0  0  0
114115  1  0  0  0  0
115116  1  0  0  0  0
114117  1  0  0  0  0
117118  1  0  0  0  0
118119  1  0  0  0  0
119120  1  0  0  0  0
118121  2  0  0  0  0
121122  1  0  0  0  0
122123  2  0  0  0  0
122124  1  0  0  0  0
109125  1  0  0  0  0
125126  2  0  0  0  0
126127  1  0  0  0  0
127128  2  0  0  0  0
127129  1  0  0  0  0
129130  2  0  0  0  0
130131  1  0  0  0  0
130132  1  0  0  0  0
132133  2  0  0  0  0
133134  1  0  0  0  0
134135  2  0  0  0  0
135136  1  0  0  0  0
136137  2  0  0  0  0
137138  1  0  0  0  0
138139  3  0  0  0  0
137140  1  0  0  0  0
140141  3  0  0  0  0
 16  2  1  0  0  0  0
 59 22  1  0  0  0  0
102 60  1  0  0  0  0
124107  2  0  0  0  0
136126  1  0  0  0  0
 15  5  1  0  0  0  0
 31 25  1  0  0  0  0
 38 32  1  0  0  0  0
 58 39  2  0  0  0  0
 69 62  1  0  0  0  0
101 70  2  0  0  0  0
124110  1  0  0  0  0
135129  1  0  0  0  0
 13  7  1  0  0  0  0
 50 44  1  0  0  0  0
 57 51  1  0  0  0  0
100 72  2  0  0  0  0
121113  1  0  0  0  0
 98 73  2  0  0  0  0
 78 74  2  0  0  0  0
 97 79  2  0  0  0  0
 95 80  2  0  0  0  0
 94 82  2  0  0  0  0
 91 84  1  0  0  0  0
  1142  1  0  0  0  0
  6143  1  0  0  0  0
  8144  1  0  0  0  0
  9145  1  0  0  0  0
 12146  1  0  0  0  0
 14147  1  0  0  0  0
 26148  1  0  0  0  0
 27149  1  0  0  0  0
 29150  1  0  0  0  0
 29151  1  0  0  0  0
 29152  1  0  0  0  0
 30153  1  0  0  0  0
 31154  1  0  0  0  0
 33155  1  0  0  0  0
 34156  1  0  0  0  0
 36157  1  0  0  0  0
 36158  1  0  0  0  0
 36159  1  0  0  0  0
 37160  1  0  0  0  0
 38161  1  0  0  0  0
 45162  1  0  0  0  0
 46163  1  0  0  0  0
 48164  1  0  0  0  0
 48165  1  0  0  0  0
 48166  1  0  0  0  0
 49167  1  0  0  0  0
 50168  1  0  0  0  0
 52169  1  0  0  0  0
 53170  1  0  0  0  0
 55171  1  0  0  0  0
 55172  1  0  0  0  0
 55173  1  0  0  0  0
 56174  1  0  0  0  0
 57175  1  0  0  0  0
 63176  1  0  0  0  0
 64177  1  0  0  0  0
 65178  1  0  0  0  0
 67179  1  0  0  0  0
 67180  1  0  0  0  0
 68181  1  0  0  0  0
 68182  1  0  0  0  0
 68183  1  0  0  0  0
 69184  1  0  0  0  0
 85185  1  0  0  0  0
 86186  1  0  0  0  0
 87187  1  0  0  0  0
 89188  1  0  0  0  0
 89189  1  0  0  0  0
 90190  1  0  0  0  0
 90191  1  0  0  0  0
 90192  1  0  0  0  0
 91193  1  0  0  0  0
103194  1  0  0  0  0
103195  1  0  0  0  0
104196  1  0  0  0  0
104197  1  0  0  0  0
104198  1  0  0  0  0
105199  1  0  0  0  0
105200  1  0  0  0  0
106201  1  0  0  0  0
106202  1  0  0  0  0
106203  1  0  0  0  0
115204  1  0  0  0  0
115205  1  0  0  0  0
116206  1  0  0  0  0
116207  1  0  0  0  0
116208  1  0  0  0  0
119209  1  0  0  0  0
119210  1  0  0  0  0
120211  1  0  0  0  0
120212  1  0  0  0  0
120213  1  0  0  0  0
125214  1  0  0  0  0
132215  1  0  0  0  0
133216  1  0  0  0  0
134217  1  0  0  0  0
M  END
