241

C         -1.39390        1.22870       -2.52350
C         -2.76490        1.23770       -2.35280
C         -3.59980        2.44550       -2.43920
O         -3.22300        3.58350       -2.65390
C         -4.99440        1.95620       -2.36530
C         -6.15750        2.66590       -2.36780
C         -7.38640        1.97920       -2.22770
C         -8.61520        2.66770       -2.19960
C         -9.79700        1.99530       -2.05050
C         -9.77220        0.60070       -1.92210
F        -10.94770       -0.03990       -1.77130
C         -8.60870       -0.11690       -1.94630
C         -7.38430        0.56050       -2.10090
C         -6.16250       -0.15180       -2.12560
C         -4.98840        0.53640       -2.25150
C         -3.60350        0.08180       -2.24670
C         -3.16220       -1.19950       -1.99840
C         -1.81230       -1.52410       -1.76180
N         -0.73870       -1.84540       -1.50310
C         -3.99220       -2.32610       -1.88450
N         -4.60140       -3.29780       -1.79510
C         -0.48700        2.21470       -2.14560
C         -0.53520        3.24760       -1.17890
N         -1.60760        3.64540       -0.42110
C         -1.71260        5.02200       -0.13390
C         -2.17140        5.45720        1.10470
C         -2.33420        6.80590        1.34940
C         -2.02090        7.75530        0.38480
C         -2.19200        9.21980        0.64940
C         -1.54380        7.31080       -0.84340
C         -1.40050        5.96470       -1.10990
C         -2.58900        2.77910        0.07010
C         -3.88950        3.23580        0.29550
C         -4.84300        2.40040        0.83860
C         -4.54700        1.08110        1.16200
C         -5.57340        0.17460        1.75540
C         -3.26180        0.62150        0.90140
C         -2.29830        1.44710        0.35860
C          0.74440        3.83440       -1.02820
S          1.45430        4.96100        0.09900
C          3.06460        4.68160       -0.55830
C          3.01500        3.81310       -1.64180
N          4.12950        3.49940       -2.45140
C          4.63120        2.19320       -2.46980
C          4.18730        1.22520       -1.57210
C          4.69950       -0.05620       -1.61150
C          5.67420       -0.41640       -2.53310
C          6.13930       -1.83700       -2.63760
C          6.17230        0.57460       -3.36940
C          5.67360        1.86170       -3.33440
C          4.12100        4.27000       -3.64910
C          3.84520        3.68710       -4.88200
C          3.81080        4.46480       -6.02150
C          4.03060        5.83720       -5.96320
C          3.99760        6.66170       -7.21330
C          4.27760        6.41220       -4.72440
C          4.32000        5.64210       -3.57690
C          1.72210        3.31900       -1.86890
S          1.12280        2.05380       -2.86660
C          4.27910        5.06680        0.07400
C          4.52470        5.61360        1.32560
C          3.51540        6.23900        2.23210
C          3.06860        5.24520        3.30530
C          5.84900        5.37240        1.73760
S          6.60790        5.36220        3.33040
C          7.79110        4.22280        2.74960
C          8.54590        3.14140        3.26110
C          8.87460        2.70590        4.57160
C          9.22100        1.31000        4.78100
N          9.49200        0.99240        6.02750
Se         9.33260        2.43200        7.03730
N          8.87410        3.44050        5.66260
C          9.06590        0.40800        3.69310
C          8.63770       -0.93670        3.66820
S          8.16290       -2.17940        4.79110
C          7.16480       -2.91270        3.54400
C          6.05130       -3.78210        3.61360
C          5.65840       -4.55900        4.82730
C          6.22420       -5.97830        4.76160
C          5.34070       -3.77240        2.44090
S          6.09530       -2.78750        1.19660
C          7.31670       -2.28820        2.30990
C          8.18340       -1.18750        2.36930
N          8.40110       -0.10060        1.57430
C          8.89970        0.90380        2.37360
C          8.81470        2.30020        2.14960
N          8.41250        2.92660        0.98300
C          7.70840        4.04220        1.36500
C          6.61760        4.69790        0.79080
S          5.75050        4.41710       -0.67130
C          9.04890        2.86130       -0.31540
C          9.98920        4.04930       -0.51630
C          7.94260       -0.07960        0.20850
C          8.98740       -0.65990       -0.74210
C          3.95790       -4.11720        2.19710
C          3.01410       -3.15890        1.99470
C          1.70550       -3.66370        1.80320
C          0.52520       -2.91360        1.62050
C          0.57440       -1.46500        1.59340
C          1.44110       -0.65740        0.90340
C          1.28610        0.70190        1.19970
C          0.29580        0.95840        2.12040
C         -0.07700        2.22630        2.65060
C         -1.15380        2.45200        3.43010
C         -1.46820        3.69930        4.04050
C         -2.59280        4.01740        4.76580
C         -2.58300        5.32280        5.27580
C         -1.45480        6.02240        4.94360
S         -1.03060        7.58550        5.60630
C         -0.66670        8.63300        4.14250
C          0.59200        8.24470        3.39710
S         -0.36810        5.05030        3.99330
S         -0.47290       -0.52500        2.61530
C         -0.65250       -3.64030        1.52150
C         -0.67550       -5.06030        1.53160
C          0.52170       -5.81450        1.63380
C          0.50920       -7.24150        1.44240
C          1.29940       -8.22570        1.99310
C          0.98440       -9.50310        1.53220
C         -0.04250       -9.53270        0.60160
C         -0.57360      -10.72370        0.03090
C         -1.62360      -10.98920       -0.78560
C         -2.62270      -10.21980       -1.45090
C         -3.62260      -10.80280       -2.20480
C         -4.50620       -9.90310       -2.80960
C         -4.19140       -8.59980       -2.52960
S         -4.96210       -7.11470       -3.02040
C         -6.25920       -7.73680       -4.15790
C         -7.05560       -6.56680       -4.70130
S         -2.80040       -8.48080       -1.50360
S         -0.59900       -7.92750        0.28880
C          1.68490       -5.07790        1.83960
S          3.28310       -5.72670        2.12600
C         -1.98330       -5.56320        1.44820
C         -2.95280       -4.60480        1.27550
S         -2.24960       -2.98910        1.31560
C         -4.31440       -4.74020        0.93570
C         -5.05240       -5.87910        0.73880
C         -4.70770       -7.27600        1.09110
O         -3.83820       -7.68500        1.83440
C         -5.70210       -8.12150        0.40810
C         -5.74580       -9.48320        0.34080
C         -6.75980      -10.09800       -0.42470
C         -6.82180      -11.49720       -0.58120
C         -7.79710      -12.07870       -1.34220
C         -8.74910      -11.25930       -1.96400
F         -9.70110      -11.84890       -2.71330
C         -8.73830       -9.89830       -1.84030
C         -7.73410       -9.28100       -1.06750
C         -7.67830       -7.87220       -0.95080
C         -6.65780       -7.29610       -0.24180
C         -6.30860       -5.90000        0.01200
C         -7.04220       -4.82690       -0.42250
C         -8.14810       -4.93080       -1.28910
N         -9.02800       -4.93640       -2.02790
C         -6.84690       -3.47520       -0.08340
N         -6.84350       -2.35370        0.17000
H         -0.95060        0.35660       -2.99180
H         -6.14510        3.74210       -2.45670
H         -8.61020        3.74310       -2.29860
H        -10.74570        2.50810       -2.02790
H         -8.62370       -1.19010       -1.83830
H         -6.18780       -1.22560       -2.03180
H         -2.42140        4.73400        1.86530
H         -2.72710        7.11620        2.30690
H         -2.50800        9.73850       -0.25300
H         -2.93040        9.39290        1.42880
H         -1.24650        9.65730        0.97170
H         -1.30620        8.03050       -1.61310
H         -1.08380        5.63390       -2.08720
H         -4.15160        4.24790        0.02820
H         -5.84160        2.77810        1.00430
H         -6.41550        0.74060        2.14510
H         -5.94910       -0.51720        1.00240
H         -5.13980       -0.41950        2.55770
H         -3.01000       -0.40360        1.12780
H         -1.30830        1.06190        0.17220
H          3.42880        1.47190       -0.84640
H          4.32690       -0.79970       -0.92160
H          5.38450       -2.43140       -3.15330
H          6.28640       -2.27730       -1.65340
H          7.06570       -1.90790       -3.20220
H          6.95900        0.33620       -4.07190
H          6.08180        2.61560       -3.99040
H          3.65250        2.62600       -4.94020
H          3.59710        4.00120       -6.97380
H          3.08020        6.47550       -7.76950
H          4.05860        7.72220       -6.98320
H          4.83570        6.40000       -7.85910
H          4.44000        7.47800       -4.65200
H          4.50840        6.10580       -2.62060
H          2.65350        6.58550        1.66090
H          3.97700        7.10190        2.71720
H          2.36500        5.71640        3.98390
H          2.58470        4.38510        2.84960
H          3.92310        4.89800        3.87970
H          4.56930       -4.60460        4.89550
H          6.04560       -4.04930        5.71150
H          5.94650       -6.53400        5.65340
H          7.30930       -5.95020        4.69350
H          5.83340       -6.49940        3.88990
H          9.62180        1.93810       -0.38010
H          8.27570        2.87220       -1.09190
H         10.74630        4.07050        0.26490
H          9.43410        4.98370       -0.48850
H         10.48280        3.96650       -1.48060
H          7.65950        0.93220       -0.07060
H          7.03800       -0.69080        0.15610
H          9.95400       -0.17870       -0.60800
H          8.66350       -0.52050       -1.76830
H          9.11280       -1.72330       -0.55400
H          3.24430       -2.10920        2.02830
H          2.13520       -1.03700        0.17570
H          1.87660        1.48670        0.75930
H          0.57640        3.05280        2.39580
H         -1.83790        1.64010        3.64280
H         -3.40120        3.32400        4.91510
H         -3.37020        5.74640        5.87260
H         -0.57330        9.62720        4.57960
H         -1.54170        8.60710        3.49680
H          0.46620        7.28830        2.89490
H          1.43410        8.17770        4.08180
H          0.81710        8.99830        2.64460
H          2.04900       -8.03280        2.73960
H          1.47890      -10.39480        1.87500
H         -0.02040      -11.59830        0.35710
H         -1.76330      -12.04490       -0.99810
H         -3.71240      -11.86880       -2.32060
H         -5.33300      -10.20960       -3.42330
H         -6.89330       -8.41810       -3.59070
H         -5.75270       -8.27680       -4.95820
H         -6.40130       -5.86710       -5.21630
H         -7.80280       -6.92880       -5.40400
H         -7.56250       -6.03560       -3.89890
H         -2.23460       -6.60100        1.54490
H         -4.79660       -3.80290        0.68640
H         -5.00100      -10.08160        0.84410
H         -6.07590      -12.10460       -0.09110
H         -7.85640      -13.14710       -1.47690
H         -9.48830       -9.29930       -2.33390
H         -8.43680       -7.28720       -1.44540
