
  xtb     02062216563D
 energy: -350.359115560893 gnorm: 0.000568250054 xtb: 6.4.1 (unknown)
205227  0     0  0            999 V2000
   -3.5184   -1.2720    4.4011 C   0  0  0  0  0  0  0  0  0  0  0  0
   -3.4459   -1.8131    5.6707 C   0  0  0  0  0  0  0  0  0  0  0  0
   -3.8989   -3.1698    6.0064 C   0  0  0  0  0  0  0  0  0  0  0  0
   -4.3484   -4.0083    5.2462 O   0  0  0  0  0  0  0  0  0  0  0  0
   -3.8148   -3.2565    7.4816 C   0  0  0  0  0  0  0  0  0  0  0  0
   -4.1249   -4.3009    8.2994 C   0  0  0  0  0  0  0  0  0  0  0  0
   -3.9277   -4.1675    9.6940 C   0  0  0  0  0  0  0  0  0  0  0  0
   -4.2202   -5.2199   10.5838 C   0  0  0  0  0  0  0  0  0  0  0  0
   -4.0222   -5.0822   11.9303 C   0  0  0  0  0  0  0  0  0  0  0  0
   -3.5178   -3.8709   12.4191 C   0  0  0  0  0  0  0  0  0  0  0  0
   -3.3256   -3.7532   13.7481 F   0  0  0  0  0  0  0  0  0  0  0  0
   -3.2176   -2.8184   11.5998 C   0  0  0  0  0  0  0  0  0  0  0  0
   -3.4174   -2.9429   10.2117 C   0  0  0  0  0  0  0  0  0  0  0  0
   -3.1166   -1.8708    9.3375 C   0  0  0  0  0  0  0  0  0  0  0  0
   -3.3122   -2.0273    7.9939 C   0  0  0  0  0  0  0  0  0  0  0  0
   -3.0689   -1.1277    6.8704 C   0  0  0  0  0  0  0  0  0  0  0  0
   -2.4293    0.0889    6.9328 C   0  0  0  0  0  0  0  0  0  0  0  0
   -1.9957    0.7031    8.1209 C   0  0  0  0  0  0  0  0  0  0  0  0
   -1.6206    1.2667    9.0499 N   0  0  0  0  0  0  0  0  0  0  0  0
   -2.0593    0.8482    5.8074 C   0  0  0  0  0  0  0  0  0  0  0  0
   -1.6874    1.5139    4.9466 N   0  0  0  0  0  0  0  0  0  0  0  0
   -3.4276   -1.9653    3.1964 C   0  0  0  0  0  0  0  0  0  0  0  0
   -2.8334   -3.2055    2.8677 C   0  0  0  0  0  0  0  0  0  0  0  0
   -2.1608   -4.0547    3.7017 N   0  0  0  0  0  0  0  0  0  0  0  0
   -1.4226   -3.6087    4.8037 C   0  0  0  0  0  0  0  0  0  0  0  0
   -0.7248   -2.4027    4.7583 C   0  0  0  0  0  0  0  0  0  0  0  0
   -0.0461   -1.9524    5.8712 C   0  0  0  0  0  0  0  0  0  0  0  0
   -0.0414   -2.6807    7.0571 C   0  0  0  0  0  0  0  0  0  0  0  0
    0.6565   -2.1553    8.2711 C   0  0  0  0  0  0  0  0  0  0  0  0
   -0.6928   -3.9078    7.0774 C   0  0  0  0  0  0  0  0  0  0  0  0
   -1.3748   -4.3723    5.9694 C   0  0  0  0  0  0  0  0  0  0  0  0
   -2.1398   -5.4252    3.3749 C   0  0  0  0  0  0  0  0  0  0  0  0
   -0.9568   -6.1536    3.4603 C   0  0  0  0  0  0  0  0  0  0  0  0
   -0.9492   -7.4923    3.1263 C   0  0  0  0  0  0  0  0  0  0  0  0
   -2.1075   -8.1333    2.6979 C   0  0  0  0  0  0  0  0  0  0  0  0
   -2.0749   -9.5870    2.3393 C   0  0  0  0  0  0  0  0  0  0  0  0
   -3.2835   -7.3975    2.6259 C   0  0  0  0  0  0  0  0  0  0  0  0
   -3.3078   -6.0585    2.9628 C   0  0  0  0  0  0  0  0  0  0  0  0
   -2.8794   -3.4199    1.4711 C   0  0  0  0  0  0  0  0  0  0  0  0
   -2.1152   -4.5794    0.4269 S   0  0  0  0  0  0  0  0  0  0  0  0
   -2.5260   -3.6133   -0.9782 C   0  0  0  0  0  0  0  0  0  0  0  0
   -3.2261   -2.4621   -0.6498 C   0  0  0  0  0  0  0  0  0  0  0  0
   -3.5681   -1.4483   -1.5360 N   0  0  0  0  0  0  0  0  0  0  0  0
   -2.5825   -0.8662   -2.3468 C   0  0  0  0  0  0  0  0  0  0  0  0
   -2.9195   -0.3294   -3.5879 C   0  0  0  0  0  0  0  0  0  0  0  0
   -1.9587    0.2795   -4.3677 C   0  0  0  0  0  0  0  0  0  0  0  0
   -0.6389    0.3795   -3.9392 C   0  0  0  0  0  0  0  0  0  0  0  0
    0.3692    1.1191   -4.7636 C   0  0  0  0  0  0  0  0  0  0  0  0
   -0.3046   -0.1753   -2.7119 C   0  0  0  0  0  0  0  0  0  0  0  0
   -1.2587   -0.7898   -1.9222 C   0  0  0  0  0  0  0  0  0  0  0  0
   -4.8412   -0.8769   -1.4119 C   0  0  0  0  0  0  0  0  0  0  0  0
   -5.0531    0.4884   -1.5883 C   0  0  0  0  0  0  0  0  0  0  0  0
   -6.3227    1.0129   -1.4590 C   0  0  0  0  0  0  0  0  0  0  0  0
   -7.4101    0.2067   -1.1412 C   0  0  0  0  0  0  0  0  0  0  0  0
   -8.7777    0.7982   -0.9833 C   0  0  0  0  0  0  0  0  0  0  0  0
   -7.1865   -1.1502   -0.9517 C   0  0  0  0  0  0  0  0  0  0  0  0
   -5.9230   -1.6893   -1.0854 C   0  0  0  0  0  0  0  0  0  0  0  0
   -3.4361   -2.3789    0.7434 C   0  0  0  0  0  0  0  0  0  0  0  0
   -3.9931   -1.1016    1.7540 S   0  0  0  0  0  0  0  0  0  0  0  0
   -1.9680   -3.8467   -2.2788 C   0  0  0  0  0  0  0  0  0  0  0  0
   -2.6199   -3.6714   -3.4858 C   0  0  0  0  0  0  0  0  0  0  0  0
   -4.0720   -3.7800   -3.5858 C   0  0  0  0  0  0  0  0  0  0  0  0
   -4.8105   -3.0217   -4.4897 C   0  0  0  0  0  0  0  0  0  0  0  0
   -6.1876   -3.1306   -4.5130 C   0  0  0  0  0  0  0  0  0  0  0  0
   -6.8401   -4.0110   -3.6666 C   0  0  0  0  0  0  0  0  0  0  0  0
   -6.1174   -4.8150   -2.7943 C   0  0  0  0  0  0  0  0  0  0  0  0
   -6.7947   -5.8140   -1.8968 C   0  0  0  0  0  0  0  0  0  0  0  0
   -6.7235   -5.4067   -0.4242 C   0  0  0  0  0  0  0  0  0  0  0  0
   -4.7379   -4.6844   -2.7609 C   0  0  0  0  0  0  0  0  0  0  0  0
   -1.6966   -3.4109   -4.5245 C   0  0  0  0  0  0  0  0  0  0  0  0
   -1.8486   -2.8097   -6.1622 S   0  0  0  0  0  0  0  0  0  0  0  0
   -0.1419   -2.4899   -6.2024 C   0  0  0  0  0  0  0  0  0  0  0  0
    0.7951   -1.7307   -6.9372 C   0  0  0  0  0  0  0  0  0  0  0  0
    0.7395   -0.9990   -8.1465 C   0  0  0  0  0  0  0  0  0  0  0  0
    1.8237   -0.1069   -8.4875 C   0  0  0  0  0  0  0  0  0  0  0  0
    1.6246    0.5038   -9.6429 N   0  0  0  0  0  0  0  0  0  0  0  0
    0.2088    0.0107  -10.2557 S   0  0  0  0  0  0  0  0  0  0  0  0
   -0.2149   -0.9984   -9.0618 N   0  0  0  0  0  0  0  0  0  0  0  0
    2.8541    0.1204   -7.5431 C   0  0  0  0  0  0  0  0  0  0  0  0
    3.7331    1.2032   -7.3437 C   0  0  0  0  0  0  0  0  0  0  0  0
    4.1016    2.7526   -8.0407 S   0  0  0  0  0  0  0  0  0  0  0  0
    4.8444    3.2537   -6.5289 C   0  0  0  0  0  0  0  0  0  0  0  0
    5.2494    4.4988   -6.0009 C   0  0  0  0  0  0  0  0  0  0  0  0
    5.3882    5.7247   -6.7826 C   0  0  0  0  0  0  0  0  0  0  0  0
    4.4964    6.0338   -7.8065 C   0  0  0  0  0  0  0  0  0  0  0  0
    4.6727    7.1865   -8.5485 C   0  0  0  0  0  0  0  0  0  0  0  0
    5.7350    8.0337   -8.2864 C   0  0  0  0  0  0  0  0  0  0  0  0
    6.6380    7.7403   -7.2708 C   0  0  0  0  0  0  0  0  0  0  0  0
    7.8220    8.6281   -7.0149 C   0  0  0  0  0  0  0  0  0  0  0  0
    9.0182    8.1752   -7.8544 C   0  0  0  0  0  0  0  0  0  0  0  0
    6.4564    6.5846   -6.5293 C   0  0  0  0  0  0  0  0  0  0  0  0
    5.5406    4.3986   -4.6442 C   0  0  0  0  0  0  0  0  0  0  0  0
    5.4774    2.7354   -4.0741 S   0  0  0  0  0  0  0  0  0  0  0  0
    4.8846    2.2159   -5.5969 C   0  0  0  0  0  0  0  0  0  0  0  0
    4.2678    1.0523   -6.0606 C   0  0  0  0  0  0  0  0  0  0  0  0
    3.8098   -0.0984   -5.4826 N   0  0  0  0  0  0  0  0  0  0  0  0
    2.9236   -0.6742   -6.3661 C   0  0  0  0  0  0  0  0  0  0  0  0
    1.9745   -1.6972   -6.1488 C   0  0  0  0  0  0  0  0  0  0  0  0
    1.8128   -2.5066   -5.0386 N   0  0  0  0  0  0  0  0  0  0  0  0
    0.5099   -2.9305   -5.0490 C   0  0  0  0  0  0  0  0  0  0  0  0
   -0.3697   -3.4513   -4.0986 C   0  0  0  0  0  0  0  0  0  0  0  0
   -0.2180   -3.8542   -2.4315 S   0  0  0  0  0  0  0  0  0  0  0  0
    2.8353   -3.2869   -4.3734 C   0  0  0  0  0  0  0  0  0  0  0  0
    2.7931   -4.7460   -4.8256 C   0  0  0  0  0  0  0  0  0  0  0  0
    3.9802   -0.3086   -4.0625 C   0  0  0  0  0  0  0  0  0  0  0  0
    5.3752   -0.8305   -3.7279 C   0  0  0  0  0  0  0  0  0  0  0  0
    5.4377    5.3905   -3.6058 C   0  0  0  0  0  0  0  0  0  0  0  0
    5.7696    5.0681   -2.2769 C   0  0  0  0  0  0  0  0  0  0  0  0
    6.6129    4.0387   -2.0311 F   0  0  0  0  0  0  0  0  0  0  0  0
    5.1977    5.6931   -1.2007 C   0  0  0  0  0  0  0  0  0  0  0  0
    4.3251    6.7669   -1.4077 C   0  0  0  0  0  0  0  0  0  0  0  0
    4.2092    7.2771   -2.7054 C   0  0  0  0  0  0  0  0  0  0  0  0
    4.7226    6.5862   -3.7789 C   0  0  0  0  0  0  0  0  0  0  0  0
    3.5092    7.2667   -0.3292 C   0  0  0  0  0  0  0  0  0  0  0  0
    2.8726    6.5031    0.5904 C   0  0  0  0  0  0  0  0  0  0  0  0
    2.3069    7.1215    1.8260 C   0  0  0  0  0  0  0  0  0  0  0  0
    2.1671    8.3042    2.0368 O   0  0  0  0  0  0  0  0  0  0  0  0
    2.0155    5.9937    2.7296 C   0  0  0  0  0  0  0  0  0  0  0  0
    1.5549    6.0168    4.0158 C   0  0  0  0  0  0  0  0  0  0  0  0
    1.3552    4.7983    4.7023 C   0  0  0  0  0  0  0  0  0  0  0  0
    0.8677    4.7664    6.0255 C   0  0  0  0  0  0  0  0  0  0  0  0
    0.6992    3.5818    6.6872 C   0  0  0  0  0  0  0  0  0  0  0  0
    1.0221    2.3890    6.0280 C   0  0  0  0  0  0  0  0  0  0  0  0
    0.8870    1.2330    6.7060 F   0  0  0  0  0  0  0  0  0  0  0  0
    1.4816    2.3594    4.7417 C   0  0  0  0  0  0  0  0  0  0  0  0
    1.6545    3.5698    4.0431 C   0  0  0  0  0  0  0  0  0  0  0  0
    2.1167    3.5741    2.7074 C   0  0  0  0  0  0  0  0  0  0  0  0
    2.2852    4.7670    2.0556 C   0  0  0  0  0  0  0  0  0  0  0  0
    2.6712    5.0643    0.6800 C   0  0  0  0  0  0  0  0  0  0  0  0
    2.5947    4.1702   -0.3541 C   0  0  0  0  0  0  0  0  0  0  0  0
    2.3523    2.7883   -0.2038 C   0  0  0  0  0  0  0  0  0  0  0  0
    2.1980    1.6504   -0.1812 N   0  0  0  0  0  0  0  0  0  0  0  0
    2.6410    4.4812   -1.7297 C   0  0  0  0  0  0  0  0  0  0  0  0
    2.5697    4.6135   -2.8684 N   0  0  0  0  0  0  0  0  0  0  0  0
   -3.6691   -0.2023    4.3106 H   0  0  0  0  0  0  0  0  0  0  0  0
   -4.5072   -5.2250    7.8917 H   0  0  0  0  0  0  0  0  0  0  0  0
   -4.6084   -6.1446   10.1834 H   0  0  0  0  0  0  0  0  0  0  0  0
   -4.2437   -5.8778   12.6239 H   0  0  0  0  0  0  0  0  0  0  0  0
   -2.8306   -1.8990   12.0109 H   0  0  0  0  0  0  0  0  0  0  0  0
   -2.7407   -0.9504    9.7558 H   0  0  0  0  0  0  0  0  0  0  0  0
   -0.7236   -1.8159    3.8516 H   0  0  0  0  0  0  0  0  0  0  0  0
    0.4771   -1.0103    5.8283 H   0  0  0  0  0  0  0  0  0  0  0  0
    0.6689   -1.0680    8.2657 H   0  0  0  0  0  0  0  0  0  0  0  0
    0.1660   -2.5026    9.1780 H   0  0  0  0  0  0  0  0  0  0  0  0
    1.6898   -2.5037    8.2908 H   0  0  0  0  0  0  0  0  0  0  0  0
   -0.6880   -4.4991    7.9818 H   0  0  0  0  0  0  0  0  0  0  0  0
   -1.8952   -5.3176    6.0045 H   0  0  0  0  0  0  0  0  0  0  0  0
   -0.0491   -5.6633    3.7804 H   0  0  0  0  0  0  0  0  0  0  0  0
   -0.0264   -8.0505    3.1904 H   0  0  0  0  0  0  0  0  0  0  0  0
   -1.8679  -10.1894    3.2236 H   0  0  0  0  0  0  0  0  0  0  0  0
   -1.2869   -9.7823    1.6136 H   0  0  0  0  0  0  0  0  0  0  0  0
   -3.0248   -9.9068    1.9191 H   0  0  0  0  0  0  0  0  0  0  0  0
   -4.1969   -7.8798    2.3093 H   0  0  0  0  0  0  0  0  0  0  0  0
   -4.2295   -5.4978    2.9368 H   0  0  0  0  0  0  0  0  0  0  0  0
   -3.9433   -0.3826   -3.9246 H   0  0  0  0  0  0  0  0  0  0  0  0
   -2.2366    0.6922   -5.3268 H   0  0  0  0  0  0  0  0  0  0  0  0
    0.2903    0.8468   -5.8146 H   0  0  0  0  0  0  0  0  0  0  0  0
    0.1976    2.1930   -4.6838 H   0  0  0  0  0  0  0  0  0  0  0  0
    1.3793    0.9172   -4.4190 H   0  0  0  0  0  0  0  0  0  0  0  0
    0.7101   -0.1021   -2.3474 H   0  0  0  0  0  0  0  0  0  0  0  0
   -0.9794   -1.1873   -0.9572 H   0  0  0  0  0  0  0  0  0  0  0  0
   -4.2201    1.1356   -1.8179 H   0  0  0  0  0  0  0  0  0  0  0  0
   -6.4719    2.0741   -1.5983 H   0  0  0  0  0  0  0  0  0  0  0  0
   -9.5441    0.0298   -1.0506 H   0  0  0  0  0  0  0  0  0  0  0  0
   -8.9641    1.5503   -1.7472 H   0  0  0  0  0  0  0  0  0  0  0  0
   -8.8656    1.2821   -0.0100 H   0  0  0  0  0  0  0  0  0  0  0  0
   -8.0150   -1.7982   -0.7030 H   0  0  0  0  0  0  0  0  0  0  0  0
   -5.7645   -2.7475   -0.9508 H   0  0  0  0  0  0  0  0  0  0  0  0
   -4.3052   -2.3469   -5.1623 H   0  0  0  0  0  0  0  0  0  0  0  0
   -6.7594   -2.5264   -5.2017 H   0  0  0  0  0  0  0  0  0  0  0  0
   -7.9173   -4.0877   -3.6978 H   0  0  0  0  0  0  0  0  0  0  0  0
   -6.3089   -6.7860   -2.0176 H   0  0  0  0  0  0  0  0  0  0  0  0
   -7.8406   -5.9211   -2.1905 H   0  0  0  0  0  0  0  0  0  0  0  0
   -7.2486   -4.4681   -0.2618 H   0  0  0  0  0  0  0  0  0  0  0  0
   -5.6896   -5.2847   -0.1070 H   0  0  0  0  0  0  0  0  0  0  0  0
   -7.1850   -6.1688    0.2000 H   0  0  0  0  0  0  0  0  0  0  0  0
   -4.1632   -5.3164   -2.0984 H   0  0  0  0  0  0  0  0  0  0  0  0
    3.6588    5.3839   -8.0052 H   0  0  0  0  0  0  0  0  0  0  0  0
    3.9754    7.4257   -9.3376 H   0  0  0  0  0  0  0  0  0  0  0  0
    5.8665    8.9313   -8.8733 H   0  0  0  0  0  0  0  0  0  0  0  0
    8.0899    8.5918   -5.9569 H   0  0  0  0  0  0  0  0  0  0  0  0
    7.5731    9.6601   -7.2698 H   0  0  0  0  0  0  0  0  0  0  0  0
    9.2888    7.1516   -7.6053 H   0  0  0  0  0  0  0  0  0  0  0  0
    9.8771    8.8165   -7.6708 H   0  0  0  0  0  0  0  0  0  0  0  0
    8.7740    8.2155   -8.9136 H   0  0  0  0  0  0  0  0  0  0  0  0
    7.1571    6.3381   -5.7439 H   0  0  0  0  0  0  0  0  0  0  0  0
    2.6774   -3.2368   -3.2906 H   0  0  0  0  0  0  0  0  0  0  0  0
    3.8088   -2.8706   -4.6244 H   0  0  0  0  0  0  0  0  0  0  0  0
    3.6002   -5.2982   -4.3519 H   0  0  0  0  0  0  0  0  0  0  0  0
    2.9102   -4.8110   -5.9053 H   0  0  0  0  0  0  0  0  0  0  0  0
    1.8492   -5.2083   -4.5491 H   0  0  0  0  0  0  0  0  0  0  0  0
    3.8440    0.6580   -3.5633 H   0  0  0  0  0  0  0  0  0  0  0  0
    3.2018   -0.9770   -3.7009 H   0  0  0  0  0  0  0  0  0  0  0  0
    5.4511   -1.0080   -2.6592 H   0  0  0  0  0  0  0  0  0  0  0  0
    6.1249   -0.0950   -4.0080 H   0  0  0  0  0  0  0  0  0  0  0  0
    5.5936   -1.7568   -4.2547 H   0  0  0  0  0  0  0  0  0  0  0  0
    5.4184    5.3399   -0.2046 H   0  0  0  0  0  0  0  0  0  0  0  0
    3.6012    8.1519   -2.8769 H   0  0  0  0  0  0  0  0  0  0  0  0
    4.4975    6.9180   -4.7790 H   0  0  0  0  0  0  0  0  0  0  0  0
    3.3878    8.3401   -0.2319 H   0  0  0  0  0  0  0  0  0  0  0  0
    1.3417    6.9565    4.5031 H   0  0  0  0  0  0  0  0  0  0  0  0
    0.6290    5.6999    6.5126 H   0  0  0  0  0  0  0  0  0  0  0  0
    0.3238    3.5357    7.6973 H   0  0  0  0  0  0  0  0  0  0  0  0
    1.7028    1.4202    4.2594 H   0  0  0  0  0  0  0  0  0  0  0  0
    2.3334    2.6305    2.2316 H   0  0  0  0  0  0  0  0  0  0  0  0
  1  2  2  0  0  0  0
  2  3  1  0  0  0  0
  3  4  2  0  0  0  0
  3  5  1  0  0  0  0
  5  6  2  0  0  0  0
  6  7  1  0  0  0  0
  7  8  2  0  0  0  0
  8  9  1  0  0  0  0
  9 10  2  0  0  0  0
 10 11  1  0  0  0  0
 10 12  1  0  0  0  0
 12 13  2  0  0  0  0
 13 14  1  0  0  0  0
 14 15  2  0  0  0  0
 15 16  1  0  0  0  0
 16 17  2  0  0  0  0
 17 18  1  0  0  0  0
 18 19  3  0  0  0  0
 17 20  1  0  0  0  0
 20 21  3  0  0  0  0
  1 22  1  0  0  0  0
 22 23  2  0  0  0  0
 23 24  1  0  0  0  0
 24 25  1  0  0  0  0
 25 26  2  0  0  0  0
 26 27  1  0  0  0  0
 27 28  2  0  0  0  0
 28 29  1  0  0  0  0
 28 30  1  0  0  0  0
 30 31  2  0  0  0  0
 24 32  1  0  0  0  0
 32 33  2  0  0  0  0
 33 34  1  0  0  0  0
 34 35  2  0  0  0  0
 35 36  1  0  0  0  0
 35 37  1  0  0  0  0
 37 38  2  0  0  0  0
 23 39  1  0  0  0  0
 39 40  1  0  0  0  0
 40 41  1  0  0  0  0
 41 42  2  0  0  0  0
 42 43  1  0  0  0  0
 43 44  1  0  0  0  0
 44 45  2  0  0  0  0
 45 46  1  0  0  0  0
 46 47  2  0  0  0  0
 47 48  1  0  0  0  0
 47 49  1  0  0  0  0
 49 50  2  0  0  0  0
 43 51  1  0  0  0  0
 51 52  2  0  0  0  0
 52 53  1  0  0  0  0
 53 54  2  0  0  0  0
 54 55  1  0  0  0  0
 54 56  1  0  0  0  0
 56 57  2  0  0  0  0
 42 58  1  0  0  0  0
 58 59  1  0  0  0  0
 41 60  1  0  0  0  0
 60 61  2  0  0  0  0
 61 62  1  0  0  0  0
 62 63  2  0  0  0  0
 63 64  1  0  0  0  0
 64 65  2  0  0  0  0
 65 66  1  0  0  0  0
 66 67  1  0  0  0  0
 67 68  1  0  0  0  0
 66 69  2  0  0  0  0
 61 70  1  0  0  0  0
 70 71  1  0  0  0  0
 71 72  1  0  0  0  0
 72 73  1  0  0  0  0
 73 74  1  0  0  0  0
 74 75  1  0  0  0  0
 75 76  2  0  0  0  0
 76 77  1  0  0  0  0
 77 78  1  0  0  0  0
 75 79  1  0  0  0  0
 79 80  1  0  0  0  0
 80 81  1  0  0  0  0
 81 82  1  0  0  0  0
 82 83  1  0  0  0  0
 83 84  1  0  0  0  0
 84 85  2  0  0  0  0
 85 86  1  0  0  0  0
 86 87  2  0  0  0  0
 87 88  1  0  0  0  0
 88 89  1  0  0  0  0
 89 90  1  0  0  0  0
 88 91  2  0  0  0  0
 83 92  2  0  0  0  0
 92 93  1  0  0  0  0
 93 94  1  0  0  0  0
 94 95  1  0  0  0  0
 95 96  1  0  0  0  0
 96 97  1  0  0  0  0
 97 98  1  0  0  0  0
 98 99  1  0  0  0  0
 99100  1  0  0  0  0
100101  1  0  0  0  0
101102  1  0  0  0  0
 99103  1  0  0  0  0
103104  1  0  0  0  0
 96105  1  0  0  0  0
105106  1  0  0  0  0
 92107  1  0  0  0  0
107108  2  0  0  0  0
108109  1  0  0  0  0
108110  1  0  0  0  0
110111  2  0  0  0  0
111112  1  0  0  0  0
112113  2  0  0  0  0
111114  1  0  0  0  0
114115  2  0  0  0  0
115116  1  0  0  0  0
116117  2  0  0  0  0
116118  1  0  0  0  0
118119  2  0  0  0  0
119120  1  0  0  0  0
120121  2  0  0  0  0
121122  1  0  0  0  0
122123  2  0  0  0  0
123124  1  0  0  0  0
123125  1  0  0  0  0
125126  2  0  0  0  0
126127  1  0  0  0  0
127128  2  0  0  0  0
128129  1  0  0  0  0
129130  2  0  0  0  0
130131  1  0  0  0  0
131132  3  0  0  0  0
130133  1  0  0  0  0
133134  3  0  0  0  0
 16  2  1  0  0  0  0
 59 22  1  0  0  0  0
102 60  1  0  0  0  0
113107  1  0  0  0  0
129115  1  0  0  0  0
 15  5  1  0  0  0  0
 31 25  1  0  0  0  0
 38 32  1  0  0  0  0
 58 39  2  0  0  0  0
 69 62  1  0  0  0  0
101 70  2  0  0  0  0
128118  1  0  0  0  0
 13  7  1  0  0  0  0
 50 44  1  0  0  0  0
 57 51  1  0  0  0  0
100 72  2  0  0  0  0
126120  1  0  0  0  0
 98 73  2  0  0  0  0
 78 74  2  0  0  0  0
 97 79  2  0  0  0  0
 95 80  2  0  0  0  0
 94 82  2  0  0  0  0
 91 84  1  0  0  0  0
  1135  1  0  0  0  0
  6136  1  0  0  0  0
  8137  1  0  0  0  0
  9138  1  0  0  0  0
 12139  1  0  0  0  0
 14140  1  0  0  0  0
 26141  1  0  0  0  0
 27142  1  0  0  0  0
 29143  1  0  0  0  0
 29144  1  0  0  0  0
 29145  1  0  0  0  0
 30146  1  0  0  0  0
 31147  1  0  0  0  0
 33148  1  0  0  0  0
 34149  1  0  0  0  0
 36150  1  0  0  0  0
 36151  1  0  0  0  0
 36152  1  0  0  0  0
 37153  1  0  0  0  0
 38154  1  0  0  0  0
 45155  1  0  0  0  0
 46156  1  0  0  0  0
 48157  1  0  0  0  0
 48158  1  0  0  0  0
 48159  1  0  0  0  0
 49160  1  0  0  0  0
 50161  1  0  0  0  0
 52162  1  0  0  0  0
 53163  1  0  0  0  0
 55164  1  0  0  0  0
 55165  1  0  0  0  0
 55166  1  0  0  0  0
 56167  1  0  0  0  0
 57168  1  0  0  0  0
 63169  1  0  0  0  0
 64170  1  0  0  0  0
 65171  1  0  0  0  0
 67172  1  0  0  0  0
 67173  1  0  0  0  0
 68174  1  0  0  0  0
 68175  1  0  0  0  0
 68176  1  0  0  0  0
 69177  1  0  0  0  0
 85178  1  0  0  0  0
 86179  1  0  0  0  0
 87180  1  0  0  0  0
 89181  1  0  0  0  0
 89182  1  0  0  0  0
 90183  1  0  0  0  0
 90184  1  0  0  0  0
 90185  1  0  0  0  0
 91186  1  0  0  0  0
103187  1  0  0  0  0
103188  1  0  0  0  0
104189  1  0  0  0  0
104190  1  0  0  0  0
104191  1  0  0  0  0
105192  1  0  0  0  0
105193  1  0  0  0  0
106194  1  0  0  0  0
106195  1  0  0  0  0
106196  1  0  0  0  0
110197  1  0  0  0  0
112198  1  0  0  0  0
113199  1  0  0  0  0
114200  1  0  0  0  0
119201  1  0  0  0  0
121202  1  0  0  0  0
122203  1  0  0  0  0
125204  1  0  0  0  0
127205  1  0  0  0  0
M  END
