
  xtb     02052223283D
 energy: -407.666026732505 gnorm: 0.000343793605 xtb: 6.4.1 (unknown)
237263  0     0  0            999 V2000
    8.5946   -8.8686    1.3611 C   0  0  0  0  0  0  0  0  0  0  0  0
    8.0478  -10.0182    1.9007 C   0  0  0  0  0  0  0  0  0  0  0  0
    7.0343  -10.0093    2.9647 C   0  0  0  0  0  0  0  0  0  0  0  0
    6.5099   -9.0388    3.4815 O   0  0  0  0  0  0  0  0  0  0  0  0
    6.8738  -11.4212    3.3714 C   0  0  0  0  0  0  0  0  0  0  0  0
    6.0597  -11.9505    4.3271 C   0  0  0  0  0  0  0  0  0  0  0  0
    6.0547  -13.3504    4.5303 C   0  0  0  0  0  0  0  0  0  0  0  0
    5.2264  -13.9520    5.4983 C   0  0  0  0  0  0  0  0  0  0  0  0
    5.2309  -15.3067    5.6878 C   0  0  0  0  0  0  0  0  0  0  0  0
    6.0756  -16.0968    4.8985 C   0  0  0  0  0  0  0  0  0  0  0  0
    6.0661  -17.4297    5.0969 F   0  0  0  0  0  0  0  0  0  0  0  0
    6.8984  -15.5641    3.9451 C   0  0  0  0  0  0  0  0  0  0  0  0
    6.9069  -14.1715    3.7382 C   0  0  0  0  0  0  0  0  0  0  0  0
    7.7478  -13.5902    2.7587 C   0  0  0  0  0  0  0  0  0  0  0  0
    7.7278  -12.2357    2.5766 C   0  0  0  0  0  0  0  0  0  0  0  0
    8.4495  -11.3699    1.6478 C   0  0  0  0  0  0  0  0  0  0  0  0
    9.2377  -11.7917    0.6024 C   0  0  0  0  0  0  0  0  0  0  0  0
    9.8008  -10.9251   -0.3534 C   0  0  0  0  0  0  0  0  0  0  0  0
   10.2609  -10.2771   -1.1836 N   0  0  0  0  0  0  0  0  0  0  0  0
    9.5029  -13.1407    0.3106 C   0  0  0  0  0  0  0  0  0  0  0  0
    9.7360  -14.2262    0.0126 N   0  0  0  0  0  0  0  0  0  0  0  0
    7.9626   -7.6291    1.2796 C   0  0  0  0  0  0  0  0  0  0  0  0
    6.5925   -7.2835    1.2534 C   0  0  0  0  0  0  0  0  0  0  0  0
    5.5317   -8.1344    1.1565 N   0  0  0  0  0  0  0  0  0  0  0  0
    4.2671   -7.7086    1.6227 C   0  0  0  0  0  0  0  0  0  0  0  0
    3.1416   -7.8724    0.8239 C   0  0  0  0  0  0  0  0  0  0  0  0
    1.9081   -7.4470    1.2786 C   0  0  0  0  0  0  0  0  0  0  0  0
    1.7703   -6.8548    2.5278 C   0  0  0  0  0  0  0  0  0  0  0  0
    0.4396   -6.3627    3.0069 C   0  0  0  0  0  0  0  0  0  0  0  0
    2.9018   -6.7151    3.3249 C   0  0  0  0  0  0  0  0  0  0  0  0
    4.1396   -7.1376    2.8853 C   0  0  0  0  0  0  0  0  0  0  0  0
    5.6207   -9.4148    0.5944 C   0  0  0  0  0  0  0  0  0  0  0  0
    6.4005   -9.6580   -0.5360 C   0  0  0  0  0  0  0  0  0  0  0  0
    6.4949  -10.9333   -1.0506 C   0  0  0  0  0  0  0  0  0  0  0  0
    5.8235  -12.0025   -0.4604 C   0  0  0  0  0  0  0  0  0  0  0  0
    5.9731  -13.3857   -1.0102 C   0  0  0  0  0  0  0  0  0  0  0  0
    5.0178  -11.7445    0.6400 C   0  0  0  0  0  0  0  0  0  0  0  0
    4.9094  -10.4693    1.1630 C   0  0  0  0  0  0  0  0  0  0  0  0
    6.4433   -5.8779    1.2372 C   0  0  0  0  0  0  0  0  0  0  0  0
    5.0667   -4.8288    1.1728 S   0  0  0  0  0  0  0  0  0  0  0  0
    6.1191   -3.4258    1.1916 C   0  0  0  0  0  0  0  0  0  0  0  0
    7.4670   -3.7559    1.1580 C   0  0  0  0  0  0  0  0  0  0  0  0
    8.5042   -2.8531    1.0569 N   0  0  0  0  0  0  0  0  0  0  0  0
    9.7546   -3.1508    1.6269 C   0  0  0  0  0  0  0  0  0  0  0  0
    9.8391   -3.7596    2.8738 C   0  0  0  0  0  0  0  0  0  0  0  0
   11.0731   -4.0519    3.4203 C   0  0  0  0  0  0  0  0  0  0  0  0
   12.2473   -3.7401    2.7479 C   0  0  0  0  0  0  0  0  0  0  0  0
   13.5842   -4.0800    3.3317 C   0  0  0  0  0  0  0  0  0  0  0  0
   12.1522   -3.1204    1.5066 C   0  0  0  0  0  0  0  0  0  0  0  0
   10.9254   -2.8289    0.9461 C   0  0  0  0  0  0  0  0  0  0  0  0
    8.3216   -1.6107    0.4306 C   0  0  0  0  0  0  0  0  0  0  0  0
    8.8889   -0.4639    0.9809 C   0  0  0  0  0  0  0  0  0  0  0  0
    8.6528    0.7698    0.4114 C   0  0  0  0  0  0  0  0  0  0  0  0
    7.8680    0.8971   -0.7294 C   0  0  0  0  0  0  0  0  0  0  0  0
    7.5719    2.2509   -1.2982 C   0  0  0  0  0  0  0  0  0  0  0  0
    7.3607   -0.2584   -1.3086 C   0  0  0  0  0  0  0  0  0  0  0  0
    7.5780   -1.4987   -0.7399 C   0  0  0  0  0  0  0  0  0  0  0  0
    7.6329   -5.1620    1.1960 C   0  0  0  0  0  0  0  0  0  0  0  0
    9.0062   -6.2026    1.1512 S   0  0  0  0  0  0  0  0  0  0  0  0
    5.5788   -2.1038    1.3208 C   0  0  0  0  0  0  0  0  0  0  0  0
    5.9554   -1.1800    2.2738 C   0  0  0  0  0  0  0  0  0  0  0  0
    6.7312   -1.5429    3.4602 C   0  0  0  0  0  0  0  0  0  0  0  0
    7.6894   -0.6922    4.0013 C   0  0  0  0  0  0  0  0  0  0  0  0
    8.4000   -1.0834    5.1209 C   0  0  0  0  0  0  0  0  0  0  0  0
    8.1491   -2.3034    5.7257 C   0  0  0  0  0  0  0  0  0  0  0  0
    7.1602   -3.1444    5.2301 C   0  0  0  0  0  0  0  0  0  0  0  0
    6.8385   -4.4623    5.8794 C   0  0  0  0  0  0  0  0  0  0  0  0
    7.3874   -5.6411    5.0727 C   0  0  0  0  0  0  0  0  0  0  0  0
    6.4632   -2.7517    4.0978 C   0  0  0  0  0  0  0  0  0  0  0  0
    5.3664    0.0770    2.0218 C   0  0  0  0  0  0  0  0  0  0  0  0
    5.4605    1.6219    2.8276 S   0  0  0  0  0  0  0  0  0  0  0  0
    4.2831    2.2506    1.7223 C   0  0  0  0  0  0  0  0  0  0  0  0
    3.5607    3.4359    1.4870 C   0  0  0  0  0  0  0  0  0  0  0  0
    3.6325    4.7279    2.0532 C   0  0  0  0  0  0  0  0  0  0  0  0
    2.7454    5.7530    1.5715 C   0  0  0  0  0  0  0  0  0  0  0  0
    2.9576    6.9199    2.1585 N   0  0  0  0  0  0  0  0  0  0  0  0
    4.1630    6.7479    3.2258 S   0  0  0  0  0  0  0  0  0  0  0  0
    4.4621    5.1755    2.9822 N   0  0  0  0  0  0  0  0  0  0  0  0
    1.7364    5.4075    0.6444 C   0  0  0  0  0  0  0  0  0  0  0  0
    0.5934    6.0972    0.2046 C   0  0  0  0  0  0  0  0  0  0  0  0
   -0.1635    7.6426    0.4056 S   0  0  0  0  0  0  0  0  0  0  0  0
   -1.5522    7.0478   -0.4734 C   0  0  0  0  0  0  0  0  0  0  0  0
   -2.8024    7.6289   -0.7668 C   0  0  0  0  0  0  0  0  0  0  0  0
   -3.0752    9.0338   -0.4297 C   0  0  0  0  0  0  0  0  0  0  0  0
   -2.2774   10.0106   -1.0161 C   0  0  0  0  0  0  0  0  0  0  0  0
   -2.4586   11.3399   -0.6845 C   0  0  0  0  0  0  0  0  0  0  0  0
   -3.4306   11.7004    0.2294 C   0  0  0  0  0  0  0  0  0  0  0  0
   -4.2351   10.7373    0.8280 C   0  0  0  0  0  0  0  0  0  0  0  0
   -5.3025   11.1481    1.8017 C   0  0  0  0  0  0  0  0  0  0  0  0
   -6.3679   12.0113    1.1255 C   0  0  0  0  0  0  0  0  0  0  0  0
   -4.0410    9.4034    0.4988 C   0  0  0  0  0  0  0  0  0  0  0  0
   -3.6151    6.7458   -1.4501 C   0  0  0  0  0  0  0  0  0  0  0  0
   -2.8249    5.1975   -1.7359 S   0  0  0  0  0  0  0  0  0  0  0  0
   -1.4069    5.7300   -0.9110 C   0  0  0  0  0  0  0  0  0  0  0  0
   -0.1739    5.1882   -0.5305 C   0  0  0  0  0  0  0  0  0  0  0  0
    0.4656    3.9782   -0.5949 N   0  0  0  0  0  0  0  0  0  0  0  0
    1.6461    4.0918    0.1139 C   0  0  0  0  0  0  0  0  0  0  0  0
    2.6562    3.1508    0.4297 C   0  0  0  0  0  0  0  0  0  0  0  0
    2.8804    1.8594   -0.0191 N   0  0  0  0  0  0  0  0  0  0  0  0
    3.8550    1.3152    0.7786 C   0  0  0  0  0  0  0  0  0  0  0  0
    4.4935    0.0779    0.9340 C   0  0  0  0  0  0  0  0  0  0  0  0
    4.4252   -1.4664    0.1646 S   0  0  0  0  0  0  0  0  0  0  0  0
    2.6801    1.3448   -1.3562 C   0  0  0  0  0  0  0  0  0  0  0  0
    3.9636    1.4403   -2.1792 C   0  0  0  0  0  0  0  0  0  0  0  0
   -0.2612    2.7942   -0.9970 C   0  0  0  0  0  0  0  0  0  0  0  0
   -0.4421    2.7144   -2.5128 C   0  0  0  0  0  0  0  0  0  0  0  0
   -4.9451    6.8699   -1.9503 C   0  0  0  0  0  0  0  0  0  0  0  0
   -5.9786    7.6626   -1.5393 C   0  0  0  0  0  0  0  0  0  0  0  0
   -7.2020    7.3953   -2.1980 C   0  0  0  0  0  0  0  0  0  0  0  0
   -8.4628    7.9770   -1.9550 C   0  0  0  0  0  0  0  0  0  0  0  0
   -8.7196    8.8572   -0.8343 C   0  0  0  0  0  0  0  0  0  0  0  0
   -9.6425    9.8601   -0.7418 C   0  0  0  0  0  0  0  0  0  0  0  0
   -9.7859   10.4151    0.5506 C   0  0  0  0  0  0  0  0  0  0  0  0
  -10.7406   11.5208    0.8677 C   0  0  0  0  0  0  0  0  0  0  0  0
  -10.2472   12.8552    0.3080 C   0  0  0  0  0  0  0  0  0  0  0  0
   -8.9491    9.8107    1.4419 C   0  0  0  0  0  0  0  0  0  0  0  0
   -8.8039   10.1478    3.1144 Cl  0  0  0  0  0  0  0  0  0  0  0  0
   -7.9695    8.5762    0.7189 S   0  0  0  0  0  0  0  0  0  0  0  0
   -9.5072    7.5764   -2.7886 C   0  0  0  0  0  0  0  0  0  0  0  0
   -9.3455    6.6154   -3.8229 C   0  0  0  0  0  0  0  0  0  0  0  0
   -8.0881    6.0004   -4.0420 C   0  0  0  0  0  0  0  0  0  0  0  0
   -7.8655    5.0160   -5.0781 C   0  0  0  0  0  0  0  0  0  0  0  0
   -7.0664    3.9081   -5.0219 C   0  0  0  0  0  0  0  0  0  0  0  0
   -6.9877    3.1791   -6.2291 C   0  0  0  0  0  0  0  0  0  0  0  0
   -6.1417    1.9589   -6.4030 C   0  0  0  0  0  0  0  0  0  0  0  0
   -4.6657    2.3422   -6.5188 C   0  0  0  0  0  0  0  0  0  0  0  0
   -7.7333    3.7672   -7.2104 C   0  0  0  0  0  0  0  0  0  0  0  0
   -8.5553    5.1939   -6.6713 S   0  0  0  0  0  0  0  0  0  0  0  0
   -7.9174    3.2301   -8.8236 Cl  0  0  0  0  0  0  0  0  0  0  0  0
   -7.0609    6.3996   -3.2007 C   0  0  0  0  0  0  0  0  0  0  0  0
   -5.4341    5.7829   -3.2383 S   0  0  0  0  0  0  0  0  0  0  0  0
  -10.5653    6.3260   -4.4486 C   0  0  0  0  0  0  0  0  0  0  0  0
  -11.6454    7.0271   -3.9412 C   0  0  0  0  0  0  0  0  0  0  0  0
  -11.1592    8.1041   -2.6504 S   0  0  0  0  0  0  0  0  0  0  0  0
  -12.9497    6.8304   -4.4342 C   0  0  0  0  0  0  0  0  0  0  0  0
  -14.1408    7.3844   -4.0501 C   0  0  0  0  0  0  0  0  0  0  0  0
  -14.3303    8.3869   -2.9874 C   0  0  0  0  0  0  0  0  0  0  0  0
  -13.4765    8.9300   -2.3119 O   0  0  0  0  0  0  0  0  0  0  0  0
  -15.7816    8.6195   -2.9008 C   0  0  0  0  0  0  0  0  0  0  0  0
  -16.4632    9.4411   -2.0505 C   0  0  0  0  0  0  0  0  0  0  0  0
  -17.8718    9.5017   -2.1339 C   0  0  0  0  0  0  0  0  0  0  0  0
  -18.6277   10.3280   -1.2776 C   0  0  0  0  0  0  0  0  0  0  0  0
  -19.9912   10.3742   -1.3667 C   0  0  0  0  0  0  0  0  0  0  0  0
  -20.6347    9.5839   -2.3287 C   0  0  0  0  0  0  0  0  0  0  0  0
  -21.9770    9.6424   -2.4009 F   0  0  0  0  0  0  0  0  0  0  0  0
  -19.9496    8.7662   -3.1839 C   0  0  0  0  0  0  0  0  0  0  0  0
  -18.5446    8.7055   -3.1057 C   0  0  0  0  0  0  0  0  0  0  0  0
  -17.8095    7.8660   -3.9751 C   0  0  0  0  0  0  0  0  0  0  0  0
  -16.4443    7.8216   -3.8750 C   0  0  0  0  0  0  0  0  0  0  0  0
  -15.4395    7.0591   -4.6124 C   0  0  0  0  0  0  0  0  0  0  0  0
  -15.7087    6.1997   -5.6467 C   0  0  0  0  0  0  0  0  0  0  0  0
  -17.0049    5.9387   -6.1394 C   0  0  0  0  0  0  0  0  0  0  0  0
  -18.0286    5.6787   -6.5895 N   0  0  0  0  0  0  0  0  0  0  0  0
  -14.7610    5.4532   -6.3777 C   0  0  0  0  0  0  0  0  0  0  0  0
  -14.0645    4.8068   -7.0237 N   0  0  0  0  0  0  0  0  0  0  0  0
    9.6168   -8.9008    1.0034 H   0  0  0  0  0  0  0  0  0  0  0  0
    5.4192  -11.3140    4.9195 H   0  0  0  0  0  0  0  0  0  0  0  0
    4.5840  -13.3218    6.0952 H   0  0  0  0  0  0  0  0  0  0  0  0
    4.6048  -15.7816    6.4264 H   0  0  0  0  0  0  0  0  0  0  0  0
    7.5361  -16.2036    3.3549 H   0  0  0  0  0  0  0  0  0  0  0  0
    8.3904  -14.2355    2.1813 H   0  0  0  0  0  0  0  0  0  0  0  0
    3.2396   -8.3277   -0.1509 H   0  0  0  0  0  0  0  0  0  0  0  0
    1.0398   -7.5727    0.6482 H   0  0  0  0  0  0  0  0  0  0  0  0
    0.3818   -5.2801    2.8910 H   0  0  0  0  0  0  0  0  0  0  0  0
   -0.3709   -6.8095    2.4367 H   0  0  0  0  0  0  0  0  0  0  0  0
    0.2991   -6.5924    4.0610 H   0  0  0  0  0  0  0  0  0  0  0  0
    2.8083   -6.2746    4.3069 H   0  0  0  0  0  0  0  0  0  0  0  0
    5.0111   -7.0609    3.5159 H   0  0  0  0  0  0  0  0  0  0  0  0
    6.9347   -8.8463   -1.0067 H   0  0  0  0  0  0  0  0  0  0  0  0
    7.1078  -11.1072   -1.9230 H   0  0  0  0  0  0  0  0  0  0  0  0
    5.4192  -14.1042   -0.4115 H   0  0  0  0  0  0  0  0  0  0  0  0
    5.6065  -13.4280   -2.0352 H   0  0  0  0  0  0  0  0  0  0  0  0
    7.0220  -13.6800   -1.0236 H   0  0  0  0  0  0  0  0  0  0  0  0
    4.4767  -12.5540    1.1084 H   0  0  0  0  0  0  0  0  0  0  0  0
    4.2852  -10.2847    2.0244 H   0  0  0  0  0  0  0  0  0  0  0  0
    8.9343   -3.9829    3.4150 H   0  0  0  0  0  0  0  0  0  0  0  0
   11.1231   -4.5230    4.3915 H   0  0  0  0  0  0  0  0  0  0  0  0
   13.9215   -5.0442    2.9498 H   0  0  0  0  0  0  0  0  0  0  0  0
   14.3276   -3.3340    3.0599 H   0  0  0  0  0  0  0  0  0  0  0  0
   13.5297   -4.1471    4.4157 H   0  0  0  0  0  0  0  0  0  0  0  0
   13.0540   -2.8688    0.9675 H   0  0  0  0  0  0  0  0  0  0  0  0
   10.8651   -2.3510   -0.0206 H   0  0  0  0  0  0  0  0  0  0  0  0
    9.5017   -0.5521    1.8651 H   0  0  0  0  0  0  0  0  0  0  0  0
    9.0757    1.6542    0.8654 H   0  0  0  0  0  0  0  0  0  0  0  0
    7.2028    2.1752   -2.3181 H   0  0  0  0  0  0  0  0  0  0  0  0
    6.8136    2.7499   -0.6927 H   0  0  0  0  0  0  0  0  0  0  0  0
    8.4631    2.8750   -1.2912 H   0  0  0  0  0  0  0  0  0  0  0  0
    6.7879   -0.1939   -2.2231 H   0  0  0  0  0  0  0  0  0  0  0  0
    7.1687   -2.3854   -1.2019 H   0  0  0  0  0  0  0  0  0  0  0  0
    7.8750    0.2660    3.5412 H   0  0  0  0  0  0  0  0  0  0  0  0
    9.1543   -0.4278    5.5304 H   0  0  0  0  0  0  0  0  0  0  0  0
    8.7119   -2.5962    6.6003 H   0  0  0  0  0  0  0  0  0  0  0  0
    7.2551   -4.4898    6.8879 H   0  0  0  0  0  0  0  0  0  0  0  0
    5.7531   -4.5639    5.9575 H   0  0  0  0  0  0  0  0  0  0  0  0
    7.0731   -6.5858    5.5100 H   0  0  0  0  0  0  0  0  0  0  0  0
    7.0245   -5.6053    4.0476 H   0  0  0  0  0  0  0  0  0  0  0  0
    8.4750   -5.6209    5.0523 H   0  0  0  0  0  0  0  0  0  0  0  0
    5.6749   -3.3873    3.7207 H   0  0  0  0  0  0  0  0  0  0  0  0
   -1.5195    9.7235   -1.7297 H   0  0  0  0  0  0  0  0  0  0  0  0
   -1.8346   12.0961   -1.1373 H   0  0  0  0  0  0  0  0  0  0  0  0
   -3.5586   12.7401    0.4926 H   0  0  0  0  0  0  0  0  0  0  0  0
   -4.8501   11.7161    2.6188 H   0  0  0  0  0  0  0  0  0  0  0  0
   -5.7731   10.2606    2.2288 H   0  0  0  0  0  0  0  0  0  0  0  0
   -7.1464   12.2692    1.8391 H   0  0  0  0  0  0  0  0  0  0  0  0
   -5.9352   12.9316    0.7411 H   0  0  0  0  0  0  0  0  0  0  0  0
   -6.8216   11.4757    0.2941 H   0  0  0  0  0  0  0  0  0  0  0  0
   -4.6231    8.6393    0.9958 H   0  0  0  0  0  0  0  0  0  0  0  0
    2.3644    0.2990   -1.2823 H   0  0  0  0  0  0  0  0  0  0  0  0
    1.9092    1.9248   -1.8512 H   0  0  0  0  0  0  0  0  0  0  0  0
    4.2863    2.4769   -2.2523 H   0  0  0  0  0  0  0  0  0  0  0  0
    4.7570    0.8591   -1.7188 H   0  0  0  0  0  0  0  0  0  0  0  0
    3.7848    1.0570   -3.1803 H   0  0  0  0  0  0  0  0  0  0  0  0
   -1.2537    2.8399   -0.5337 H   0  0  0  0  0  0  0  0  0  0  0  0
    0.2471    1.9142   -0.6025 H   0  0  0  0  0  0  0  0  0  0  0  0
   -1.0884    3.5177   -2.8553 H   0  0  0  0  0  0  0  0  0  0  0  0
   -0.9028    1.7668   -2.7769 H   0  0  0  0  0  0  0  0  0  0  0  0
    0.5064    2.8019   -3.0381 H   0  0  0  0  0  0  0  0  0  0  0  0
   -5.8660    8.4178   -0.7870 H   0  0  0  0  0  0  0  0  0  0  0  0
  -10.2093   10.2207   -1.5800 H   0  0  0  0  0  0  0  0  0  0  0  0
  -11.7095   11.2788    0.4257 H   0  0  0  0  0  0  0  0  0  0  0  0
  -10.8624   11.5984    1.9490 H   0  0  0  0  0  0  0  0  0  0  0  0
  -10.1314   12.7959   -0.7713 H   0  0  0  0  0  0  0  0  0  0  0  0
   -9.2857   13.1183    0.7422 H   0  0  0  0  0  0  0  0  0  0  0  0
  -10.9592   13.6440    0.5378 H   0  0  0  0  0  0  0  0  0  0  0  0
   -6.5693    3.5860   -4.1250 H   0  0  0  0  0  0  0  0  0  0  0  0
   -6.4540    1.4223   -7.2996 H   0  0  0  0  0  0  0  0  0  0  0  0
   -6.2808    1.3033   -5.5409 H   0  0  0  0  0  0  0  0  0  0  0  0
   -4.3449    2.8911   -5.6363 H   0  0  0  0  0  0  0  0  0  0  0  0
   -4.5080    2.9720   -7.3910 H   0  0  0  0  0  0  0  0  0  0  0  0
   -4.0519    1.4505   -6.6193 H   0  0  0  0  0  0  0  0  0  0  0  0
  -10.6806    5.6057   -5.2381 H   0  0  0  0  0  0  0  0  0  0  0  0
  -12.9858    6.1027   -5.2359 H   0  0  0  0  0  0  0  0  0  0  0  0
  -15.9336   10.0349   -1.3205 H   0  0  0  0  0  0  0  0  0  0  0  0
  -18.1090   10.9272   -0.5444 H   0  0  0  0  0  0  0  0  0  0  0  0
  -20.5845   10.9998   -0.7190 H   0  0  0  0  0  0  0  0  0  0  0  0
  -20.4784    8.1716   -3.9123 H   0  0  0  0  0  0  0  0  0  0  0  0
  -18.3511    7.2768   -4.6971 H   0  0  0  0  0  0  0  0  0  0  0  0
  1  2  2  0  0  0  0
  2  3  1  0  0  0  0
  3  4  2  0  0  0  0
  3  5  1  0  0  0  0
  5  6  2  0  0  0  0
  6  7  1  0  0  0  0
  7  8  2  0  0  0  0
  8  9  1  0  0  0  0
  9 10  2  0  0  0  0
 10 11  1  0  0  0  0
 10 12  1  0  0  0  0
 12 13  2  0  0  0  0
 13 14  1  0  0  0  0
 14 15  2  0  0  0  0
 15 16  1  0  0  0  0
 16 17  2  0  0  0  0
 17 18  1  0  0  0  0
 18 19  3  0  0  0  0
 17 20  1  0  0  0  0
 20 21  3  0  0  0  0
  1 22  1  0  0  0  0
 22 23  2  0  0  0  0
 23 24  1  0  0  0  0
 24 25  1  0  0  0  0
 25 26  2  0  0  0  0
 26 27  1  0  0  0  0
 27 28  2  0  0  0  0
 28 29  1  0  0  0  0
 28 30  1  0  0  0  0
 30 31  2  0  0  0  0
 24 32  1  0  0  0  0
 32 33  2  0  0  0  0
 33 34  1  0  0  0  0
 34 35  2  0  0  0  0
 35 36  1  0  0  0  0
 35 37  1  0  0  0  0
 37 38  2  0  0  0  0
 23 39  1  0  0  0  0
 39 40  1  0  0  0  0
 40 41  1  0  0  0  0
 41 42  2  0  0  0  0
 42 43  1  0  0  0  0
 43 44  1  0  0  0  0
 44 45  2  0  0  0  0
 45 46  1  0  0  0  0
 46 47  2  0  0  0  0
 47 48  1  0  0  0  0
 47 49  1  0  0  0  0
 49 50  2  0  0  0  0
 43 51  1  0  0  0  0
 51 52  2  0  0  0  0
 52 53  1  0  0  0  0
 53 54  2  0  0  0  0
 54 55  1  0  0  0  0
 54 56  1  0  0  0  0
 56 57  2  0  0  0  0
 42 58  1  0  0  0  0
 58 59  1  0  0  0  0
 41 60  1  0  0  0  0
 60 61  2  0  0  0  0
 61 62  1  0  0  0  0
 62 63  2  0  0  0  0
 63 64  1  0  0  0  0
 64 65  2  0  0  0  0
 65 66  1  0  0  0  0
 66 67  1  0  0  0  0
 67 68  1  0  0  0  0
 66 69  2  0  0  0  0
 61 70  1  0  0  0  0
 70 71  1  0  0  0  0
 71 72  1  0  0  0  0
 72 73  1  0  0  0  0
 73 74  1  0  0  0  0
 74 75  1  0  0  0  0
 75 76  2  0  0  0  0
 76 77  1  0  0  0  0
 77 78  1  0  0  0  0
 75 79  1  0  0  0  0
 79 80  1  0  0  0  0
 80 81  1  0  0  0  0
 81 82  1  0  0  0  0
 82 83  1  0  0  0  0
 83 84  1  0  0  0  0
 84 85  2  0  0  0  0
 85 86  1  0  0  0  0
 86 87  2  0  0  0  0
 87 88  1  0  0  0  0
 88 89  1  0  0  0  0
 89 90  1  0  0  0  0
 88 91  2  0  0  0  0
 83 92  2  0  0  0  0
 92 93  1  0  0  0  0
 93 94  1  0  0  0  0
 94 95  1  0  0  0  0
 95 96  1  0  0  0  0
 96 97  1  0  0  0  0
 97 98  1  0  0  0  0
 98 99  1  0  0  0  0
 99100  1  0  0  0  0
100101  1  0  0  0  0
101102  1  0  0  0  0
 99103  1  0  0  0  0
103104  1  0  0  0  0
 96105  1  0  0  0  0
105106  1  0  0  0  0
 92107  1  0  0  0  0
107108  2  0  0  0  0
108109  1  0  0  0  0
109110  2  0  0  0  0
110111  1  0  0  0  0
111112  2  0  0  0  0
112113  1  0  0  0  0
113114  1  0  0  0  0
114115  1  0  0  0  0
113116  2  0  0  0  0
116117  1  0  0  0  0
116118  1  0  0  0  0
110119  1  0  0  0  0
119120  2  0  0  0  0
120121  1  0  0  0  0
121122  1  0  0  0  0
122123  2  0  0  0  0
123124  1  0  0  0  0
124125  1  0  0  0  0
125126  1  0  0  0  0
124127  2  0  0  0  0
127128  1  0  0  0  0
127129  1  0  0  0  0
121130  2  0  0  0  0
130131  1  0  0  0  0
120132  1  0  0  0  0
132133  2  0  0  0  0
133134  1  0  0  0  0
133135  1  0  0  0  0
135136  2  0  0  0  0
136137  1  0  0  0  0
137138  2  0  0  0  0
137139  1  0  0  0  0
139140  2  0  0  0  0
140141  1  0  0  0  0
141142  2  0  0  0  0
142143  1  0  0  0  0
143144  2  0  0  0  0
144145  1  0  0  0  0
144146  1  0  0  0  0
146147  2  0  0  0  0
147148  1  0  0  0  0
148149  2  0  0  0  0
149150  1  0  0  0  0
150151  2  0  0  0  0
151152  1  0  0  0  0
152153  3  0  0  0  0
151154  1  0  0  0  0
154155  3  0  0  0  0
 16  2  1  0  0  0  0
 59 22  1  0  0  0  0
102 60  1  0  0  0  0
131107  1  0  0  0  0
150136  1  0  0  0  0
 15  5  1  0  0  0  0
 31 25  1  0  0  0  0
 38 32  1  0  0  0  0
 58 39  2  0  0  0  0
 69 62  1  0  0  0  0
101 70  2  0  0  0  0
130109  1  0  0  0  0
149139  1  0  0  0  0
 13  7  1  0  0  0  0
 50 44  1  0  0  0  0
 57 51  1  0  0  0  0
100 72  2  0  0  0  0
118111  1  0  0  0  0
134119  1  0  0  0  0
147141  1  0  0  0  0
 98 73  2  0  0  0  0
128122  1  0  0  0  0
 78 74  2  0  0  0  0
 97 79  2  0  0  0  0
 95 80  2  0  0  0  0
 94 82  2  0  0  0  0
 91 84  1  0  0  0  0
  1156  1  0  0  0  0
  6157  1  0  0  0  0
  8158  1  0  0  0  0
  9159  1  0  0  0  0
 12160  1  0  0  0  0
 14161  1  0  0  0  0
 26162  1  0  0  0  0
 27163  1  0  0  0  0
 29164  1  0  0  0  0
 29165  1  0  0  0  0
 29166  1  0  0  0  0
 30167  1  0  0  0  0
 31168  1  0  0  0  0
 33169  1  0  0  0  0
 34170  1  0  0  0  0
 36171  1  0  0  0  0
 36172  1  0  0  0  0
 36173  1  0  0  0  0
 37174  1  0  0  0  0
 38175  1  0  0  0  0
 45176  1  0  0  0  0
 46177  1  0  0  0  0
 48178  1  0  0  0  0
 48179  1  0  0  0  0
 48180  1  0  0  0  0
 49181  1  0  0  0  0
 50182  1  0  0  0  0
 52183  1  0  0  0  0
 53184  1  0  0  0  0
 55185  1  0  0  0  0
 55186  1  0  0  0  0
 55187  1  0  0  0  0
 56188  1  0  0  0  0
 57189  1  0  0  0  0
 63190  1  0  0  0  0
 64191  1  0  0  0  0
 65192  1  0  0  0  0
 67193  1  0  0  0  0
 67194  1  0  0  0  0
 68195  1  0  0  0  0
 68196  1  0  0  0  0
 68197  1  0  0  0  0
 69198  1  0  0  0  0
 85199  1  0  0  0  0
 86200  1  0  0  0  0
 87201  1  0  0  0  0
 89202  1  0  0  0  0
 89203  1  0  0  0  0
 90204  1  0  0  0  0
 90205  1  0  0  0  0
 90206  1  0  0  0  0
 91207  1  0  0  0  0
103208  1  0  0  0  0
103209  1  0  0  0  0
104210  1  0  0  0  0
104211  1  0  0  0  0
104212  1  0  0  0  0
105213  1  0  0  0  0
105214  1  0  0  0  0
106215  1  0  0  0  0
106216  1  0  0  0  0
106217  1  0  0  0  0
108218  1  0  0  0  0
112219  1  0  0  0  0
114220  1  0  0  0  0
114221  1  0  0  0  0
115222  1  0  0  0  0
115223  1  0  0  0  0
115224  1  0  0  0  0
123225  1  0  0  0  0
125226  1  0  0  0  0
125227  1  0  0  0  0
126228  1  0  0  0  0
126229  1  0  0  0  0
126230  1  0  0  0  0
132231  1  0  0  0  0
135232  1  0  0  0  0
140233  1  0  0  0  0
142234  1  0  0  0  0
143235  1  0  0  0  0
146236  1  0  0  0  0
148237  1  0  0  0  0
M  END
