229

C          4.61820        9.35870       -1.18440
C          3.70250       10.28350       -1.65050
C          2.49250        9.98940       -2.41350
O          2.02640        8.89690       -2.69740
C          1.92810       11.29470       -2.80530
C          0.80800       11.55850       -3.53650
C          0.45720       12.90290       -3.79710
C         -0.68840       13.23490       -4.54720
C         -1.01630       14.53960       -4.79390
C         -0.19140       15.55140       -4.28650
F         -0.52920       16.83100       -4.53920
C          0.93080       15.28410       -3.55270
C          1.28300       13.94650       -3.28920
C          2.43830       13.63920       -2.53070
C          2.75770       12.33050       -2.29170
C          3.85330       11.71240       -1.54500
C          4.82420       12.40360       -0.85610
C          4.94890       13.80600       -0.86370
N          5.12490       14.94140       -0.84170
C          5.80520       11.83460       -0.02380
N          6.61350       11.46150        0.70510
C          4.59370        7.97160       -1.21290
C          5.64430        7.16680       -0.68730
N          6.89440        7.60260       -0.36100
C          7.65460        6.84010        0.55360
C          7.12480        6.51640        1.79920
C          7.86090        5.75260        2.68150
C          9.13110        5.29520        2.34740
C          9.91100        4.46760        3.31980
C          9.65320        5.63450        1.10620
C          8.92950        6.40200        0.21510
C          7.54880        8.65000       -1.03910
C          8.41370        9.48400       -0.33630
C          9.06350       10.51170       -0.99000
C          8.86540       10.73930       -2.34680
C          9.54440       11.88620       -3.02870
C          8.01800        9.88520       -3.04350
C          7.37220        8.84470       -2.40660
C          5.23600        5.82840       -0.57790
S          5.99950        4.38020       -0.00280
C          4.61040        3.42570       -0.51270
C          3.63330        4.20290       -1.13140
N          2.46730        3.74020       -1.71960
C          2.43900        2.59720       -2.52100
C          1.25060        1.88040       -2.65740
C          1.21690        0.72050       -3.40490
C          2.35830        0.23340       -4.02820
C          2.33080       -1.03290       -4.82930
C          3.53650        0.96160       -3.90240
C          3.58100        2.12930       -3.16970
C          1.36170        4.61560       -1.70100
C          0.67130        4.92440       -2.86810
C         -0.35370        5.84770       -2.83790
C         -0.71300        6.48450       -1.65610
C         -1.77180        7.54280       -1.64880
C         -0.03780        6.14650       -0.49040
C          0.98600        5.22040       -0.50570
C          3.98510        5.57320       -1.12440
S          3.21560        6.99490       -1.73610
C          4.56750        2.04040       -0.19620
C          5.61680        1.19390        0.12490
C          7.04440        1.51220        0.05010
C          7.60090        2.09920       -1.08330
C          8.95650        2.35870       -1.12850
C          9.77080        2.01250       -0.06410
C          9.23830        1.39780        1.06090
C         10.12190        0.91980        2.17650
C         10.46310       -0.55850        1.97620
C          7.87310        1.16100        1.10930
C          5.15280       -0.08250        0.49570
S          5.98270       -1.56010        0.92700
C          4.45180       -2.36640        1.01080
C          3.93480       -3.65300        1.22630
C          4.59160       -4.88190        1.45000
C          3.81120       -6.08300        1.50810
N          4.55650       -7.16510        1.67150
S          6.10880       -6.70870        1.75210
N          5.88880       -5.11410        1.57820
C          2.40580       -5.98550        1.42930
C          1.41220       -6.97110        1.53470
S          1.27850       -8.68740        1.71500
C         -0.46290       -8.52690        1.70950
C         -1.50820       -9.46730        1.82190
C         -1.25050      -10.88840        2.07010
C         -1.90990      -11.56640        3.09370
C         -1.62140      -12.89560        3.33350
C         -0.67300      -13.55570        2.56920
C          0.00160      -12.89150        1.55350
C          1.07830      -13.57220        0.75970
C          2.45290      -13.23490        1.34110
C         -0.29510      -11.55730        1.31440
C         -2.74660       -8.85720        1.75420
S         -2.61690       -7.11020        1.59640
C         -0.89360       -7.20580        1.58420
C          0.18200       -6.31440        1.48250
N          0.37280       -4.96720        1.32940
C          1.73940       -4.73490        1.28340
C          2.51930       -3.56310        1.09030
N          2.19890       -2.24780        0.78500
C          3.36610       -1.53580        0.73040
C          3.76650       -0.22530        0.44220
S          3.00210        1.25360       -0.00890
C          1.00830       -1.68320        0.19070
C          0.69660       -2.32550       -1.15870
C         -0.72000       -4.06400        1.61000
C         -0.51490       -3.33260        2.93450
C         -4.06350       -9.44110        1.71340
C         -5.17570       -8.68450        2.11540
C         -6.45850       -9.18280        2.05170
C         -6.65990      -10.47100        1.56140
C         -7.81570      -11.31190        1.45900
C         -7.30770      -12.66060        1.03690
O         -7.91800      -13.65880        0.74630
N         -5.94040      -12.52270        0.88120
C         -5.07510      -13.60130        0.49120
C         -5.53060      -11.25390        1.21730
C         -4.25060      -10.75420        1.25710
C         -9.13870      -11.00010        1.61470
C        -10.19160      -11.96070        2.07170
O        -10.09260      -13.11430        2.40980
N        -11.35580      -11.22140        2.19870
C        -12.60510      -11.78980        2.62350
C        -11.15700       -9.91410        1.82380
C        -12.06780       -8.88830        1.73940
C        -11.62270       -7.62850        1.29760
C        -10.30410       -7.48400        0.83660
C         -9.40030       -8.52210        0.90740
C         -9.79550       -9.73150        1.47140
C        -12.57240       -6.55400        1.25390
C        -12.34200       -5.22010        1.40110
C        -11.11780       -4.59830        1.97730
O        -10.06130       -5.12280        2.25410
C        -11.47680       -3.19020        2.23420
C        -10.70910       -2.21300        2.79940
C        -11.25010       -0.91850        2.95960
C        -10.50020        0.12940        3.53190
C        -11.03730        1.37700        3.68610
C        -12.35430        1.60510        3.26400
F        -12.86470        2.83960        3.42370
C        -13.12470        0.62530        2.70270
C        -12.58740       -0.66620        2.53540
C        -13.35890       -1.69940        1.95510
C        -12.80910       -2.94490        1.80140
C        -13.34680       -4.18030        1.24400
C        -14.55380       -4.30620        0.60830
C        -15.47570       -3.25010        0.44980
N        -16.26870       -2.43480        0.29380
C        -15.03490       -5.48390       -0.00260
N        -15.48880       -6.39330       -0.53720
H          5.50000        9.77430       -0.71420
H          0.19620       10.75240       -3.91360
H         -1.30810       12.43680       -4.92810
H         -1.88920       14.81030       -5.36640
H          1.54270       16.08960       -3.17750
H          3.04070       14.45290       -2.16040
H          6.14020        6.87120        2.06620
H          7.44510        5.50710        3.64760
H         10.13100        5.04540        4.21710
H         10.84850        4.13470        2.88360
H          9.33420        3.59430        3.61800
H         10.63770        5.28870        0.82810
H          9.34090        6.65740       -0.75030
H          8.55970        9.33110        0.72140
H          9.72010       11.16130       -0.43180
H         10.61020       11.88750       -2.80730
H          9.13090       12.82920       -2.67130
H          9.40890       11.83730       -4.10620
H          7.86510       10.03080       -4.10320
H          6.72320        8.18540       -2.96420
H          0.36000        2.23500       -2.16050
H          0.28640        0.17850       -3.49600
H          1.38050       -1.54830       -4.71250
H          3.13390       -1.70070       -4.52040
H          2.47330       -0.81300       -5.88730
H          4.43330        0.60880       -4.39150
H          4.50360        2.68570       -3.09680
H          0.95850        4.45530       -3.79760
H         -0.86890        6.09600       -3.75420
H         -2.26760        7.59540       -0.68210
H         -2.51550        7.35850       -2.42060
H         -1.31140        8.51160       -1.84580
H         -0.31010        6.62170        0.44110
H          1.51360        4.97050        0.40370
H          6.97120        2.33640       -1.92800
H          9.38430        2.82210       -2.00540
H         10.83240        2.20830       -0.11380
H         11.04390        1.50340        2.20140
H          9.61190        1.04020        3.13440
H         11.09860       -0.91510        2.78350
H          9.55520       -1.15690        1.95620
H         10.98600       -0.70100        1.03320
H          7.44350        0.69810        1.98610
H         -2.64070      -11.04680        3.69560
H         -2.13450      -13.42020        4.12610
H         -0.45240      -14.59480        2.76640
H          0.93040      -14.65360        0.78030
H          1.03770      -13.24020       -0.27990
H          2.52000      -13.57430        2.37230
H          3.23820      -13.71780        0.76450
H          2.61810      -12.16000        1.32410
H          0.21510      -11.03350        0.51900
H          0.16460       -1.75360        0.87680
H          1.21090       -0.62000        0.03940
H         -0.22360       -1.91090       -1.56140
H          0.58820       -3.40390       -1.06580
H          1.50350       -2.12080       -1.85830
H         -0.86800       -3.36900        0.78310
H         -1.62110       -4.67900        1.67520
H          0.41630       -2.77090        2.93400
H         -0.47630       -4.04990        3.75120
H         -1.34010       -2.64850        3.11340
H         -5.01470       -7.68660        2.49610
H         -7.28530       -8.58800        2.40460
H         -4.56230      -13.36460       -0.44340
H         -5.69980      -14.48220        0.34810
H         -4.33190      -13.79950        1.26700
H         -3.41110      -11.35050        0.94220
H        -12.97240      -11.28450        3.51910
H        -13.35440      -11.71350        1.83250
H        -12.42190      -12.83980        2.84920
H        -13.09900       -9.02740        2.02510
H        -10.00250       -6.55290        0.38810
H         -8.40520       -8.39920        0.51160
H        -13.60230       -6.86920        1.13030
H         -9.70000       -2.42660        3.11900
H         -9.48810       -0.07140        3.84990
H        -10.47810        2.18910        4.12290
H        -14.13460        0.83730        2.38810
H        -14.36970       -1.47890        1.65190
