252

C         -3.46460       -3.05210       11.35900
C         -3.47790       -4.42550       11.51970
C         -3.80100       -5.41090       10.49130
O         -4.03750       -5.21750        9.30900
C         -3.81170       -6.72160       11.16820
C         -4.06210       -7.95460       10.64320
C         -4.01810       -9.08540       11.49060
C         -4.26570      -10.38400       11.00300
C         -4.22050      -11.46970       11.83350
C         -3.92230      -11.27310       13.18770
F         -3.88170      -12.35400       13.99130
C         -3.67400      -10.03500       13.71190
C         -3.71570       -8.90650       12.87090
C         -3.45860       -7.61260       13.38480
C         -3.50480       -6.53370       12.54480
C         -3.26660       -5.10810       12.77060
C         -2.87680       -4.55720       13.97060
C         -2.76320       -5.28380       15.17110
N         -2.66610       -5.80940       16.18850
C         -2.50110       -3.21760       14.17670
N         -2.13800       -2.15450       14.42530
C         -3.61300       -2.27640       10.21780
C         -3.54920       -0.85330       10.23160
N         -3.59530       -0.06400       11.34550
C         -4.35890       -0.39040       12.48330
C         -3.89910       -0.02790       13.74660
C         -4.64470       -0.33690       14.86640
C         -5.85250       -1.01670       14.76080
C         -6.62510       -1.38210       15.99020
C         -6.31150       -1.35580       13.49310
C         -5.58410       -1.04100       12.36280
C         -3.00410        1.21570       11.29170
C         -1.71090        1.36830       10.79880
C         -1.15020        2.62580       10.71100
C         -1.85490        3.75560       11.11190
C         -1.23050        5.11130       11.00250
C         -3.13330        3.58850       11.62800
C         -3.70580        2.33550       11.72350
C         -3.42990       -0.35090        8.92710
S         -3.27290        1.24480        8.26090
C         -3.26400        0.58050        6.63090
C         -3.45460       -0.79980        6.62220
N         -3.58750       -1.58700        5.49030
C         -4.37350       -1.18440        4.40730
C         -4.08250       -1.65400        3.12730
C         -4.82150       -1.22560        2.04250
C         -5.86160       -0.31800        2.19400
C         -6.65290        0.16950        1.01880
C         -6.15580        0.13540        3.47560
C         -5.43160       -0.29130        4.56900
C         -3.10960       -2.90940        5.57000
C         -3.89820       -3.98390        5.17260
C         -3.43450       -5.27400        5.32960
C         -2.18640       -5.52720        5.88590
C         -1.72490       -6.93230        6.11960
C         -1.39550       -4.44700        6.25490
C         -1.84450       -3.15120        6.09680
C         -3.51190       -1.32090        7.93520
S         -3.70520       -2.91560        8.57110
C         -2.94220        1.42840        5.53720
C         -2.96040        2.81410        5.49490
C         -3.55620        3.66930        6.52290
C         -2.84090        4.73910        7.05010
C         -3.41150        5.53100        8.02840
C         -4.68990        5.26570        8.48520
C         -5.42760        4.21610        7.95220
C         -6.79960        3.89440        8.47010
C         -6.69700        2.92110        9.64570
C         -4.85250        3.42910        6.96820
C         -2.36920        3.30200        4.31660
S         -2.11680        4.91870        3.70260
C         -1.40160        4.23930        2.27880
C         -0.86380        4.66240        1.05230
C         -0.76710        5.94400        0.46910
C         -0.26560        6.06020       -0.87110
N         -0.28480        7.30830       -1.31240
S         -0.87510        8.25700       -0.14000
N         -1.13190        7.11160        0.97540
C          0.22980        4.90700       -1.51650
C          0.91730        4.75240       -2.73290
S          1.42470        5.70420       -4.08810
C          2.18180        4.28550       -4.76780
C          2.85130        4.06090       -5.98820
C          3.11820        5.13220       -6.95150
C          4.41870        5.41250       -7.35690
C          4.65750        6.45980       -8.22610
C          3.60880        7.23480       -8.68810
C          2.30540        6.97680       -8.28270
C          1.16870        7.85520       -8.71920
C          0.88930        8.92020       -7.65680
C          2.07340        5.92490       -7.41010
C          3.16830        2.72840       -6.14560
S          2.77330        1.77510       -4.71560
C          2.04120        3.14940       -3.97350
C          1.31440        3.41680       -2.80720
N          0.86910        2.72670       -1.71010
C          0.19730        3.62740       -0.89550
C         -0.46870        3.48920        0.34970
N         -0.81170        2.38600        1.11300
C         -1.36190        2.84340        2.28230
C         -1.91770        2.30520        3.44880
S         -2.19390        0.73300        4.10370
C         -1.04740        1.01850        0.70530
C         -0.09460        0.03410        1.38070
C          1.54410        1.49770       -1.35650
C          2.71010        1.76960       -0.40820
C          3.57010        2.02480       -7.32530
C          2.94850        0.88850       -7.83520
N          1.78560        0.31100       -7.36080
C          1.57710       -1.06010       -7.59600
C          2.58750       -1.98010       -7.33260
C          2.39090       -3.32070       -7.60380
C          1.19100       -3.77480       -8.13490
C          0.99170       -5.22180       -8.46680
C          0.18030       -2.84960       -8.37580
C          0.36380       -1.50840       -8.11110
C          0.75780        1.07010       -6.78260
C          0.46800        2.36020       -7.22020
C         -0.48230        3.11480       -6.56100
C         -1.16600        2.61660       -5.45880
C         -2.13070        3.47880       -4.70460
C         -0.91000        1.30870       -5.06500
C          0.03230        0.53970       -5.71680
C          3.61980        0.42960       -8.99100
S          3.39470       -0.92040      -10.03940
C          4.72260       -0.37890      -11.07180
C          5.34820        0.77170      -10.55380
N          6.40490        1.42920      -11.11610
C          7.44600        0.72280      -11.74140
C          7.98520        1.16930      -12.94390
C          8.99970        0.45570      -13.55150
C          9.49830       -0.71130      -12.98440
C         10.56080       -1.50980      -13.67070
C          8.96360       -1.14000      -11.77400
C          7.95370       -0.43420      -11.15300
C          6.43710        2.83670      -11.10510
C          5.27080        3.56850      -11.31210
C          5.32140        4.94830      -11.33750
C          6.52350        5.62640      -11.17560
C          6.58950        7.11960      -11.27350
C          7.67940        4.88410      -10.95870
C          7.64320        3.50520      -10.91730
C          4.68150        1.22380       -9.39250
S          4.90670        2.56510       -8.32640
C          5.02320       -1.08310      -12.24380
C          4.18430       -1.90660      -12.95600
C          4.76100       -2.95970      -13.82490
O          5.92190       -3.08700      -14.14810
C          3.61640       -3.83120      -14.14840
C          2.41660       -3.26690      -13.60090
C          1.30880       -4.01070      -13.84650
S          1.70070       -5.43320      -14.75000
C          3.39680       -5.00140      -14.80450
Cl         4.52410       -5.98600      -15.60250
C          2.74720       -2.00380      -12.96590
C          1.83710       -1.01030      -12.68420
C          2.20500        0.31420      -12.38960
N          2.48420        1.41490      -12.20930
C          0.45220       -1.23800      -12.75550
N         -0.68160       -1.41970      -12.78550
H         -3.29900       -2.48000       12.26280
H         -4.29130       -8.06810        9.59390
H         -4.49410      -10.50970        9.95510
H         -4.40760      -12.46990       11.47610
H         -3.44690       -9.92130       14.76050
H         -3.23190       -7.51310       14.43400
H         -2.95380        0.48180       13.84430
H         -4.27130       -0.06290       15.84130
H         -7.62400       -1.72820       15.73700
H         -6.70640       -0.52850       16.66060
H         -6.11110       -2.17830       16.52900
H         -7.25710       -1.86770       13.38610
H         -5.95860       -1.30390       11.38440
H         -1.15340        0.49640       10.48920
H         -0.14750        2.73470       10.32460
H         -0.40360        5.20340       11.70670
H         -1.95490        5.89210       11.21810
H         -0.83370        5.26480       10.00070
H         -3.69360        4.45250       11.95450
H         -4.70130        2.21480       12.12430
H         -3.26410       -2.34510        2.99170
H         -4.57620       -1.59730        1.05750
H         -7.71360       -0.03080        1.16410
H         -6.33020       -0.31790        0.10220
H         -6.53280        1.24630        0.90050
H         -6.97040        0.83140        3.61740
H         -5.68550        0.06280        5.55740
H         -4.88030       -3.80170        4.76170
H         -4.06320       -6.10140        5.03450
H         -0.63900       -6.99170        6.12960
H         -2.11080       -7.60320        5.35530
H         -2.09140       -7.27540        7.08780
H         -0.41720       -4.62170        6.67920
H         -1.22460       -2.31670        6.39230
H         -1.83920        4.93710        6.69920
H         -2.85560        6.36170        8.43680
H         -5.12660        5.88570        9.25490
H         -7.39920        3.44290        7.67710
H         -7.29970        4.80740        8.79940
H         -7.68600        2.65680       10.01340
H         -6.13050        3.37350       10.45560
H         -6.18190        2.01260        9.34040
H         -5.41780        2.61760        6.53120
H          5.24080        4.83220       -6.96540
H          5.66890        6.67380       -8.53470
H          3.80150        8.05890       -9.36050
H          1.41430        8.34200       -9.66500
H          0.27070        7.25210       -8.86880
H          0.06000        9.55420       -7.96180
H          1.76770        9.54430       -7.50810
H          0.64030        8.45190       -6.70730
H          1.06670        5.71310       -7.08200
H         -2.07270        0.75850        0.99610
H         -0.99280        0.96420       -0.38300
H         -0.26050       -0.96510        0.98690
H         -0.28230        0.01360        2.45060
H          0.94420        0.30940        1.22390
H          1.91860        1.06930       -2.28980
H          0.85570        0.78220       -0.91660
H          2.35500        2.23010        0.51170
H          3.21970        0.84060       -0.16670
H          3.42320        2.44470       -0.87580
H          3.52350       -1.63720       -6.91520
H          3.18470       -4.02440       -7.39860
H          1.68420       -5.84880       -7.91050
H         -0.02630       -5.53380       -8.24380
H          1.16540       -5.38500       -9.53100
H         -0.75940       -3.18340       -8.79080
H         -0.42310       -0.79690       -8.31350
H          0.99010        2.76830       -8.07330
H         -0.69800        4.11480       -6.90790
H         -1.59200        4.10150       -3.98810
H         -2.67000        4.13980       -5.37940
H         -2.84760        2.87420       -4.15400
H         -1.44520        0.89030       -4.22430
H          0.23800       -0.46870       -5.38880
H          7.59480        2.06610      -13.40140
H          9.40190        0.80500      -14.49100
H         10.09740       -2.31310      -14.24410
H         11.13450       -0.89090      -14.35610
H         11.23640       -1.96140      -12.94760
H          9.34340       -2.03990      -11.31330
H          7.54470       -0.77520      -10.21300
H          4.33570        3.05430      -11.47810
H          4.41100        5.50520      -11.50190
H          6.94700        7.40940      -12.26230
H          5.60820        7.56190      -11.12570
H          7.28090        7.52930      -10.53970
H          8.62200        5.39400      -10.82080
H          8.54680        2.93880      -10.74620
H          6.04270       -1.04610      -12.61070
H          0.29220       -3.83330      -13.55710
