
  xtb     02062204273D
 energy: -414.885549277576 gnorm: 0.000549807299 xtb: 6.4.1 (unknown)
252278  0     0  0            999 V2000
   -7.0219   -1.4092   -9.5692 C   0  0  0  0  0  0  0  0  0  0  0  0
   -8.3854   -1.3085   -9.4520 C   0  0  0  0  0  0  0  0  0  0  0  0
   -9.0935   -0.2022  -10.1313 C   0  0  0  0  0  0  0  0  0  0  0  0
   -8.6470    0.5394  -10.9815 O   0  0  0  0  0  0  0  0  0  0  0  0
  -10.4371   -0.1637   -9.5139 C   0  0  0  0  0  0  0  0  0  0  0  0
  -11.4460    0.7355   -9.6963 C   0  0  0  0  0  0  0  0  0  0  0  0
  -12.6413    0.5914   -8.9544 C   0  0  0  0  0  0  0  0  0  0  0  0
  -13.7144    1.4925   -9.1050 C   0  0  0  0  0  0  0  0  0  0  0  0
  -14.8631    1.3503   -8.3767 C   0  0  0  0  0  0  0  0  0  0  0  0
  -14.9615    0.2877   -7.4696 C   0  0  0  0  0  0  0  0  0  0  0  0
  -16.0999    0.1635   -6.7592 F   0  0  0  0  0  0  0  0  0  0  0  0
  -13.9516   -0.6149   -7.2851 C   0  0  0  0  0  0  0  0  0  0  0  0
  -12.7631   -0.4850   -8.0289 C   0  0  0  0  0  0  0  0  0  0  0  0
  -11.7039   -1.4099   -7.8693 C   0  0  0  0  0  0  0  0  0  0  0  0
  -10.5633   -1.2548   -8.6067 C   0  0  0  0  0  0  0  0  0  0  0  0
   -9.3425   -2.0549   -8.6822 C   0  0  0  0  0  0  0  0  0  0  0  0
   -9.2513   -3.3825   -8.3331 C   0  0  0  0  0  0  0  0  0  0  0  0
  -10.2710   -4.0888   -7.6751 C   0  0  0  0  0  0  0  0  0  0  0  0
  -11.0748   -4.7105   -7.1378 N   0  0  0  0  0  0  0  0  0  0  0  0
   -8.1866   -4.2092   -8.7337 C   0  0  0  0  0  0  0  0  0  0  0  0
   -7.3746   -4.9291   -9.1120 N   0  0  0  0  0  0  0  0  0  0  0  0
   -6.1063   -2.0074   -8.6986 C   0  0  0  0  0  0  0  0  0  0  0  0
   -4.7186   -2.1227   -8.9186 C   0  0  0  0  0  0  0  0  0  0  0  0
   -4.1083   -1.9228  -10.1214 N   0  0  0  0  0  0  0  0  0  0  0  0
   -2.7588   -1.5270  -10.1610 C   0  0  0  0  0  0  0  0  0  0  0  0
   -1.8761   -2.1176  -11.0600 C   0  0  0  0  0  0  0  0  0  0  0  0
   -0.5571   -1.7125  -11.0985 C   0  0  0  0  0  0  0  0  0  0  0  0
   -0.0848   -0.7189  -10.2486 C   0  0  0  0  0  0  0  0  0  0  0  0
    1.3532   -0.3033  -10.2745 C   0  0  0  0  0  0  0  0  0  0  0  0
   -0.9763   -0.1305   -9.3592 C   0  0  0  0  0  0  0  0  0  0  0  0
   -2.2994   -0.5215   -9.3142 C   0  0  0  0  0  0  0  0  0  0  0  0
   -4.7629   -2.2061  -11.3408 C   0  0  0  0  0  0  0  0  0  0  0  0
   -4.5895   -1.3576  -12.4289 C   0  0  0  0  0  0  0  0  0  0  0  0
   -5.2251   -1.6308  -13.6241 C   0  0  0  0  0  0  0  0  0  0  0  0
   -6.0425   -2.7463  -13.7620 C   0  0  0  0  0  0  0  0  0  0  0  0
   -6.7614   -3.0118  -15.0480 C   0  0  0  0  0  0  0  0  0  0  0  0
   -6.1936   -3.5949  -12.6708 C   0  0  0  0  0  0  0  0  0  0  0  0
   -5.5586   -3.3400  -11.4721 C   0  0  0  0  0  0  0  0  0  0  0  0
   -4.0543   -2.5309   -7.7415 C   0  0  0  0  0  0  0  0  0  0  0  0
   -2.3985   -2.8211   -7.3192 S   0  0  0  0  0  0  0  0  0  0  0  0
   -2.8815   -3.3334   -5.7144 C   0  0  0  0  0  0  0  0  0  0  0  0
   -4.2488   -3.2284   -5.5003 C   0  0  0  0  0  0  0  0  0  0  0  0
   -4.8995   -3.4930   -4.3096 N   0  0  0  0  0  0  0  0  0  0  0  0
   -6.1631   -4.1093   -4.3451 C   0  0  0  0  0  0  0  0  0  0  0  0
   -7.1406   -3.7631   -3.4173 C   0  0  0  0  0  0  0  0  0  0  0  0
   -8.3681   -4.3955   -3.4354 C   0  0  0  0  0  0  0  0  0  0  0  0
   -8.6626   -5.3726   -4.3785 C   0  0  0  0  0  0  0  0  0  0  0  0
   -9.9872   -6.0670   -4.3899 C   0  0  0  0  0  0  0  0  0  0  0  0
   -7.6899   -5.6879   -5.3210 C   0  0  0  0  0  0  0  0  0  0  0  0
   -6.4547   -5.0730   -5.3066 C   0  0  0  0  0  0  0  0  0  0  0  0
   -4.3096   -3.1711   -3.0789 C   0  0  0  0  0  0  0  0  0  0  0  0
   -3.5761   -1.9980   -2.9264 C   0  0  0  0  0  0  0  0  0  0  0  0
   -2.9708   -1.7048   -1.7183 C   0  0  0  0  0  0  0  0  0  0  0  0
   -3.0738   -2.5642   -0.6340 C   0  0  0  0  0  0  0  0  0  0  0  0
   -2.4134   -2.2578    0.6757 C   0  0  0  0  0  0  0  0  0  0  0  0
   -3.8369   -3.7180   -0.7837 C   0  0  0  0  0  0  0  0  0  0  0  0
   -4.4538   -4.0169   -1.9799 C   0  0  0  0  0  0  0  0  0  0  0  0
   -4.9015   -2.7781   -6.6708 C   0  0  0  0  0  0  0  0  0  0  0  0
   -6.5532   -2.4769   -7.0549 S   0  0  0  0  0  0  0  0  0  0  0  0
   -1.9531   -3.8060   -4.7258 C   0  0  0  0  0  0  0  0  0  0  0  0
   -2.0922   -4.9827   -4.0188 C   0  0  0  0  0  0  0  0  0  0  0  0
   -2.9472   -6.0697   -4.4914 C   0  0  0  0  0  0  0  0  0  0  0  0
   -3.6848   -6.8621   -3.6172 C   0  0  0  0  0  0  0  0  0  0  0  0
   -4.5217   -7.8403   -4.1197 C   0  0  0  0  0  0  0  0  0  0  0  0
   -4.6164   -8.0552   -5.4842 C   0  0  0  0  0  0  0  0  0  0  0  0
   -3.8482   -7.3104   -6.3705 C   0  0  0  0  0  0  0  0  0  0  0  0
   -3.8955   -7.5504   -7.8539 C   0  0  0  0  0  0  0  0  0  0  0  0
   -4.4134   -6.3358   -8.6254 C   0  0  0  0  0  0  0  0  0  0  0  0
   -3.0180   -6.3251   -5.8584 C   0  0  0  0  0  0  0  0  0  0  0  0
   -1.2919   -4.9732   -2.8565 C   0  0  0  0  0  0  0  0  0  0  0  0
   -1.1711   -6.0495   -1.4888 S   0  0  0  0  0  0  0  0  0  0  0  0
   -0.1320   -4.9077   -0.7059 C   0  0  0  0  0  0  0  0  0  0  0  0
    0.4083   -4.6673    0.5697 C   0  0  0  0  0  0  0  0  0  0  0  0
    0.2313   -5.3325    1.8036 C   0  0  0  0  0  0  0  0  0  0  0  0
    0.6320   -4.6712    3.0175 C   0  0  0  0  0  0  0  0  0  0  0  0
    0.3133   -5.3655    4.0983 N   0  0  0  0  0  0  0  0  0  0  0  0
   -0.4186   -6.7341    3.6348 S   0  0  0  0  0  0  0  0  0  0  0  0
   -0.3653   -6.4911    2.0344 N   0  0  0  0  0  0  0  0  0  0  0  0
    1.3104   -3.4358    2.9336 C   0  0  0  0  0  0  0  0  0  0  0  0
    1.8160   -2.5572    3.9108 C   0  0  0  0  0  0  0  0  0  0  0  0
    1.8116   -2.3617    5.6313 S   0  0  0  0  0  0  0  0  0  0  0  0
    2.6842   -0.8601    5.4433 C   0  0  0  0  0  0  0  0  0  0  0  0
    3.0939    0.1261    6.3710 C   0  0  0  0  0  0  0  0  0  0  0  0
    2.8573   -0.0327    7.8080 C   0  0  0  0  0  0  0  0  0  0  0  0
    2.2860    0.9695    8.5838 C   0  0  0  0  0  0  0  0  0  0  0  0
    2.0562    0.7525    9.9297 C   0  0  0  0  0  0  0  0  0  0  0  0
    2.3750   -0.4624   10.5094 C   0  0  0  0  0  0  0  0  0  0  0  0
    2.9217   -1.4846    9.7436 C   0  0  0  0  0  0  0  0  0  0  0  0
    3.1949   -2.8375   10.3346 C   0  0  0  0  0  0  0  0  0  0  0  0
    2.0099   -3.7706   10.0776 C   0  0  0  0  0  0  0  0  0  0  0  0
    3.1549   -1.2582    8.3968 C   0  0  0  0  0  0  0  0  0  0  0  0
    3.7514    1.1567    5.7397 C   0  0  0  0  0  0  0  0  0  0  0  0
    3.8330    0.9308    3.9892 S   0  0  0  0  0  0  0  0  0  0  0  0
    2.9855   -0.5645    4.1175 C   0  0  0  0  0  0  0  0  0  0  0  0
    2.4759   -1.5284    3.2374 C   0  0  0  0  0  0  0  0  0  0  0  0
    2.3906   -1.7198    1.8805 N   0  0  0  0  0  0  0  0  0  0  0  0
    1.6381   -2.8650    1.6761 C   0  0  0  0  0  0  0  0  0  0  0  0
    1.0603   -3.4064    0.5023 C   0  0  0  0  0  0  0  0  0  0  0  0
    0.8912   -2.8874   -0.7665 N   0  0  0  0  0  0  0  0  0  0  0  0
    0.1548   -3.7875   -1.4890 C   0  0  0  0  0  0  0  0  0  0  0  0
   -0.5200   -3.8203   -2.7163 C   0  0  0  0  0  0  0  0  0  0  0  0
   -0.7383   -2.7383   -4.0450 S   0  0  0  0  0  0  0  0  0  0  0  0
    1.0430   -1.5309   -1.2399 C   0  0  0  0  0  0  0  0  0  0  0  0
    2.0965   -1.4225   -2.3417 C   0  0  0  0  0  0  0  0  0  0  0  0
    3.4212   -1.1873    1.0151 C   0  0  0  0  0  0  0  0  0  0  0  0
    4.8050   -1.6760    1.4410 C   0  0  0  0  0  0  0  0  0  0  0  0
    4.4337    2.3160    6.2450 C   0  0  0  0  0  0  0  0  0  0  0  0
    5.7412    2.6571    5.9335 C   0  0  0  0  0  0  0  0  0  0  0  0
    6.6239    1.8250    5.2685 N   0  0  0  0  0  0  0  0  0  0  0  0
    6.6016    0.4422    5.4912 C   0  0  0  0  0  0  0  0  0  0  0  0
    6.8564   -0.4400    4.4434 C   0  0  0  0  0  0  0  0  0  0  0  0
    6.7758   -1.8032    4.6476 C   0  0  0  0  0  0  0  0  0  0  0  0
    6.4510   -2.3264    5.8937 C   0  0  0  0  0  0  0  0  0  0  0  0
    6.3030   -3.8036    6.0939 C   0  0  0  0  0  0  0  0  0  0  0  0
    6.2416   -1.4404    6.9429 C   0  0  0  0  0  0  0  0  0  0  0  0
    6.3083   -0.0756    6.7502 C   0  0  0  0  0  0  0  0  0  0  0  0
    7.5992    2.4023    4.4399 C   0  0  0  0  0  0  0  0  0  0  0  0
    8.9086    1.9331    4.4508 C   0  0  0  0  0  0  0  0  0  0  0  0
    9.8672    2.5436    3.6671 C   0  0  0  0  0  0  0  0  0  0  0  0
    9.5521    3.6318    2.8632 C   0  0  0  0  0  0  0  0  0  0  0  0
   10.6056    4.3327    2.0625 C   0  0  0  0  0  0  0  0  0  0  0  0
    8.2370    4.0788    2.8417 C   0  0  0  0  0  0  0  0  0  0  0  0
    7.2670    3.4722    3.6131 C   0  0  0  0  0  0  0  0  0  0  0  0
    6.0779    3.9394    6.4312 C   0  0  0  0  0  0  0  0  0  0  0  0
    7.4725    4.9483    6.2962 S   0  0  0  0  0  0  0  0  0  0  0  0
    6.6708    6.1986    7.2523 C   0  0  0  0  0  0  0  0  0  0  0  0
    5.3395    5.8440    7.5823 C   0  0  0  0  0  0  0  0  0  0  0  0
    4.4355    6.6447    8.2303 N   0  0  0  0  0  0  0  0  0  0  0  0
    3.4627    6.0332    9.0441 C   0  0  0  0  0  0  0  0  0  0  0  0
    3.8302    5.0160    9.9199 C   0  0  0  0  0  0  0  0  0  0  0  0
    2.8795    4.4086   10.7169 C   0  0  0  0  0  0  0  0  0  0  0  0
    1.5488    4.8022   10.6685 C   0  0  0  0  0  0  0  0  0  0  0  0
    0.5096    4.1477   11.5260 C   0  0  0  0  0  0  0  0  0  0  0  0
    1.1925    5.8244    9.7942 C   0  0  0  0  0  0  0  0  0  0  0  0
    2.1308    6.4348    8.9881 C   0  0  0  0  0  0  0  0  0  0  0  0
    4.3534    8.0293    7.9921 C   0  0  0  0  0  0  0  0  0  0  0  0
    3.9901    8.8941    9.0214 C   0  0  0  0  0  0  0  0  0  0  0  0
    3.9070   10.2514    8.7844 C   0  0  0  0  0  0  0  0  0  0  0  0
    4.1908   10.7825    7.5315 C   0  0  0  0  0  0  0  0  0  0  0  0
    4.1312   12.2617    7.3051 C   0  0  0  0  0  0  0  0  0  0  0  0
    4.5365    9.9089    6.5073 C   0  0  0  0  0  0  0  0  0  0  0  0
    4.6090    8.5477    6.7249 C   0  0  0  0  0  0  0  0  0  0  0  0
    5.0403    4.5505    7.1234 C   0  0  0  0  0  0  0  0  0  0  0  0
    3.6278    3.5513    7.1937 S   0  0  0  0  0  0  0  0  0  0  0  0
    7.2887    7.3572    7.7215 C   0  0  0  0  0  0  0  0  0  0  0  0
    8.5268    7.8860    7.4446 C   0  0  0  0  0  0  0  0  0  0  0  0
    9.4993    7.3941    6.4513 C   0  0  0  0  0  0  0  0  0  0  0  0
    9.4309    6.3824    5.7775 O   0  0  0  0  0  0  0  0  0  0  0  0
   10.5732    8.4003    6.4268 C   0  0  0  0  0  0  0  0  0  0  0  0
   11.7878    8.6232    5.7569 C   0  0  0  0  0  0  0  0  0  0  0  0
   12.3729    9.7800    6.1796 C   0  0  0  0  0  0  0  0  0  0  0  0
   11.4690   10.6167    7.3916 S   0  0  0  0  0  0  0  0  0  0  0  0
   10.2684    9.3958    7.3407 C   0  0  0  0  0  0  0  0  0  0  0  0
    9.0275    9.1183    8.0171 C   0  0  0  0  0  0  0  0  0  0  0  0
    8.4903    9.9031    9.0111 C   0  0  0  0  0  0  0  0  0  0  0  0
    9.1125   11.1093    9.3886 C   0  0  0  0  0  0  0  0  0  0  0  0
    9.6018   12.1018    9.6952 N   0  0  0  0  0  0  0  0  0  0  0  0
    7.3417    9.6107    9.7641 C   0  0  0  0  0  0  0  0  0  0  0  0
    6.4281    9.4227   10.4368 N   0  0  0  0  0  0  0  0  0  0  0  0
   -6.5977   -0.8325  -10.3850 H   0  0  0  0  0  0  0  0  0  0  0  0
  -11.3364    1.5498  -10.3968 H   0  0  0  0  0  0  0  0  0  0  0  0
  -13.6145    2.3042   -9.8101 H   0  0  0  0  0  0  0  0  0  0  0  0
  -15.6927    2.0315   -8.4807 H   0  0  0  0  0  0  0  0  0  0  0  0
  -14.0637   -1.4238   -6.5801 H   0  0  0  0  0  0  0  0  0  0  0  0
  -11.8176   -2.2127   -7.1579 H   0  0  0  0  0  0  0  0  0  0  0  0
   -2.2303   -2.8946  -11.7208 H   0  0  0  0  0  0  0  0  0  0  0  0
    0.1195   -2.1810  -11.7982 H   0  0  0  0  0  0  0  0  0  0  0  0
    1.4540    0.7586  -10.0619 H   0  0  0  0  0  0  0  0  0  0  0  0
    1.8025   -0.5152  -11.2416 H   0  0  0  0  0  0  0  0  0  0  0  0
    1.9106   -0.8518   -9.5145 H   0  0  0  0  0  0  0  0  0  0  0  0
   -0.6317    0.6509   -8.6977 H   0  0  0  0  0  0  0  0  0  0  0  0
   -2.9873   -0.0418   -8.6330 H   0  0  0  0  0  0  0  0  0  0  0  0
   -3.9648   -0.4819  -12.3292 H   0  0  0  0  0  0  0  0  0  0  0  0
   -5.0915   -0.9604  -14.4602 H   0  0  0  0  0  0  0  0  0  0  0  0
   -7.7072   -2.4692  -15.0596 H   0  0  0  0  0  0  0  0  0  0  0  0
   -6.9791   -4.0711  -15.1608 H   0  0  0  0  0  0  0  0  0  0  0  0
   -6.1729   -2.6768  -15.8991 H   0  0  0  0  0  0  0  0  0  0  0  0
   -6.8136   -4.4748  -12.7584 H   0  0  0  0  0  0  0  0  0  0  0  0
   -5.6889   -4.0124  -10.6375 H   0  0  0  0  0  0  0  0  0  0  0  0
   -6.9304   -3.0032   -2.6788 H   0  0  0  0  0  0  0  0  0  0  0  0
   -9.1126   -4.1212   -2.7017 H   0  0  0  0  0  0  0  0  0  0  0  0
   -9.8541   -7.1426   -4.4891 H   0  0  0  0  0  0  0  0  0  0  0  0
  -10.5781   -5.7268   -5.2410 H   0  0  0  0  0  0  0  0  0  0  0  0
  -10.5434   -5.8617   -3.4788 H   0  0  0  0  0  0  0  0  0  0  0  0
   -7.8984   -6.4361   -6.0717 H   0  0  0  0  0  0  0  0  0  0  0  0
   -5.7033   -5.3518   -6.0289 H   0  0  0  0  0  0  0  0  0  0  0  0
   -3.4815   -1.3146   -3.7583 H   0  0  0  0  0  0  0  0  0  0  0  0
   -2.4095   -0.7854   -1.6223 H   0  0  0  0  0  0  0  0  0  0  0  0
   -3.1570   -1.9347    1.4046 H   0  0  0  0  0  0  0  0  0  0  0  0
   -1.9220   -3.1434    1.0753 H   0  0  0  0  0  0  0  0  0  0  0  0
   -1.6755   -1.4656    0.5699 H   0  0  0  0  0  0  0  0  0  0  0  0
   -3.9380   -4.3969    0.0506 H   0  0  0  0  0  0  0  0  0  0  0  0
   -5.0475   -4.9122   -2.0799 H   0  0  0  0  0  0  0  0  0  0  0  0
   -3.6062   -6.7046   -2.5531 H   0  0  0  0  0  0  0  0  0  0  0  0
   -5.1073   -8.4418   -3.4403 H   0  0  0  0  0  0  0  0  0  0  0  0
   -5.2808   -8.8183   -5.8628 H   0  0  0  0  0  0  0  0  0  0  0  0
   -2.8862   -7.7873   -8.2038 H   0  0  0  0  0  0  0  0  0  0  0  0
   -4.5343   -8.4097   -8.0653 H   0  0  0  0  0  0  0  0  0  0  0  0
   -4.3878   -6.5338   -9.6946 H   0  0  0  0  0  0  0  0  0  0  0  0
   -5.4400   -6.1082   -8.3492 H   0  0  0  0  0  0  0  0  0  0  0  0
   -3.7986   -5.4596   -8.4274 H   0  0  0  0  0  0  0  0  0  0  0  0
   -2.3931   -5.7581   -6.5331 H   0  0  0  0  0  0  0  0  0  0  0  0
    1.9929    1.9041    8.1322 H   0  0  0  0  0  0  0  0  0  0  0  0
    1.6138    1.5368   10.5246 H   0  0  0  0  0  0  0  0  0  0  0  0
    2.1873   -0.6247   11.5613 H   0  0  0  0  0  0  0  0  0  0  0  0
    3.3618   -2.7493   11.4100 H   0  0  0  0  0  0  0  0  0  0  0  0
    4.0919   -3.2663    9.8827 H   0  0  0  0  0  0  0  0  0  0  0  0
    2.2025   -4.7558   10.4959 H   0  0  0  0  0  0  0  0  0  0  0  0
    1.8343   -3.8727    9.0091 H   0  0  0  0  0  0  0  0  0  0  0  0
    1.1080   -3.3692   10.5344 H   0  0  0  0  0  0  0  0  0  0  0  0
    3.5811   -2.0442    7.7915 H   0  0  0  0  0  0  0  0  0  0  0  0
    1.2721   -0.8808   -0.3953 H   0  0  0  0  0  0  0  0  0  0  0  0
    0.0783   -1.2174   -1.6553 H   0  0  0  0  0  0  0  0  0  0  0  0
    1.7677   -1.9644   -3.2243 H   0  0  0  0  0  0  0  0  0  0  0  0
    3.0517   -1.8380   -2.0281 H   0  0  0  0  0  0  0  0  0  0  0  0
    2.2401   -0.3800   -2.6114 H   0  0  0  0  0  0  0  0  0  0  0  0
    3.3861   -0.0937    1.0594 H   0  0  0  0  0  0  0  0  0  0  0  0
    3.2358   -1.5191   -0.0015 H   0  0  0  0  0  0  0  0  0  0  0  0
    4.8385   -2.7637    1.4269 H   0  0  0  0  0  0  0  0  0  0  0  0
    5.0458   -1.3326    2.4429 H   0  0  0  0  0  0  0  0  0  0  0  0
    5.5545   -1.2932    0.7535 H   0  0  0  0  0  0  0  0  0  0  0  0
    7.1049   -0.0445    3.4692 H   0  0  0  0  0  0  0  0  0  0  0  0
    6.9623   -2.4748    3.8214 H   0  0  0  0  0  0  0  0  0  0  0  0
    6.9614   -4.3558    5.4272 H   0  0  0  0  0  0  0  0  0  0  0  0
    5.2767   -4.1066    5.8793 H   0  0  0  0  0  0  0  0  0  0  0  0
    6.5274   -4.0808    7.1214 H   0  0  0  0  0  0  0  0  0  0  0  0
    6.0256   -1.8202    7.9308 H   0  0  0  0  0  0  0  0  0  0  0  0
    6.1332    0.5946    7.5790 H   0  0  0  0  0  0  0  0  0  0  0  0
    9.1704    1.0996    5.0862 H   0  0  0  0  0  0  0  0  0  0  0  0
   10.8835    2.1777    3.6954 H   0  0  0  0  0  0  0  0  0  0  0  0
   11.4767    3.6979    1.9195 H   0  0  0  0  0  0  0  0  0  0  0  0
   10.9209    5.2330    2.5902 H   0  0  0  0  0  0  0  0  0  0  0  0
   10.2211    4.6320    1.0894 H   0  0  0  0  0  0  0  0  0  0  0  0
    7.9698    4.9166    2.2141 H   0  0  0  0  0  0  0  0  0  0  0  0
    6.2453    3.8230    3.5824 H   0  0  0  0  0  0  0  0  0  0  0  0
    4.8648    4.7110    9.9787 H   0  0  0  0  0  0  0  0  0  0  0  0
    3.1835    3.6222   11.3922 H   0  0  0  0  0  0  0  0  0  0  0  0
    0.9681    3.5070   12.2754 H   0  0  0  0  0  0  0  0  0  0  0  0
   -0.1581    3.5422   10.9123 H   0  0  0  0  0  0  0  0  0  0  0  0
   -0.0963    4.8974   12.0317 H   0  0  0  0  0  0  0  0  0  0  0  0
    0.1612    6.1419    9.7416 H   0  0  0  0  0  0  0  0  0  0  0  0
    1.8391    7.2217    8.3086 H   0  0  0  0  0  0  0  0  0  0  0  0
    3.7882    8.4997   10.0046 H   0  0  0  0  0  0  0  0  0  0  0  0
    3.6361   10.9126    9.5935 H   0  0  0  0  0  0  0  0  0  0  0  0
    4.2583   12.5018    6.2525 H   0  0  0  0  0  0  0  0  0  0  0  0
    4.9192   12.7587    7.8708 H   0  0  0  0  0  0  0  0  0  0  0  0
    3.1776   12.6628    7.6442 H   0  0  0  0  0  0  0  0  0  0  0  0
    4.7443   10.2969    5.5204 H   0  0  0  0  0  0  0  0  0  0  0  0
    4.8701    7.8814    5.9157 H   0  0  0  0  0  0  0  0  0  0  0  0
    6.6835    7.9278    8.4154 H   0  0  0  0  0  0  0  0  0  0  0  0
   12.2040    7.9696    5.0128 H   0  0  0  0  0  0  0  0  0  0  0  0
   13.3012   10.2038    5.8495 H   0  0  0  0  0  0  0  0  0  0  0  0
  1  2  2  0  0  0  0
  2  3  1  0  0  0  0
  3  4  2  0  0  0  0
  3  5  1  0  0  0  0
  5  6  2  0  0  0  0
  6  7  1  0  0  0  0
  7  8  2  0  0  0  0
  8  9  1  0  0  0  0
  9 10  2  0  0  0  0
 10 11  1  0  0  0  0
 10 12  1  0  0  0  0
 12 13  2  0  0  0  0
 13 14  1  0  0  0  0
 14 15  2  0  0  0  0
 15 16  1  0  0  0  0
 16 17  2  0  0  0  0
 17 18  1  0  0  0  0
 18 19  3  0  0  0  0
 17 20  1  0  0  0  0
 20 21  3  0  0  0  0
  1 22  1  0  0  0  0
 22 23  2  0  0  0  0
 23 24  1  0  0  0  0
 24 25  1  0  0  0  0
 25 26  2  0  0  0  0
 26 27  1  0  0  0  0
 27 28  2  0  0  0  0
 28 29  1  0  0  0  0
 28 30  1  0  0  0  0
 30 31  2  0  0  0  0
 24 32  1  0  0  0  0
 32 33  2  0  0  0  0
 33 34  1  0  0  0  0
 34 35  2  0  0  0  0
 35 36  1  0  0  0  0
 35 37  1  0  0  0  0
 37 38  2  0  0  0  0
 23 39  1  0  0  0  0
 39 40  1  0  0  0  0
 40 41  1  0  0  0  0
 41 42  2  0  0  0  0
 42 43  1  0  0  0  0
 43 44  1  0  0  0  0
 44 45  2  0  0  0  0
 45 46  1  0  0  0  0
 46 47  2  0  0  0  0
 47 48  1  0  0  0  0
 47 49  1  0  0  0  0
 49 50  2  0  0  0  0
 43 51  1  0  0  0  0
 51 52  2  0  0  0  0
 52 53  1  0  0  0  0
 53 54  2  0  0  0  0
 54 55  1  0  0  0  0
 54 56  1  0  0  0  0
 56 57  2  0  0  0  0
 42 58  1  0  0  0  0
 58 59  1  0  0  0  0
 41 60  1  0  0  0  0
 60 61  2  0  0  0  0
 61 62  1  0  0  0  0
 62 63  2  0  0  0  0
 63 64  1  0  0  0  0
 64 65  2  0  0  0  0
 65 66  1  0  0  0  0
 66 67  1  0  0  0  0
 67 68  1  0  0  0  0
 66 69  2  0  0  0  0
 61 70  1  0  0  0  0
 70 71  1  0  0  0  0
 71 72  1  0  0  0  0
 72 73  1  0  0  0  0
 73 74  1  0  0  0  0
 74 75  1  0  0  0  0
 75 76  2  0  0  0  0
 76 77  1  0  0  0  0
 77 78  1  0  0  0  0
 75 79  1  0  0  0  0
 79 80  1  0  0  0  0
 80 81  1  0  0  0  0
 81 82  1  0  0  0  0
 82 83  1  0  0  0  0
 83 84  1  0  0  0  0
 84 85  2  0  0  0  0
 85 86  1  0  0  0  0
 86 87  2  0  0  0  0
 87 88  1  0  0  0  0
 88 89  1  0  0  0  0
 89 90  1  0  0  0  0
 88 91  2  0  0  0  0
 83 92  2  0  0  0  0
 92 93  1  0  0  0  0
 93 94  1  0  0  0  0
 94 95  1  0  0  0  0
 95 96  1  0  0  0  0
 96 97  1  0  0  0  0
 97 98  1  0  0  0  0
 98 99  1  0  0  0  0
 99100  1  0  0  0  0
100101  1  0  0  0  0
101102  1  0  0  0  0
 99103  1  0  0  0  0
103104  1  0  0  0  0
 96105  1  0  0  0  0
105106  1  0  0  0  0
 92107  1  0  0  0  0
107108  2  0  0  0  0
108109  1  0  0  0  0
109110  1  0  0  0  0
110111  2  0  0  0  0
111112  1  0  0  0  0
112113  2  0  0  0  0
113114  1  0  0  0  0
113115  1  0  0  0  0
115116  2  0  0  0  0
109117  1  0  0  0  0
117118  2  0  0  0  0
118119  1  0  0  0  0
119120  2  0  0  0  0
120121  1  0  0  0  0
120122  1  0  0  0  0
122123  2  0  0  0  0
108124  1  0  0  0  0
124125  1  0  0  0  0
125126  1  0  0  0  0
126127  2  0  0  0  0
127128  1  0  0  0  0
128129  1  0  0  0  0
129130  2  0  0  0  0
130131  1  0  0  0  0
131132  2  0  0  0  0
132133  1  0  0  0  0
132134  1  0  0  0  0
134135  2  0  0  0  0
128136  1  0  0  0  0
136137  2  0  0  0  0
137138  1  0  0  0  0
138139  2  0  0  0  0
139140  1  0  0  0  0
139141  1  0  0  0  0
141142  2  0  0  0  0
127143  1  0  0  0  0
143144  1  0  0  0  0
126145  1  0  0  0  0
145146  2  0  0  0  0
146147  1  0  0  0  0
147148  2  0  0  0  0
147149  1  0  0  0  0
149150  1  0  0  0  0
150151  2  0  0  0  0
151152  1  0  0  0  0
152153  1  0  0  0  0
153154  1  0  0  0  0
154155  2  0  0  0  0
155156  1  0  0  0  0
156157  3  0  0  0  0
155158  1  0  0  0  0
158159  3  0  0  0  0
 16  2  1  0  0  0  0
 59 22  1  0  0  0  0
102 60  1  0  0  0  0
144107  1  0  0  0  0
154146  1  0  0  0  0
 15  5  1  0  0  0  0
 31 25  1  0  0  0  0
 38 32  1  0  0  0  0
 58 39  2  0  0  0  0
 69 62  1  0  0  0  0
101 70  2  0  0  0  0
116110  1  0  0  0  0
123117  1  0  0  0  0
143124  2  0  0  0  0
153149  2  0  0  0  0
 13  7  1  0  0  0  0
 50 44  1  0  0  0  0
 57 51  1  0  0  0  0
100 72  2  0  0  0  0
135129  1  0  0  0  0
142136  1  0  0  0  0
 98 73  2  0  0  0  0
 78 74  2  0  0  0  0
 97 79  2  0  0  0  0
 95 80  2  0  0  0  0
 94 82  2  0  0  0  0
 91 84  1  0  0  0  0
  1160  1  0  0  0  0
  6161  1  0  0  0  0
  8162  1  0  0  0  0
  9163  1  0  0  0  0
 12164  1  0  0  0  0
 14165  1  0  0  0  0
 26166  1  0  0  0  0
 27167  1  0  0  0  0
 29168  1  0  0  0  0
 29169  1  0  0  0  0
 29170  1  0  0  0  0
 30171  1  0  0  0  0
 31172  1  0  0  0  0
 33173  1  0  0  0  0
 34174  1  0  0  0  0
 36175  1  0  0  0  0
 36176  1  0  0  0  0
 36177  1  0  0  0  0
 37178  1  0  0  0  0
 38179  1  0  0  0  0
 45180  1  0  0  0  0
 46181  1  0  0  0  0
 48182  1  0  0  0  0
 48183  1  0  0  0  0
 48184  1  0  0  0  0
 49185  1  0  0  0  0
 50186  1  0  0  0  0
 52187  1  0  0  0  0
 53188  1  0  0  0  0
 55189  1  0  0  0  0
 55190  1  0  0  0  0
 55191  1  0  0  0  0
 56192  1  0  0  0  0
 57193  1  0  0  0  0
 63194  1  0  0  0  0
 64195  1  0  0  0  0
 65196  1  0  0  0  0
 67197  1  0  0  0  0
 67198  1  0  0  0  0
 68199  1  0  0  0  0
 68200  1  0  0  0  0
 68201  1  0  0  0  0
 69202  1  0  0  0  0
 85203  1  0  0  0  0
 86204  1  0  0  0  0
 87205  1  0  0  0  0
 89206  1  0  0  0  0
 89207  1  0  0  0  0
 90208  1  0  0  0  0
 90209  1  0  0  0  0
 90210  1  0  0  0  0
 91211  1  0  0  0  0
103212  1  0  0  0  0
103213  1  0  0  0  0
104214  1  0  0  0  0
104215  1  0  0  0  0
104216  1  0  0  0  0
105217  1  0  0  0  0
105218  1  0  0  0  0
106219  1  0  0  0  0
106220  1  0  0  0  0
106221  1  0  0  0  0
111222  1  0  0  0  0
112223  1  0  0  0  0
114224  1  0  0  0  0
114225  1  0  0  0  0
114226  1  0  0  0  0
115227  1  0  0  0  0
116228  1  0  0  0  0
118229  1  0  0  0  0
119230  1  0  0  0  0
121231  1  0  0  0  0
121232  1  0  0  0  0
121233  1  0  0  0  0
122234  1  0  0  0  0
123235  1  0  0  0  0
130236  1  0  0  0  0
131237  1  0  0  0  0
133238  1  0  0  0  0
133239  1  0  0  0  0
133240  1  0  0  0  0
134241  1  0  0  0  0
135242  1  0  0  0  0
137243  1  0  0  0  0
138244  1  0  0  0  0
140245  1  0  0  0  0
140246  1  0  0  0  0
140247  1  0  0  0  0
141248  1  0  0  0  0
142249  1  0  0  0  0
145250  1  0  0  0  0
150251  1  0  0  0  0
151252  1  0  0  0  0
M  END
