
  xtb     02072219473D
 energy: -395.850958225608 gnorm: 0.000617340195 xtb: 6.4.1 (unknown)
228251  0     0  0            999 V2000
   -9.3234    4.1757    0.8578 C   0  0  0  0  0  0  0  0  0  0  0  0
  -10.3975    4.6872    0.1672 C   0  0  0  0  0  0  0  0  0  0  0  0
  -11.5325    5.2640    0.9199 C   0  0  0  0  0  0  0  0  0  0  0  0
  -11.7320    5.1995    2.1140 O   0  0  0  0  0  0  0  0  0  0  0  0
  -12.3286    5.9982   -0.0870 C   0  0  0  0  0  0  0  0  0  0  0  0
  -13.4079    6.8101    0.0975 C   0  0  0  0  0  0  0  0  0  0  0  0
  -13.9922    7.4443   -1.0227 C   0  0  0  0  0  0  0  0  0  0  0  0
  -15.0932    8.3134   -0.8857 C   0  0  0  0  0  0  0  0  0  0  0  0
  -15.6445    8.9316   -1.9740 C   0  0  0  0  0  0  0  0  0  0  0  0
  -15.0978    8.6856   -3.2399 C   0  0  0  0  0  0  0  0  0  0  0  0
  -15.6501    9.3056   -4.3011 F   0  0  0  0  0  0  0  0  0  0  0  0
  -14.0328    7.8493   -3.4289 C   0  0  0  0  0  0  0  0  0  0  0  0
  -13.4522    7.2052   -2.3192 C   0  0  0  0  0  0  0  0  0  0  0  0
  -12.3422    6.3431   -2.4809 C   0  0  0  0  0  0  0  0  0  0  0  0
  -11.7815    5.7605   -1.3788 C   0  0  0  0  0  0  0  0  0  0  0  0
  -10.6351    4.8675   -1.2336 C   0  0  0  0  0  0  0  0  0  0  0  0
  -10.0309    4.1542   -2.2470 C   0  0  0  0  0  0  0  0  0  0  0  0
  -10.2529    4.3855   -3.6145 C   0  0  0  0  0  0  0  0  0  0  0  0
  -10.3607    4.5654   -4.7446 N   0  0  0  0  0  0  0  0  0  0  0  0
   -9.1723    3.0727   -1.9989 C   0  0  0  0  0  0  0  0  0  0  0  0
   -8.4950    2.1593   -1.8273 N   0  0  0  0  0  0  0  0  0  0  0  0
   -7.9835    4.0263    0.4898 C   0  0  0  0  0  0  0  0  0  0  0  0
   -7.1932    4.5792   -0.5417 C   0  0  0  0  0  0  0  0  0  0  0  0
   -7.5436    5.5617   -1.4324 N   0  0  0  0  0  0  0  0  0  0  0  0
   -6.7305    5.7153   -2.5900 C   0  0  0  0  0  0  0  0  0  0  0  0
   -6.0684    6.9156   -2.8213 C   0  0  0  0  0  0  0  0  0  0  0  0
   -5.2802    7.0638   -3.9454 C   0  0  0  0  0  0  0  0  0  0  0  0
   -5.1378    6.0286   -4.8600 C   0  0  0  0  0  0  0  0  0  0  0  0
   -4.2828    6.1771   -6.0787 C   0  0  0  0  0  0  0  0  0  0  0  0
   -5.8063    4.8337   -4.6190 C   0  0  0  0  0  0  0  0  0  0  0  0
   -6.5935    4.6698   -3.4971 C   0  0  0  0  0  0  0  0  0  0  0  0
   -8.4358    6.6075   -1.1548 C   0  0  0  0  0  0  0  0  0  0  0  0
   -9.0647    7.2575   -2.2194 C   0  0  0  0  0  0  0  0  0  0  0  0
   -9.9518    8.2853   -1.9842 C   0  0  0  0  0  0  0  0  0  0  0  0
  -10.2534    8.6936   -0.6885 C   0  0  0  0  0  0  0  0  0  0  0  0
  -11.2396    9.7923   -0.4452 C   0  0  0  0  0  0  0  0  0  0  0  0
   -9.5985    8.0675    0.3637 C   0  0  0  0  0  0  0  0  0  0  0  0
   -8.6945    7.0459    0.1413 C   0  0  0  0  0  0  0  0  0  0  0  0
   -5.8859    4.0435   -0.4976 C   0  0  0  0  0  0  0  0  0  0  0  0
   -4.4573    4.2771   -1.4446 S   0  0  0  0  0  0  0  0  0  0  0  0
   -3.5227    3.2553   -0.3575 C   0  0  0  0  0  0  0  0  0  0  0  0
   -4.3158    2.6951    0.6380 C   0  0  0  0  0  0  0  0  0  0  0  0
   -3.9092    1.8405    1.6623 N   0  0  0  0  0  0  0  0  0  0  0  0
   -3.3960    0.5728    1.3821 C   0  0  0  0  0  0  0  0  0  0  0  0
   -3.6693   -0.0620    0.1706 C   0  0  0  0  0  0  0  0  0  0  0  0
   -3.1096   -1.2927   -0.1102 C   0  0  0  0  0  0  0  0  0  0  0  0
   -2.2777   -1.9309    0.8014 C   0  0  0  0  0  0  0  0  0  0  0  0
   -1.6760   -3.2656    0.4792 C   0  0  0  0  0  0  0  0  0  0  0  0
   -2.0297   -1.3026    2.0161 C   0  0  0  0  0  0  0  0  0  0  0  0
   -2.5724   -0.0683    2.3069 C   0  0  0  0  0  0  0  0  0  0  0  0
   -4.3590    2.1701    2.9529 C   0  0  0  0  0  0  0  0  0  0  0  0
   -4.2910    3.4943    3.3794 C   0  0  0  0  0  0  0  0  0  0  0  0
   -4.7568    3.8490    4.6295 C   0  0  0  0  0  0  0  0  0  0  0  0
   -5.2923    2.8990    5.4900 C   0  0  0  0  0  0  0  0  0  0  0  0
   -5.8224    3.2907    6.8349 C   0  0  0  0  0  0  0  0  0  0  0  0
   -5.3509    1.5788    5.0589 C   0  0  0  0  0  0  0  0  0  0  0  0
   -4.8982    1.2127    3.8076 C   0  0  0  0  0  0  0  0  0  0  0  0
   -5.6432    3.1776    0.5575 C   0  0  0  0  0  0  0  0  0  0  0  0
   -7.0353    2.9656    1.5446 S   0  0  0  0  0  0  0  0  0  0  0  0
   -2.1243    3.1395   -0.6143 C   0  0  0  0  0  0  0  0  0  0  0  0
   -1.3248    4.0625   -1.2761 C   0  0  0  0  0  0  0  0  0  0  0  0
   -1.6982    5.4227   -1.6752 C   0  0  0  0  0  0  0  0  0  0  0  0
   -2.3075    6.2923   -0.7735 C   0  0  0  0  0  0  0  0  0  0  0  0
   -2.5894    7.5896   -1.1513 C   0  0  0  0  0  0  0  0  0  0  0  0
   -2.2460    8.0398   -2.4146 C   0  0  0  0  0  0  0  0  0  0  0  0
   -1.6201    7.1934   -3.3192 C   0  0  0  0  0  0  0  0  0  0  0  0
   -1.1541    7.6962   -4.6545 C   0  0  0  0  0  0  0  0  0  0  0  0
    0.3078    8.1398   -4.5634 C   0  0  0  0  0  0  0  0  0  0  0  0
   -1.3585    5.8852   -2.9404 C   0  0  0  0  0  0  0  0  0  0  0  0
   -0.0167    3.5754   -1.4552 C   0  0  0  0  0  0  0  0  0  0  0  0
    1.4121    4.2585   -2.1980 S   0  0  0  0  0  0  0  0  0  0  0  0
    2.2863    2.8196   -1.7870 C   0  0  0  0  0  0  0  0  0  0  0  0
    3.5505    2.2439   -1.9879 C   0  0  0  0  0  0  0  0  0  0  0  0
    4.6674    2.6738   -2.7381 C   0  0  0  0  0  0  0  0  0  0  0  0
    5.7809    1.7817   -2.9018 C   0  0  0  0  0  0  0  0  0  0  0  0
    6.7232    2.2875   -3.6815 N   0  0  0  0  0  0  0  0  0  0  0  0
    6.2550    3.7607   -4.1638 S   0  0  0  0  0  0  0  0  0  0  0  0
    4.8288    3.8097   -3.3982 N   0  0  0  0  0  0  0  0  0  0  0  0
    5.7820    0.5517   -2.2073 C   0  0  0  0  0  0  0  0  0  0  0  0
    6.7582   -0.4504   -2.0896 C   0  0  0  0  0  0  0  0  0  0  0  0
    8.3166   -0.8638   -2.7221 S   0  0  0  0  0  0  0  0  0  0  0  0
    8.3254   -2.2928   -1.7066 C   0  0  0  0  0  0  0  0  0  0  0  0
    9.2208   -3.3667   -1.5773 C   0  0  0  0  0  0  0  0  0  0  0  0
   10.3639   -3.5189   -2.4751 C   0  0  0  0  0  0  0  0  0  0  0  0
   10.5849   -4.7250   -3.1376 C   0  0  0  0  0  0  0  0  0  0  0  0
   11.6232   -4.8303   -4.0412 C   0  0  0  0  0  0  0  0  0  0  0  0
   12.4405   -3.7423   -4.2977 C   0  0  0  0  0  0  0  0  0  0  0  0
   12.2296   -2.5316   -3.6511 C   0  0  0  0  0  0  0  0  0  0  0  0
   13.0700   -1.3273   -3.9618 C   0  0  0  0  0  0  0  0  0  0  0  0
   12.3564   -0.4343   -4.9791 C   0  0  0  0  0  0  0  0  0  0  0  0
   11.1855   -2.4307   -2.7448 C   0  0  0  0  0  0  0  0  0  0  0  0
    8.7704   -4.2900   -0.6333 C   0  0  0  0  0  0  0  0  0  0  0  0
    7.1846   -3.8764   -0.0012 S   0  0  0  0  0  0  0  0  0  0  0  0
    7.1789   -2.4112   -0.9154 C   0  0  0  0  0  0  0  0  0  0  0  0
    6.2781   -1.3721   -1.1537 C   0  0  0  0  0  0  0  0  0  0  0  0
    5.0307   -1.0076   -0.7189 N   0  0  0  0  0  0  0  0  0  0  0  0
    4.6965    0.1706   -1.3652 C   0  0  0  0  0  0  0  0  0  0  0  0
    3.5225    0.9641   -1.3626 C   0  0  0  0  0  0  0  0  0  0  0  0
    2.2564    0.7569   -0.8473 N   0  0  0  0  0  0  0  0  0  0  0  0
    1.5160    1.8782   -1.0981 C   0  0  0  0  0  0  0  0  0  0  0  0
    0.1970    2.3082   -0.9135 C   0  0  0  0  0  0  0  0  0  0  0  0
   -1.2355    1.6870   -0.1803 S   0  0  0  0  0  0  0  0  0  0  0  0
    1.5943   -0.4702   -0.4658 C   0  0  0  0  0  0  0  0  0  0  0  0
    1.2953   -0.5313    1.0311 C   0  0  0  0  0  0  0  0  0  0  0  0
    4.5772   -1.5275    0.5533 C   0  0  0  0  0  0  0  0  0  0  0  0
    4.9910   -0.6043    1.6971 C   0  0  0  0  0  0  0  0  0  0  0  0
    9.3969   -5.4627   -0.1171 C   0  0  0  0  0  0  0  0  0  0  0  0
   10.7673   -5.7323   -0.1432 C   0  0  0  0  0  0  0  0  0  0  0  0
   11.6478   -4.7891   -0.5174 F   0  0  0  0  0  0  0  0  0  0  0  0
   11.2886   -6.9679    0.2363 C   0  0  0  0  0  0  0  0  0  0  0  0
   12.6110   -7.1609    0.1032 F   0  0  0  0  0  0  0  0  0  0  0  0
   10.5033   -8.0093    0.7181 C   0  0  0  0  0  0  0  0  0  0  0  0
    9.1373   -7.6934    0.9655 C   0  0  0  0  0  0  0  0  0  0  0  0
    8.3945   -8.4951    1.7270 N   0  0  0  0  0  0  0  0  0  0  0  0
    7.1204   -8.2293    1.9385 C   0  0  0  0  0  0  0  0  0  0  0  0
    6.4767   -9.0721    2.9159 C   0  0  0  0  0  0  0  0  0  0  0  0
    4.9363   -8.7335    3.6448 S   0  0  0  0  0  0  0  0  0  0  0  0
    5.0279  -10.1287    4.6581 C   0  0  0  0  0  0  0  0  0  0  0  0
    3.9502  -10.4804    5.6225 C   0  0  0  0  0  0  0  0  0  0  0  0
    3.7531   -9.3854    6.6711 C   0  0  0  0  0  0  0  0  0  0  0  0
    6.2024  -10.7893    4.4233 C   0  0  0  0  0  0  0  0  0  0  0  0
    7.0332  -10.2040    3.4577 C   0  0  0  0  0  0  0  0  0  0  0  0
    6.5343  -11.9207    5.0651 F   0  0  0  0  0  0  0  0  0  0  0  0
    6.5162   -7.1190    1.2720 C   0  0  0  0  0  0  0  0  0  0  0  0
    7.2849   -6.2504    0.6552 N   0  0  0  0  0  0  0  0  0  0  0  0
    8.5929   -6.4622    0.5161 C   0  0  0  0  0  0  0  0  0  0  0  0
    5.0934   -6.8331    1.2236 C   0  0  0  0  0  0  0  0  0  0  0  0
    4.5121   -5.6126    1.4135 C   0  0  0  0  0  0  0  0  0  0  0  0
    3.1247   -5.6551    1.1853 C   0  0  0  0  0  0  0  0  0  0  0  0
    2.3426   -4.5650    1.3260 F   0  0  0  0  0  0  0  0  0  0  0  0
    2.6338   -6.8679    0.7988 C   0  0  0  0  0  0  0  0  0  0  0  0
    1.2224   -7.2500    0.5164 C   0  0  0  0  0  0  0  0  0  0  0  0
    0.7025   -8.2466    1.5536 C   0  0  0  0  0  0  0  0  0  0  0  0
    3.9260   -8.0149    0.7143 S   0  0  0  0  0  0  0  0  0  0  0  0
   11.0431   -9.2844    1.0801 C   0  0  0  0  0  0  0  0  0  0  0  0
   10.3359  -10.4392    1.0331 C   0  0  0  0  0  0  0  0  0  0  0  0
   10.8849  -11.9135    1.8066 S   0  0  0  0  0  0  0  0  0  0  0  0
    9.4294  -12.7612    1.3228 C   0  0  0  0  0  0  0  0  0  0  0  0
    9.2094  -14.0485    1.7406 C   0  0  0  0  0  0  0  0  0  0  0  0
    8.0767  -14.8355    1.4694 C   0  0  0  0  0  0  0  0  0  0  0  0
    7.1761  -15.5267    1.2943 N   0  0  0  0  0  0  0  0  0  0  0  0
   10.1764  -14.6932    2.5417 C   0  0  0  0  0  0  0  0  0  0  0  0
   10.9574  -15.2306    3.1867 N   0  0  0  0  0  0  0  0  0  0  0  0
    8.6490  -11.9856    0.5255 N   0  0  0  0  0  0  0  0  0  0  0  0
    7.4286  -12.4268   -0.1248 C   0  0  0  0  0  0  0  0  0  0  0  0
    6.2051  -12.2129    0.7576 C   0  0  0  0  0  0  0  0  0  0  0  0
    9.0966  -10.6904    0.2919 C   0  0  0  0  0  0  0  0  0  0  0  0
    8.5460   -9.9511   -0.4931 O   0  0  0  0  0  0  0  0  0  0  0  0
   -9.5450    3.9048    1.8867 H   0  0  0  0  0  0  0  0  0  0  0  0
  -13.8111    6.9728    1.0859 H   0  0  0  0  0  0  0  0  0  0  0  0
  -15.4971    8.4866    0.1006 H   0  0  0  0  0  0  0  0  0  0  0  0
  -16.4861    9.6001   -1.8854 H   0  0  0  0  0  0  0  0  0  0  0  0
  -13.6396    7.6812   -4.4195 H   0  0  0  0  0  0  0  0  0  0  0  0
  -11.9498    6.1809   -3.4725 H   0  0  0  0  0  0  0  0  0  0  0  0
   -6.1708    7.7259   -2.1144 H   0  0  0  0  0  0  0  0  0  0  0  0
   -4.7647    7.9979   -4.1096 H   0  0  0  0  0  0  0  0  0  0  0  0
   -3.4163    5.5210   -6.0053 H   0  0  0  0  0  0  0  0  0  0  0  0
   -4.8390    5.8944   -6.9707 H   0  0  0  0  0  0  0  0  0  0  0  0
   -3.9347    7.2001   -6.1898 H   0  0  0  0  0  0  0  0  0  0  0  0
   -5.7122    4.0191   -5.3213 H   0  0  0  0  0  0  0  0  0  0  0  0
   -7.0988    3.7335   -3.3203 H   0  0  0  0  0  0  0  0  0  0  0  0
   -8.8649    6.9371   -3.2313 H   0  0  0  0  0  0  0  0  0  0  0  0
  -10.4342    8.7700   -2.8200 H   0  0  0  0  0  0  0  0  0  0  0  0
  -12.0564    9.7416   -1.1624 H   0  0  0  0  0  0  0  0  0  0  0  0
  -11.6480    9.7296    0.5602 H   0  0  0  0  0  0  0  0  0  0  0  0
  -10.7547   10.7627   -0.5564 H   0  0  0  0  0  0  0  0  0  0  0  0
   -9.7973    8.3789    1.3785 H   0  0  0  0  0  0  0  0  0  0  0  0
   -8.1816    6.5967    0.9775 H   0  0  0  0  0  0  0  0  0  0  0  0
   -4.3207    0.4143   -0.5473 H   0  0  0  0  0  0  0  0  0  0  0  0
   -3.3275   -1.7687   -1.0554 H   0  0  0  0  0  0  0  0  0  0  0  0
   -0.9440   -3.5551    1.2295 H   0  0  0  0  0  0  0  0  0  0  0  0
   -1.1881   -3.2409   -0.4942 H   0  0  0  0  0  0  0  0  0  0  0  0
   -2.4517   -4.0306    0.4422 H   0  0  0  0  0  0  0  0  0  0  0  0
   -1.3920   -1.7821    2.7450 H   0  0  0  0  0  0  0  0  0  0  0  0
   -2.3514    0.4158    3.2464 H   0  0  0  0  0  0  0  0  0  0  0  0
   -3.8719    4.2430    2.7222 H   0  0  0  0  0  0  0  0  0  0  0  0
   -4.6995    4.8814    4.9434 H   0  0  0  0  0  0  0  0  0  0  0  0
   -6.8885    3.5093    6.7639 H   0  0  0  0  0  0  0  0  0  0  0  0
   -5.3203    4.1807    7.2073 H   0  0  0  0  0  0  0  0  0  0  0  0
   -5.6931    2.4845    7.5533 H   0  0  0  0  0  0  0  0  0  0  0  0
   -5.7717    0.8257    5.7092 H   0  0  0  0  0  0  0  0  0  0  0  0
   -4.9719    0.1861    3.4815 H   0  0  0  0  0  0  0  0  0  0  0  0
   -2.5459    5.9487    0.2227 H   0  0  0  0  0  0  0  0  0  0  0  0
   -3.0654    8.2607   -0.4512 H   0  0  0  0  0  0  0  0  0  0  0  0
   -2.4546    9.0625   -2.6950 H   0  0  0  0  0  0  0  0  0  0  0  0
   -1.7684    8.5408   -4.9728 H   0  0  0  0  0  0  0  0  0  0  0  0
   -1.2405    6.9055   -5.4017 H   0  0  0  0  0  0  0  0  0  0  0  0
    0.6570    8.5003   -5.5281 H   0  0  0  0  0  0  0  0  0  0  0  0
    0.4156    8.9391   -3.8335 H   0  0  0  0  0  0  0  0  0  0  0  0
    0.9358    7.3078   -4.2533 H   0  0  0  0  0  0  0  0  0  0  0  0
   -0.8820    5.2135   -3.6395 H   0  0  0  0  0  0  0  0  0  0  0  0
    9.9348   -5.5682   -2.9502 H   0  0  0  0  0  0  0  0  0  0  0  0
   11.7946   -5.7660   -4.5529 H   0  0  0  0  0  0  0  0  0  0  0  0
   13.2506   -3.8352   -5.0065 H   0  0  0  0  0  0  0  0  0  0  0  0
   13.2499   -0.7578   -3.0479 H   0  0  0  0  0  0  0  0  0  0  0  0
   14.0344   -1.6400   -4.3660 H   0  0  0  0  0  0  0  0  0  0  0  0
   11.3955   -0.1072   -4.5882 H   0  0  0  0  0  0  0  0  0  0  0  0
   12.9586    0.4429   -5.2034 H   0  0  0  0  0  0  0  0  0  0  0  0
   12.1807   -0.9806   -5.9032 H   0  0  0  0  0  0  0  0  0  0  0  0
   11.0206   -1.4993   -2.2232 H   0  0  0  0  0  0  0  0  0  0  0  0
    2.2002   -1.3128   -0.8014 H   0  0  0  0  0  0  0  0  0  0  0  0
    0.6429   -0.5140   -1.0082 H   0  0  0  0  0  0  0  0  0  0  0  0
    2.1689   -0.2696    1.6213 H   0  0  0  0  0  0  0  0  0  0  0  0
    0.9731   -1.5334    1.2981 H   0  0  0  0  0  0  0  0  0  0  0  0
    0.4954    0.1610    1.2794 H   0  0  0  0  0  0  0  0  0  0  0  0
    3.5036   -1.6844    0.5639 H   0  0  0  0  0  0  0  0  0  0  0  0
    5.0576   -2.5013    0.6722 H   0  0  0  0  0  0  0  0  0  0  0  0
    6.0739   -0.5073    1.7304 H   0  0  0  0  0  0  0  0  0  0  0  0
    4.5628    0.3870    1.5620 H   0  0  0  0  0  0  0  0  0  0  0  0
    4.6486   -1.0108    2.6449 H   0  0  0  0  0  0  0  0  0  0  0  0
    4.2196  -11.4201    6.1089 H   0  0  0  0  0  0  0  0  0  0  0  0
    3.0126  -10.6314    5.0803 H   0  0  0  0  0  0  0  0  0  0  0  0
    2.9627   -9.6682    7.3609 H   0  0  0  0  0  0  0  0  0  0  0  0
    4.6688   -9.2321    7.2372 H   0  0  0  0  0  0  0  0  0  0  0  0
    3.4801   -8.4480    6.1915 H   0  0  0  0  0  0  0  0  0  0  0  0
    7.9965  -10.5834    3.1765 H   0  0  0  0  0  0  0  0  0  0  0  0
    5.0490   -4.7379    1.7263 H   0  0  0  0  0  0  0  0  0  0  0  0
    1.1552   -7.6981   -0.4780 H   0  0  0  0  0  0  0  0  0  0  0  0
    0.6104   -6.3456    0.5284 H   0  0  0  0  0  0  0  0  0  0  0  0
   -0.3279   -8.5119    1.3332 H   0  0  0  0  0  0  0  0  0  0  0  0
    1.3070   -9.1506    1.5412 H   0  0  0  0  0  0  0  0  0  0  0  0
    0.7455   -7.8139    2.5505 H   0  0  0  0  0  0  0  0  0  0  0  0
   12.0603   -9.3062    1.4493 H   0  0  0  0  0  0  0  0  0  0  0  0
    7.5309  -13.4769   -0.4019 H   0  0  0  0  0  0  0  0  0  0  0  0
    7.3372  -11.8199   -1.0303 H   0  0  0  0  0  0  0  0  0  0  0  0
    6.2985  -12.7570    1.6946 H   0  0  0  0  0  0  0  0  0  0  0  0
    5.3229  -12.5760    0.2392 H   0  0  0  0  0  0  0  0  0  0  0  0
    6.0774  -11.1538    0.9694 H   0  0  0  0  0  0  0  0  0  0  0  0
  1  2  2  0  0  0  0
  2  3  1  0  0  0  0
  3  4  2  0  0  0  0
  3  5  1  0  0  0  0
  5  6  2  0  0  0  0
  6  7  1  0  0  0  0
  7  8  2  0  0  0  0
  8  9  1  0  0  0  0
  9 10  2  0  0  0  0
 10 11  1  0  0  0  0
 10 12  1  0  0  0  0
 12 13  2  0  0  0  0
 13 14  1  0  0  0  0
 14 15  2  0  0  0  0
 15 16  1  0  0  0  0
 16 17  2  0  0  0  0
 17 18  1  0  0  0  0
 18 19  3  0  0  0  0
 17 20  1  0  0  0  0
 20 21  3  0  0  0  0
  1 22  1  0  0  0  0
 22 23  2  0  0  0  0
 23 24  1  0  0  0  0
 24 25  1  0  0  0  0
 25 26  2  0  0  0  0
 26 27  1  0  0  0  0
 27 28  2  0  0  0  0
 28 29  1  0  0  0  0
 28 30  1  0  0  0  0
 30 31  2  0  0  0  0
 24 32  1  0  0  0  0
 32 33  2  0  0  0  0
 33 34  1  0  0  0  0
 34 35  2  0  0  0  0
 35 36  1  0  0  0  0
 35 37  1  0  0  0  0
 37 38  2  0  0  0  0
 23 39  1  0  0  0  0
 39 40  1  0  0  0  0
 40 41  1  0  0  0  0
 41 42  2  0  0  0  0
 42 43  1  0  0  0  0
 43 44  1  0  0  0  0
 44 45  2  0  0  0  0
 45 46  1  0  0  0  0
 46 47  2  0  0  0  0
 47 48  1  0  0  0  0
 47 49  1  0  0  0  0
 49 50  2  0  0  0  0
 43 51  1  0  0  0  0
 51 52  2  0  0  0  0
 52 53  1  0  0  0  0
 53 54  2  0  0  0  0
 54 55  1  0  0  0  0
 54 56  1  0  0  0  0
 56 57  2  0  0  0  0
 42 58  1  0  0  0  0
 58 59  1  0  0  0  0
 41 60  1  0  0  0  0
 60 61  2  0  0  0  0
 61 62  1  0  0  0  0
 62 63  2  0  0  0  0
 63 64  1  0  0  0  0
 64 65  2  0  0  0  0
 65 66  1  0  0  0  0
 66 67  1  0  0  0  0
 67 68  1  0  0  0  0
 66 69  2  0  0  0  0
 61 70  1  0  0  0  0
 70 71  1  0  0  0  0
 71 72  1  0  0  0  0
 72 73  1  0  0  0  0
 73 74  1  0  0  0  0
 74 75  1  0  0  0  0
 75 76  2  0  0  0  0
 76 77  1  0  0  0  0
 77 78  1  0  0  0  0
 75 79  1  0  0  0  0
 79 80  1  0  0  0  0
 80 81  1  0  0  0  0
 81 82  1  0  0  0  0
 82 83  1  0  0  0  0
 83 84  1  0  0  0  0
 84 85  2  0  0  0  0
 85 86  1  0  0  0  0
 86 87  2  0  0  0  0
 87 88  1  0  0  0  0
 88 89  1  0  0  0  0
 89 90  1  0  0  0  0
 88 91  2  0  0  0  0
 83 92  2  0  0  0  0
 92 93  1  0  0  0  0
 93 94  1  0  0  0  0
 94 95  1  0  0  0  0
 95 96  1  0  0  0  0
 96 97  1  0  0  0  0
 97 98  1  0  0  0  0
 98 99  1  0  0  0  0
 99100  1  0  0  0  0
100101  1  0  0  0  0
101102  1  0  0  0  0
 99103  1  0  0  0  0
103104  1  0  0  0  0
 96105  1  0  0  0  0
105106  1  0  0  0  0
 92107  1  0  0  0  0
107108  2  0  0  0  0
108109  1  0  0  0  0
108110  1  0  0  0  0
110111  1  0  0  0  0
110112  2  0  0  0  0
112113  1  0  0  0  0
113114  2  0  0  0  0
114115  1  0  0  0  0
115116  1  0  0  0  0
116117  1  0  0  0  0
117118  1  0  0  0  0
118119  1  0  0  0  0
119120  1  0  0  0  0
118121  2  0  0  0  0
121122  1  0  0  0  0
121123  1  0  0  0  0
115124  2  0  0  0  0
124125  1  0  0  0  0
125126  2  0  0  0  0
124127  1  0  0  0  0
127128  2  0  0  0  0
128129  1  0  0  0  0
129130  1  0  0  0  0
129131  2  0  0  0  0
131132  1  0  0  0  0
132133  1  0  0  0  0
131134  1  0  0  0  0
112135  1  0  0  0  0
135136  2  0  0  0  0
136137  1  0  0  0  0
137138  1  0  0  0  0
138139  2  0  0  0  0
139140  1  0  0  0  0
140141  3  0  0  0  0
139142  1  0  0  0  0
142143  3  0  0  0  0
138144  1  0  0  0  0
144145  1  0  0  0  0
145146  1  0  0  0  0
144147  1  0  0  0  0
147148  2  0  0  0  0
 16  2  1  0  0  0  0
 59 22  1  0  0  0  0
102 60  1  0  0  0  0
126107  1  0  0  0  0
134127  1  0  0  0  0
147136  1  0  0  0  0
 15  5  1  0  0  0  0
 31 25  1  0  0  0  0
 38 32  1  0  0  0  0
 58 39  2  0  0  0  0
 69 62  1  0  0  0  0
101 70  2  0  0  0  0
126113  1  0  0  0  0
 13  7  1  0  0  0  0
 50 44  1  0  0  0  0
 57 51  1  0  0  0  0
100 72  2  0  0  0  0
122116  2  0  0  0  0
 98 73  2  0  0  0  0
 78 74  2  0  0  0  0
 97 79  2  0  0  0  0
 95 80  2  0  0  0  0
 94 82  2  0  0  0  0
 91 84  1  0  0  0  0
  1149  1  0  0  0  0
  6150  1  0  0  0  0
  8151  1  0  0  0  0
  9152  1  0  0  0  0
 12153  1  0  0  0  0
 14154  1  0  0  0  0
 26155  1  0  0  0  0
 27156  1  0  0  0  0
 29157  1  0  0  0  0
 29158  1  0  0  0  0
 29159  1  0  0  0  0
 30160  1  0  0  0  0
 31161  1  0  0  0  0
 33162  1  0  0  0  0
 34163  1  0  0  0  0
 36164  1  0  0  0  0
 36165  1  0  0  0  0
 36166  1  0  0  0  0
 37167  1  0  0  0  0
 38168  1  0  0  0  0
 45169  1  0  0  0  0
 46170  1  0  0  0  0
 48171  1  0  0  0  0
 48172  1  0  0  0  0
 48173  1  0  0  0  0
 49174  1  0  0  0  0
 50175  1  0  0  0  0
 52176  1  0  0  0  0
 53177  1  0  0  0  0
 55178  1  0  0  0  0
 55179  1  0  0  0  0
 55180  1  0  0  0  0
 56181  1  0  0  0  0
 57182  1  0  0  0  0
 63183  1  0  0  0  0
 64184  1  0  0  0  0
 65185  1  0  0  0  0
 67186  1  0  0  0  0
 67187  1  0  0  0  0
 68188  1  0  0  0  0
 68189  1  0  0  0  0
 68190  1  0  0  0  0
 69191  1  0  0  0  0
 85192  1  0  0  0  0
 86193  1  0  0  0  0
 87194  1  0  0  0  0
 89195  1  0  0  0  0
 89196  1  0  0  0  0
 90197  1  0  0  0  0
 90198  1  0  0  0  0
 90199  1  0  0  0  0
 91200  1  0  0  0  0
103201  1  0  0  0  0
103202  1  0  0  0  0
104203  1  0  0  0  0
104204  1  0  0  0  0
104205  1  0  0  0  0
105206  1  0  0  0  0
105207  1  0  0  0  0
106208  1  0  0  0  0
106209  1  0  0  0  0
106210  1  0  0  0  0
119211  1  0  0  0  0
119212  1  0  0  0  0
120213  1  0  0  0  0
120214  1  0  0  0  0
120215  1  0  0  0  0
122216  1  0  0  0  0
128217  1  0  0  0  0
132218  1  0  0  0  0
132219  1  0  0  0  0
133220  1  0  0  0  0
133221  1  0  0  0  0
133222  1  0  0  0  0
135223  1  0  0  0  0
145224  1  0  0  0  0
145225  1  0  0  0  0
146226  1  0  0  0  0
146227  1  0  0  0  0
146228  1  0  0  0  0
M  END
