
  xtb     02072216403D
 energy: -357.974705944511 gnorm: 0.000212492577 xtb: 6.4.1 (unknown)
211234  0     0  0            999 V2000
    4.4348    9.3822   -4.9662 C   0  0  0  0  0  0  0  0  0  0  0  0
    4.6463    9.9493   -6.2068 C   0  0  0  0  0  0  0  0  0  0  0  0
    4.8244    9.2291   -7.4669 C   0  0  0  0  0  0  0  0  0  0  0  0
    4.7041    8.0324   -7.6742 O   0  0  0  0  0  0  0  0  0  0  0  0
    5.2160   10.2435   -8.4644 C   0  0  0  0  0  0  0  0  0  0  0  0
    5.5092   10.0779   -9.7856 C   0  0  0  0  0  0  0  0  0  0  0  0
    5.8700   11.2055  -10.5582 C   0  0  0  0  0  0  0  0  0  0  0  0
    6.1829   11.0933  -11.9275 C   0  0  0  0  0  0  0  0  0  0  0  0
    6.5324   12.1919  -12.6633 C   0  0  0  0  0  0  0  0  0  0  0  0
    6.5762   13.4420  -12.0332 C   0  0  0  0  0  0  0  0  0  0  0  0
    6.9237   14.5129  -12.7731 F   0  0  0  0  0  0  0  0  0  0  0  0
    6.2813   13.6064  -10.7083 C   0  0  0  0  0  0  0  0  0  0  0  0
    5.9186   12.4861   -9.9363 C   0  0  0  0  0  0  0  0  0  0  0  0
    5.6037   12.6260   -8.5633 C   0  0  0  0  0  0  0  0  0  0  0  0
    5.2567   11.5200   -7.8365 C   0  0  0  0  0  0  0  0  0  0  0  0
    4.8715   11.3548   -6.4357 C   0  0  0  0  0  0  0  0  0  0  0  0
    4.7324   12.3810   -5.5298 C   0  0  0  0  0  0  0  0  0  0  0  0
    5.0455   13.7255   -5.8069 C   0  0  0  0  0  0  0  0  0  0  0  0
    5.2995   14.8362   -5.9564 N   0  0  0  0  0  0  0  0  0  0  0  0
    4.2350   12.2570   -4.2196 C   0  0  0  0  0  0  0  0  0  0  0  0
    3.8086   12.2550   -3.1512 N   0  0  0  0  0  0  0  0  0  0  0  0
    4.2141    8.0588   -4.6029 C   0  0  0  0  0  0  0  0  0  0  0  0
    4.0929    7.6355   -3.2521 C   0  0  0  0  0  0  0  0  0  0  0  0
    4.3499    8.4026   -2.1484 N   0  0  0  0  0  0  0  0  0  0  0  0
    3.6155    8.1523   -0.9728 C   0  0  0  0  0  0  0  0  0  0  0  0
    4.2494    8.0918    0.2635 C   0  0  0  0  0  0  0  0  0  0  0  0
    3.5126    7.8446    1.4054 C   0  0  0  0  0  0  0  0  0  0  0  0
    2.1387    7.6489    1.3454 C   0  0  0  0  0  0  0  0  0  0  0  0
    1.3396    7.3602    2.5782 C   0  0  0  0  0  0  0  0  0  0  0  0
    1.5139    7.7168    0.1046 C   0  0  0  0  0  0  0  0  0  0  0  0
    2.2365    7.9689   -1.0429 C   0  0  0  0  0  0  0  0  0  0  0  0
    5.3931    9.3461   -2.1075 C   0  0  0  0  0  0  0  0  0  0  0  0
    5.2421   10.5195   -1.3729 C   0  0  0  0  0  0  0  0  0  0  0  0
    6.2664   11.4441   -1.3335 C   0  0  0  0  0  0  0  0  0  0  0  0
    7.4535   11.2332   -2.0252 C   0  0  0  0  0  0  0  0  0  0  0  0
    8.5352   12.2683   -2.0049 C   0  0  0  0  0  0  0  0  0  0  0  0
    7.6003   10.0498   -2.7400 C   0  0  0  0  0  0  0  0  0  0  0  0
    6.5911    9.1088   -2.7773 C   0  0  0  0  0  0  0  0  0  0  0  0
    3.6896    6.2928   -3.1860 C   0  0  0  0  0  0  0  0  0  0  0  0
    3.3943    5.1970   -1.8740 S   0  0  0  0  0  0  0  0  0  0  0  0
    3.1428    3.8900   -3.0203 C   0  0  0  0  0  0  0  0  0  0  0  0
    3.1949    4.3074   -4.3447 C   0  0  0  0  0  0  0  0  0  0  0  0
    2.8972    3.5268   -5.4415 N   0  0  0  0  0  0  0  0  0  0  0  0
    2.0028    2.4513   -5.3628 C   0  0  0  0  0  0  0  0  0  0  0  0
    0.8630    2.5128   -4.5659 C   0  0  0  0  0  0  0  0  0  0  0  0
    0.0557    1.4009   -4.4185 C   0  0  0  0  0  0  0  0  0  0  0  0
    0.3475    0.2102   -5.0690 C   0  0  0  0  0  0  0  0  0  0  0  0
   -0.4766   -1.0216   -4.8511 C   0  0  0  0  0  0  0  0  0  0  0  0
    1.4410    0.1827   -5.9282 C   0  0  0  0  0  0  0  0  0  0  0  0
    2.2559    1.2848   -6.0818 C   0  0  0  0  0  0  0  0  0  0  0  0
    3.4932    3.8344   -6.6806 C   0  0  0  0  0  0  0  0  0  0  0  0
    4.8561    4.1002   -6.7567 C   0  0  0  0  0  0  0  0  0  0  0  0
    5.4255    4.4544   -7.9624 C   0  0  0  0  0  0  0  0  0  0  0  0
    4.6575    4.5461   -9.1163 C   0  0  0  0  0  0  0  0  0  0  0  0
    5.2788    4.9930  -10.4032 C   0  0  0  0  0  0  0  0  0  0  0  0
    3.3043    4.2434   -9.0368 C   0  0  0  0  0  0  0  0  0  0  0  0
    2.7214    3.8907   -7.8354 C   0  0  0  0  0  0  0  0  0  0  0  0
    3.5432    5.6798   -4.4255 C   0  0  0  0  0  0  0  0  0  0  0  0
    3.9183    6.7374   -5.7378 S   0  0  0  0  0  0  0  0  0  0  0  0
    2.9454    2.5414   -2.5810 C   0  0  0  0  0  0  0  0  0  0  0  0
    3.6075    1.4355   -3.0756 C   0  0  0  0  0  0  0  0  0  0  0  0
    4.8489    1.5385   -3.8412 C   0  0  0  0  0  0  0  0  0  0  0  0
    5.1471    0.6582   -4.8765 C   0  0  0  0  0  0  0  0  0  0  0  0
    6.3268    0.8026   -5.5820 C   0  0  0  0  0  0  0  0  0  0  0  0
    7.2273    1.8018   -5.2536 C   0  0  0  0  0  0  0  0  0  0  0  0
    6.9703    2.6598   -4.1912 C   0  0  0  0  0  0  0  0  0  0  0  0
    7.9500    3.7257   -3.7822 C   0  0  0  0  0  0  0  0  0  0  0  0
    7.4116    5.1374   -4.0232 C   0  0  0  0  0  0  0  0  0  0  0  0
    5.7800    2.5147   -3.4952 C   0  0  0  0  0  0  0  0  0  0  0  0
    2.9939    0.2414   -2.6428 C   0  0  0  0  0  0  0  0  0  0  0  0
    3.3000   -1.4428   -2.9780 S   0  0  0  0  0  0  0  0  0  0  0  0
    1.9904   -1.8699   -1.9280 C   0  0  0  0  0  0  0  0  0  0  0  0
    1.3823   -3.0199   -1.3944 C   0  0  0  0  0  0  0  0  0  0  0  0
    1.7260   -4.3884   -1.4710 C   0  0  0  0  0  0  0  0  0  0  0  0
    1.0811   -5.3230   -0.5877 C   0  0  0  0  0  0  0  0  0  0  0  0
    1.5684   -6.5478   -0.7065 N   0  0  0  0  0  0  0  0  0  0  0  0
    2.7280   -6.5330   -1.8367 S   0  0  0  0  0  0  0  0  0  0  0  0
    2.6588   -4.9607   -2.2155 N   0  0  0  0  0  0  0  0  0  0  0  0
    0.0263   -4.8702    0.2343 C   0  0  0  0  0  0  0  0  0  0  0  0
   -0.8013   -5.5176    1.1705 C   0  0  0  0  0  0  0  0  0  0  0  0
   -0.9447   -7.0604    1.9417 S   0  0  0  0  0  0  0  0  0  0  0  0
   -2.2771   -6.4400    2.8843 C   0  0  0  0  0  0  0  0  0  0  0  0
   -3.0373   -6.9868    3.9396 C   0  0  0  0  0  0  0  0  0  0  0  0
   -2.7949   -8.3005    4.5373 C   0  0  0  0  0  0  0  0  0  0  0  0
   -2.5727   -9.4179    3.7378 C   0  0  0  0  0  0  0  0  0  0  0  0
   -2.3370  -10.6462    4.3256 C   0  0  0  0  0  0  0  0  0  0  0  0
   -2.3190  -10.7724    5.7045 C   0  0  0  0  0  0  0  0  0  0  0  0
   -2.5192   -9.6635    6.5176 C   0  0  0  0  0  0  0  0  0  0  0  0
   -2.5348   -9.7788    8.0151 C   0  0  0  0  0  0  0  0  0  0  0  0
   -3.9665   -9.7092    8.5508 C   0  0  0  0  0  0  0  0  0  0  0  0
   -2.7496   -8.4330    5.9210 C   0  0  0  0  0  0  0  0  0  0  0  0
   -3.9551   -6.0748    4.4183 C   0  0  0  0  0  0  0  0  0  0  0  0
   -3.8628   -4.5236    3.6005 S   0  0  0  0  0  0  0  0  0  0  0  0
   -2.5919   -5.1132    2.5879 C   0  0  0  0  0  0  0  0  0  0  0  0
   -1.7462   -4.5839    1.6043 C   0  0  0  0  0  0  0  0  0  0  0  0
   -1.5377   -3.3797    0.9770 N   0  0  0  0  0  0  0  0  0  0  0  0
   -0.4210   -3.5251    0.1715 C   0  0  0  0  0  0  0  0  0  0  0  0
    0.3499   -2.5678   -0.5303 C   0  0  0  0  0  0  0  0  0  0  0  0
    0.3497   -1.1807   -0.5164 N   0  0  0  0  0  0  0  0  0  0  0  0
    1.3531   -0.7678   -1.3551 C   0  0  0  0  0  0  0  0  0  0  0  0
    1.9235    0.4426   -1.7715 C   0  0  0  0  0  0  0  0  0  0  0  0
    1.6414    2.1221   -1.4842 S   0  0  0  0  0  0  0  0  0  0  0  0
   -0.1246   -0.2845    0.5195 C   0  0  0  0  0  0  0  0  0  0  0  0
    0.3907   -0.6860    1.8981 C   0  0  0  0  0  0  0  0  0  0  0  0
   -2.6250   -2.4491    0.7639 C   0  0  0  0  0  0  0  0  0  0  0  0
   -3.8567   -3.1440    0.1847 C   0  0  0  0  0  0  0  0  0  0  0  0
   -4.8980   -6.2587    5.4848 C   0  0  0  0  0  0  0  0  0  0  0  0
   -5.8004   -7.2851    5.6646 C   0  0  0  0  0  0  0  0  0  0  0  0
   -6.1134   -8.3437    4.6540 C   0  0  0  0  0  0  0  0  0  0  0  0
   -6.0256   -9.7577    5.2221 C   0  0  0  0  0  0  0  0  0  0  0  0
   -6.4787   -7.1457    6.8908 C   0  0  0  0  0  0  0  0  0  0  0  0
   -6.1118   -6.0049    7.6224 C   0  0  0  0  0  0  0  0  0  0  0  0
   -4.9110   -5.0776    6.7913 S   0  0  0  0  0  0  0  0  0  0  0  0
   -6.7748   -5.8753    8.8268 C   0  0  0  0  0  0  0  0  0  0  0  0
   -7.6632   -6.9288    9.0553 C   0  0  0  0  0  0  0  0  0  0  0  0
   -7.6614   -8.0816    7.7257 S   0  0  0  0  0  0  0  0  0  0  0  0
   -8.4316   -6.9958   10.2258 C   0  0  0  0  0  0  0  0  0  0  0  0
   -9.3254   -7.9437   10.6563 C   0  0  0  0  0  0  0  0  0  0  0  0
   -9.6641   -9.1853    9.9505 C   0  0  0  0  0  0  0  0  0  0  0  0
   -9.2530   -9.5593    8.8658 O   0  0  0  0  0  0  0  0  0  0  0  0
  -10.6067   -9.9076   10.8211 C   0  0  0  0  0  0  0  0  0  0  0  0
  -11.1991  -11.1205   10.6203 C   0  0  0  0  0  0  0  0  0  0  0  0
  -12.0770  -11.6285   11.6038 C   0  0  0  0  0  0  0  0  0  0  0  0
  -12.7152  -12.8761   11.4508 C   0  0  0  0  0  0  0  0  0  0  0  0
  -13.5617  -13.3566   12.4111 C   0  0  0  0  0  0  0  0  0  0  0  0
  -13.7902  -12.5873   13.5599 C   0  0  0  0  0  0  0  0  0  0  0  0
  -14.6264  -13.0767   14.4938 F   0  0  0  0  0  0  0  0  0  0  0  0
  -13.1972  -11.3715   13.7580 C   0  0  0  0  0  0  0  0  0  0  0  0
  -12.3222  -10.8615   12.7794 C   0  0  0  0  0  0  0  0  0  0  0  0
  -11.6932   -9.6069   12.9580 C   0  0  0  0  0  0  0  0  0  0  0  0
  -10.8456   -9.1345   11.9921 C   0  0  0  0  0  0  0  0  0  0  0  0
  -10.0657   -7.9016   11.9020 C   0  0  0  0  0  0  0  0  0  0  0  0
  -10.0675   -6.9000   12.8397 C   0  0  0  0  0  0  0  0  0  0  0  0
  -10.8237   -6.9329   14.0300 C   0  0  0  0  0  0  0  0  0  0  0  0
  -11.4104   -6.8917   15.0162 N   0  0  0  0  0  0  0  0  0  0  0  0
   -9.3372   -5.6959   12.7686 C   0  0  0  0  0  0  0  0  0  0  0  0
   -8.7810   -4.6906   12.7914 N   0  0  0  0  0  0  0  0  0  0  0  0
    4.4524   10.0707   -4.1312 H   0  0  0  0  0  0  0  0  0  0  0  0
    5.4648    9.0991  -10.2396 H   0  0  0  0  0  0  0  0  0  0  0  0
    6.1420   10.1189  -12.3909 H   0  0  0  0  0  0  0  0  0  0  0  0
    6.7745   12.1230  -13.7120 H   0  0  0  0  0  0  0  0  0  0  0  0
    6.3247   14.5850  -10.2562 H   0  0  0  0  0  0  0  0  0  0  0  0
    5.6480   13.6095   -8.1240 H   0  0  0  0  0  0  0  0  0  0  0  0
    5.3181    8.2344    0.3225 H   0  0  0  0  0  0  0  0  0  0  0  0
    4.0176    7.7967    2.3591 H   0  0  0  0  0  0  0  0  0  0  0  0
    1.9314    7.5250    3.4747 H   0  0  0  0  0  0  0  0  0  0  0  0
    0.4554    7.9937    2.6190 H   0  0  0  0  0  0  0  0  0  0  0  0
    1.0056    6.3226    2.5720 H   0  0  0  0  0  0  0  0  0  0  0  0
    0.4447    7.5773    0.0393 H   0  0  0  0  0  0  0  0  0  0  0  0
    1.7391    8.0349   -1.9996 H   0  0  0  0  0  0  0  0  0  0  0  0
    4.3180   10.7080   -0.8499 H   0  0  0  0  0  0  0  0  0  0  0  0
    6.1325   12.3559   -0.7717 H   0  0  0  0  0  0  0  0  0  0  0  0
    9.4547   11.8827   -2.4381 H   0  0  0  0  0  0  0  0  0  0  0  0
    8.7351   12.5946   -0.9859 H   0  0  0  0  0  0  0  0  0  0  0  0
    8.2247   13.1425   -2.5773 H   0  0  0  0  0  0  0  0  0  0  0  0
    8.5215    9.8568   -3.2709 H   0  0  0  0  0  0  0  0  0  0  0  0
    6.7220    8.1915   -3.3326 H   0  0  0  0  0  0  0  0  0  0  0  0
    0.6180    3.4309   -4.0519 H   0  0  0  0  0  0  0  0  0  0  0  0
   -0.8119    1.4619   -3.7767 H   0  0  0  0  0  0  0  0  0  0  0  0
   -0.7954   -1.4453   -5.8020 H   0  0  0  0  0  0  0  0  0  0  0  0
   -1.3573   -0.8008   -4.2527 H   0  0  0  0  0  0  0  0  0  0  0  0
    0.1125   -1.7784   -4.3317 H   0  0  0  0  0  0  0  0  0  0  0  0
    1.6678   -0.7256   -6.4676 H   0  0  0  0  0  0  0  0  0  0  0  0
    3.1097    1.2490   -6.7415 H   0  0  0  0  0  0  0  0  0  0  0  0
    5.4569    4.0211   -5.8649 H   0  0  0  0  0  0  0  0  0  0  0  0
    6.4831    4.6695   -8.0086 H   0  0  0  0  0  0  0  0  0  0  0  0
    5.4549    6.0677  -10.3615 H   0  0  0  0  0  0  0  0  0  0  0  0
    6.2374    4.5028  -10.5632 H   0  0  0  0  0  0  0  0  0  0  0  0
    4.6280    4.7829  -11.2482 H   0  0  0  0  0  0  0  0  0  0  0  0
    2.6913    4.3001   -9.9248 H   0  0  0  0  0  0  0  0  0  0  0  0
    1.6651    3.6698   -7.7818 H   0  0  0  0  0  0  0  0  0  0  0  0
    4.4520   -0.1274   -5.1280 H   0  0  0  0  0  0  0  0  0  0  0  0
    6.5492    0.1270   -6.3947 H   0  0  0  0  0  0  0  0  0  0  0  0
    8.1445    1.9049   -5.8154 H   0  0  0  0  0  0  0  0  0  0  0  0
    8.1702    3.6122   -2.7170 H   0  0  0  0  0  0  0  0  0  0  0  0
    8.8831    3.5971   -4.3339 H   0  0  0  0  0  0  0  0  0  0  0  0
    7.2384    5.3107   -5.0833 H   0  0  0  0  0  0  0  0  0  0  0  0
    8.1285    5.8749   -3.6677 H   0  0  0  0  0  0  0  0  0  0  0  0
    6.4730    5.2867   -3.4928 H   0  0  0  0  0  0  0  0  0  0  0  0
    5.5827    3.1572   -2.6493 H   0  0  0  0  0  0  0  0  0  0  0  0
   -2.5968   -9.3228    2.6627 H   0  0  0  0  0  0  0  0  0  0  0  0
   -2.1692  -11.5132    3.7043 H   0  0  0  0  0  0  0  0  0  0  0  0
   -2.1412  -11.7387    6.1539 H   0  0  0  0  0  0  0  0  0  0  0  0
   -2.0792  -10.7225    8.3199 H   0  0  0  0  0  0  0  0  0  0  0  0
   -1.9520   -8.9630    8.4493 H   0  0  0  0  0  0  0  0  0  0  0  0
   -3.9688   -9.7755    9.6363 H   0  0  0  0  0  0  0  0  0  0  0  0
   -4.4370   -8.7722    8.2610 H   0  0  0  0  0  0  0  0  0  0  0  0
   -4.5634  -10.5270    8.1533 H   0  0  0  0  0  0  0  0  0  0  0  0
   -2.8782   -7.5592    6.5432 H   0  0  0  0  0  0  0  0  0  0  0  0
    0.2546    0.7075    0.2626 H   0  0  0  0  0  0  0  0  0  0  0  0
   -1.2142   -0.2222    0.5280 H   0  0  0  0  0  0  0  0  0  0  0  0
    1.4775   -0.7261    1.8945 H   0  0  0  0  0  0  0  0  0  0  0  0
    0.0716    0.0461    2.6347 H   0  0  0  0  0  0  0  0  0  0  0  0
    0.0101   -1.6616    2.1883 H   0  0  0  0  0  0  0  0  0  0  0  0
   -2.8812   -1.9650    1.7123 H   0  0  0  0  0  0  0  0  0  0  0  0
   -2.2916   -1.7037    0.0452 H   0  0  0  0  0  0  0  0  0  0  0  0
   -4.2783   -3.8531    0.8906 H   0  0  0  0  0  0  0  0  0  0  0  0
   -3.5939   -3.6734   -0.7288 H   0  0  0  0  0  0  0  0  0  0  0  0
   -4.6146   -2.4008   -0.0480 H   0  0  0  0  0  0  0  0  0  0  0  0
   -7.1347   -8.1714    4.2990 H   0  0  0  0  0  0  0  0  0  0  0  0
   -5.4387   -8.2435    3.8034 H   0  0  0  0  0  0  0  0  0  0  0  0
   -6.7371   -9.8908    6.0331 H   0  0  0  0  0  0  0  0  0  0  0  0
   -5.0254   -9.9572    5.5942 H   0  0  0  0  0  0  0  0  0  0  0  0
   -6.2538  -10.4795    4.4420 H   0  0  0  0  0  0  0  0  0  0  0  0
   -6.6354   -5.0694    9.5244 H   0  0  0  0  0  0  0  0  0  0  0  0
   -8.2654   -6.1512   10.8836 H   0  0  0  0  0  0  0  0  0  0  0  0
  -10.9996  -11.6861    9.7224 H   0  0  0  0  0  0  0  0  0  0  0  0
  -12.5233  -13.4506   10.5571 H   0  0  0  0  0  0  0  0  0  0  0  0
  -14.0576  -14.3089   12.3099 H   0  0  0  0  0  0  0  0  0  0  0  0
  -13.3962  -10.8060   14.6550 H   0  0  0  0  0  0  0  0  0  0  0  0
  -11.8999   -9.0540   13.8599 H   0  0  0  0  0  0  0  0  0  0  0  0
  1  2  2  0  0  0  0
  2  3  1  0  0  0  0
  3  4  2  0  0  0  0
  3  5  1  0  0  0  0
  5  6  2  0  0  0  0
  6  7  1  0  0  0  0
  7  8  2  0  0  0  0
  8  9  1  0  0  0  0
  9 10  2  0  0  0  0
 10 11  1  0  0  0  0
 10 12  1  0  0  0  0
 12 13  2  0  0  0  0
 13 14  1  0  0  0  0
 14 15  2  0  0  0  0
 15 16  1  0  0  0  0
 16 17  2  0  0  0  0
 17 18  1  0  0  0  0
 18 19  3  0  0  0  0
 17 20  1  0  0  0  0
 20 21  3  0  0  0  0
  1 22  1  0  0  0  0
 22 23  2  0  0  0  0
 23 24  1  0  0  0  0
 24 25  1  0  0  0  0
 25 26  2  0  0  0  0
 26 27  1  0  0  0  0
 27 28  2  0  0  0  0
 28 29  1  0  0  0  0
 28 30  1  0  0  0  0
 30 31  2  0  0  0  0
 24 32  1  0  0  0  0
 32 33  2  0  0  0  0
 33 34  1  0  0  0  0
 34 35  2  0  0  0  0
 35 36  1  0  0  0  0
 35 37  1  0  0  0  0
 37 38  2  0  0  0  0
 23 39  1  0  0  0  0
 39 40  1  0  0  0  0
 40 41  1  0  0  0  0
 41 42  2  0  0  0  0
 42 43  1  0  0  0  0
 43 44  1  0  0  0  0
 44 45  2  0  0  0  0
 45 46  1  0  0  0  0
 46 47  2  0  0  0  0
 47 48  1  0  0  0  0
 47 49  1  0  0  0  0
 49 50  2  0  0  0  0
 43 51  1  0  0  0  0
 51 52  2  0  0  0  0
 52 53  1  0  0  0  0
 53 54  2  0  0  0  0
 54 55  1  0  0  0  0
 54 56  1  0  0  0  0
 56 57  2  0  0  0  0
 42 58  1  0  0  0  0
 58 59  1  0  0  0  0
 41 60  1  0  0  0  0
 60 61  2  0  0  0  0
 61 62  1  0  0  0  0
 62 63  2  0  0  0  0
 63 64  1  0  0  0  0
 64 65  2  0  0  0  0
 65 66  1  0  0  0  0
 66 67  1  0  0  0  0
 67 68  1  0  0  0  0
 66 69  2  0  0  0  0
 61 70  1  0  0  0  0
 70 71  1  0  0  0  0
 71 72  1  0  0  0  0
 72 73  1  0  0  0  0
 73 74  1  0  0  0  0
 74 75  1  0  0  0  0
 75 76  2  0  0  0  0
 76 77  1  0  0  0  0
 77 78  1  0  0  0  0
 75 79  1  0  0  0  0
 79 80  1  0  0  0  0
 80 81  1  0  0  0  0
 81 82  1  0  0  0  0
 82 83  1  0  0  0  0
 83 84  1  0  0  0  0
 84 85  2  0  0  0  0
 85 86  1  0  0  0  0
 86 87  2  0  0  0  0
 87 88  1  0  0  0  0
 88 89  1  0  0  0  0
 89 90  1  0  0  0  0
 88 91  2  0  0  0  0
 83 92  2  0  0  0  0
 92 93  1  0  0  0  0
 93 94  1  0  0  0  0
 94 95  1  0  0  0  0
 95 96  1  0  0  0  0
 96 97  1  0  0  0  0
 97 98  1  0  0  0  0
 98 99  1  0  0  0  0
 99100  1  0  0  0  0
100101  1  0  0  0  0
101102  1  0  0  0  0
 99103  1  0  0  0  0
103104  1  0  0  0  0
 96105  1  0  0  0  0
105106  1  0  0  0  0
 92107  1  0  0  0  0
107108  2  0  0  0  0
108109  1  0  0  0  0
109110  1  0  0  0  0
108111  1  0  0  0  0
111112  2  0  0  0  0
112113  1  0  0  0  0
112114  1  0  0  0  0
114115  2  0  0  0  0
115116  1  0  0  0  0
115117  1  0  0  0  0
117118  2  0  0  0  0
118119  1  0  0  0  0
119120  2  0  0  0  0
119121  1  0  0  0  0
121122  2  0  0  0  0
122123  1  0  0  0  0
123124  2  0  0  0  0
124125  1  0  0  0  0
125126  2  0  0  0  0
126127  1  0  0  0  0
126128  1  0  0  0  0
128129  2  0  0  0  0
129130  1  0  0  0  0
130131  2  0  0  0  0
131132  1  0  0  0  0
132133  2  0  0  0  0
133134  1  0  0  0  0
134135  3  0  0  0  0
133136  1  0  0  0  0
136137  3  0  0  0  0
 16  2  1  0  0  0  0
 59 22  1  0  0  0  0
102 60  1  0  0  0  0
113107  1  0  0  0  0
132118  1  0  0  0  0
 15  5  1  0  0  0  0
 31 25  1  0  0  0  0
 38 32  1  0  0  0  0
 58 39  2  0  0  0  0
 69 62  1  0  0  0  0
101 70  2  0  0  0  0
116111  1  0  0  0  0
131121  1  0  0  0  0
 13  7  1  0  0  0  0
 50 44  1  0  0  0  0
 57 51  1  0  0  0  0
100 72  2  0  0  0  0
129123  1  0  0  0  0
 98 73  2  0  0  0  0
 78 74  2  0  0  0  0
 97 79  2  0  0  0  0
 95 80  2  0  0  0  0
 94 82  2  0  0  0  0
 91 84  1  0  0  0  0
  1138  1  0  0  0  0
  6139  1  0  0  0  0
  8140  1  0  0  0  0
  9141  1  0  0  0  0
 12142  1  0  0  0  0
 14143  1  0  0  0  0
 26144  1  0  0  0  0
 27145  1  0  0  0  0
 29146  1  0  0  0  0
 29147  1  0  0  0  0
 29148  1  0  0  0  0
 30149  1  0  0  0  0
 31150  1  0  0  0  0
 33151  1  0  0  0  0
 34152  1  0  0  0  0
 36153  1  0  0  0  0
 36154  1  0  0  0  0
 36155  1  0  0  0  0
 37156  1  0  0  0  0
 38157  1  0  0  0  0
 45158  1  0  0  0  0
 46159  1  0  0  0  0
 48160  1  0  0  0  0
 48161  1  0  0  0  0
 48162  1  0  0  0  0
 49163  1  0  0  0  0
 50164  1  0  0  0  0
 52165  1  0  0  0  0
 53166  1  0  0  0  0
 55167  1  0  0  0  0
 55168  1  0  0  0  0
 55169  1  0  0  0  0
 56170  1  0  0  0  0
 57171  1  0  0  0  0
 63172  1  0  0  0  0
 64173  1  0  0  0  0
 65174  1  0  0  0  0
 67175  1  0  0  0  0
 67176  1  0  0  0  0
 68177  1  0  0  0  0
 68178  1  0  0  0  0
 68179  1  0  0  0  0
 69180  1  0  0  0  0
 85181  1  0  0  0  0
 86182  1  0  0  0  0
 87183  1  0  0  0  0
 89184  1  0  0  0  0
 89185  1  0  0  0  0
 90186  1  0  0  0  0
 90187  1  0  0  0  0
 90188  1  0  0  0  0
 91189  1  0  0  0  0
103190  1  0  0  0  0
103191  1  0  0  0  0
104192  1  0  0  0  0
104193  1  0  0  0  0
104194  1  0  0  0  0
105195  1  0  0  0  0
105196  1  0  0  0  0
106197  1  0  0  0  0
106198  1  0  0  0  0
106199  1  0  0  0  0
109200  1  0  0  0  0
109201  1  0  0  0  0
110202  1  0  0  0  0
110203  1  0  0  0  0
110204  1  0  0  0  0
114205  1  0  0  0  0
117206  1  0  0  0  0
122207  1  0  0  0  0
124208  1  0  0  0  0
125209  1  0  0  0  0
128210  1  0  0  0  0
130211  1  0  0  0  0
M  END
