202

C         -6.09010       -6.50180       -2.56240
C         -6.50930       -7.33050       -1.53710
C         -6.78840       -6.92770       -0.16150
O         -6.65250       -5.82470        0.34500
C         -7.30510       -8.12820        0.52170
C         -7.70050       -8.27080        1.81860
C         -8.16510       -9.53030        2.26160
C         -8.58160       -9.73780        3.59150
C         -9.02970      -10.96130        4.00730
C         -9.07020      -12.01520        3.08590
F         -9.51480      -13.21340        3.51270
C         -8.67740      -11.86770        1.78470
C         -8.21210      -10.61530        1.34010
C         -7.79260      -10.43460       -0.00010
C         -7.34240       -9.20750       -0.40460
C         -6.82420       -8.72850       -1.68630
C         -6.64480       -9.51290       -2.80330
C         -6.00940       -9.11550       -3.99350
N         -5.47010       -8.89250       -4.98510
C         -7.04500      -10.85990       -2.89200
N         -7.36570      -11.95400       -3.03730
C         -5.69830       -5.17080       -2.53930
C         -5.23770       -4.47180       -3.69280
N         -5.36750       -4.89480       -4.98460
C         -4.44650       -4.42960       -5.94670
C         -3.07940       -4.47910       -5.68800
C         -2.18350       -3.98680       -6.61480
C         -2.62090       -3.44140       -7.81660
C         -1.63330       -2.91110       -8.80820
C         -3.98510       -3.42390       -8.07660
C         -4.89270       -3.91370       -7.15820
C         -6.47770       -5.63460       -5.43720
C         -7.75190       -5.39870       -4.92790
C         -8.82370       -6.14170       -5.38080
C         -8.66050       -7.11660       -6.35830
C         -9.81530       -7.94430       -6.83070
C         -7.39000       -7.31860       -6.88470
C         -6.30610       -6.59370       -6.43200
C         -4.61340       -3.26990       -3.32530
S         -3.80740       -2.00880       -4.20660
C         -3.51580       -1.12730       -2.71050
C         -4.09750       -1.75090       -1.60870
N         -4.11580       -1.25710       -0.31520
C         -4.38240        0.08520       -0.03730
C         -5.09450        0.88830       -0.92720
C         -5.29620        2.22440       -0.65090
C         -4.81140        2.80070        0.51860
C         -5.02700        4.25810        0.79130
C         -4.12460        1.99010        1.41270
C         -3.90600        0.65360        1.14340
C         -4.10520       -2.20930        0.72480
C         -5.05430       -2.17580        1.74050
C         -5.07430       -3.17070        2.69670
C         -4.16060       -4.21710        2.66480
C         -4.24120       -5.33500        3.65730
C         -3.19660       -4.22400        1.66500
C         -3.16190       -3.23180        0.70590
C         -4.68650       -2.98520       -1.96720
S         -5.50520       -4.21040       -1.06700
C         -2.63260       -0.01430       -2.71630
C         -2.19760        0.73140       -3.80200
C         -2.78190        0.65550       -5.14170
C         -1.96640        0.51420       -6.25970
C         -2.53410        0.42040       -7.51610
C         -3.90840        0.46410       -7.66810
C         -4.73640        0.63110       -6.56530
C         -6.23060        0.63780       -6.71200
C         -6.77710       -0.78070       -6.54070
C         -4.16120        0.73340       -5.30930
C         -1.14040        1.58870       -3.44760
S         -0.17950        2.73170       -4.35820
C          0.70620        3.10460       -2.91530
C          1.82430        3.85220       -2.51100
C          2.77830        4.58470       -3.25200
C          3.97420        5.03540       -2.59430
N          4.81530        5.62850       -3.42650
S          4.15840        5.62970       -4.90670
N          2.77660        4.86700       -4.54500
C          4.10080        4.85080       -1.20000
C          5.10770        5.21900       -0.29040
S          6.68650        5.93090       -0.28970
C          6.72550        5.78670        1.45260
C          7.71000        6.08590        2.41110
C          9.05430        6.54620        2.06310
C          9.23080        7.61920        1.19360
C         10.50890        8.03470        0.86790
C         11.61130        7.38190        1.39090
C         11.45330        6.29490        2.24290
C         12.64550        5.55100        2.77100
C         13.00740        4.39150        1.84100
C         10.17010        5.88160        2.56730
C          7.27430        5.78130        3.69230
S          5.66200        5.07590        3.70280
C          5.56350        5.22150        1.98580
C          4.64510        4.88800        0.98520
N          3.40270        4.31020        0.90660
C          3.06280        4.24900       -0.43610
C          1.98800        3.62310       -1.11520
N          1.02200        2.72540       -0.70360
C          0.25600        2.40730       -1.79080
C         -0.78700        1.52670       -2.09850
S         -1.73870        0.36660       -1.24830
C          0.90890        1.94800        0.50850
C         -0.31990        2.34610        1.32810
C          2.52960        4.41690        2.05620
C          2.18270        5.87690        2.34880
C          7.90590        5.98430        4.94800
S          7.42860        4.98200        6.29470
C          8.51800        5.80710        7.38950
C          9.20560        6.82590        6.70520
C         10.15420        7.78830        7.13760
C         10.55330        8.66390        6.18110
C         11.53360        9.77570        6.34420
C         12.61330        9.73250        5.26510
Se         9.73430        8.34460        4.50220
C          8.85750        6.91400        5.33750
C          8.70550        5.54270        8.74350
C          8.11210        4.60940        9.56100
C          7.08970        3.63150        9.16130
O          6.60170        3.48350        8.05360
C          6.77810        2.86930       10.38050
C          5.93980        1.81400       10.77570
C          6.10220        1.53210       12.10020
S          7.26700        2.53430       12.88980
C          7.55570        3.36070       11.41750
C          8.40130        4.43810       10.96990
C          9.28420        5.12300       11.77190
C          9.41640        4.79690       13.13640
N          9.53080        4.53590       14.24860
C         10.12160        6.17450       11.36170
N         10.82830        7.03880       11.08630
H         -6.03390       -6.96290       -3.54010
H         -7.65990       -7.43390        2.50010
H         -8.54140       -8.90930        4.28300
H         -9.35170      -11.13670        5.02160
H         -8.72150      -12.70260        1.10280
H         -7.83960      -11.27760       -0.67020
H         -2.72860       -4.90630       -4.76000
H         -1.12510       -4.02600       -6.40320
H         -0.91410       -2.25990       -8.31560
H         -2.13360       -2.35360       -9.59550
H         -1.08150       -3.73260       -9.26560
H         -4.34480       -3.01430       -9.00930
H         -5.95200       -3.89400       -7.36790
H         -7.89660       -4.63900       -4.17380
H         -9.80590       -5.95420       -4.97130
H        -10.75810       -7.54850       -6.46180
H         -9.84650       -7.97480       -7.91820
H         -9.70850       -8.96880       -6.47390
H         -7.24220       -8.06910       -7.64620
H         -5.32210       -6.77520       -6.83440
H         -5.49290        0.45810       -1.83420
H         -5.84580        2.83410       -1.35380
H         -6.08600        4.50530        0.73360
H         -4.65990        4.52770        1.77840
H         -4.50490        4.86320        0.05010
H         -3.74250        2.41190        2.33150
H         -3.35320        0.04050        1.83940
H         -5.78600       -1.38160        1.76090
H         -5.82930       -3.14680        3.46880
H         -3.26260       -5.77700        3.83070
H         -4.64880       -4.98950        4.60460
H         -4.89900       -6.11300        3.26800
H         -2.46900       -5.02220        1.63020
H         -2.41530       -3.24940       -0.07540
H         -0.89490        0.46580       -6.13760
H         -1.90000        0.31180       -8.38330
H         -4.34460        0.37980       -8.65310
H         -6.67470        1.29030       -5.95740
H         -6.50890        1.01580       -7.69750
H         -6.36340       -1.43440       -7.30420
H         -6.49630       -1.17960       -5.56820
H         -7.86180       -0.78690       -6.62180
H         -4.79020        0.88100       -4.44240
H          8.36920        8.12830        0.78880
H         10.64510        8.87350        0.20150
H         12.60640        7.71640        1.13490
H         13.49740        6.22890        2.85090
H         12.42450        5.16030        3.76650
H         13.24010        4.76370        0.84580
H         13.87200        3.85350        2.22240
H         12.17400        3.69740        1.75950
H         10.02930        5.02830        3.21660
H          1.83310        2.03970        1.08010
H          0.80250        0.89670        0.21780
H         -0.35290        3.41880        1.50710
H         -0.30850        1.82880        2.28330
H         -1.22870        2.06950        0.79980
H          3.05050        3.98080        2.91430
H          1.61160        3.87070        1.87840
H          1.69130        6.32650        1.48820
H          3.07750        6.44970        2.57660
H          1.51300        5.92900        3.20270
H         10.53080        7.82630        8.14620
H         11.98660        9.70420        7.33520
H         11.00680       10.73340        6.28360
H         13.15670        8.79120        5.31160
H         12.15790        9.81800        4.27690
H         13.31680       10.55050        5.39670
H          9.44100        6.18610        9.20880
H          5.26110        1.29600       10.12370
H          5.59910        0.78060       12.67670
