
  xtb     02072209103D
 energy: -424.571644493559 gnorm: 0.000694697488 xtb: 6.4.1 (unknown)
255281  0     0  0            999 V2000
   -5.2921   10.4025    2.1124 C   0  0  0  0  0  0  0  0  0  0  0  0
   -6.5856   10.1008    1.7273 C   0  0  0  0  0  0  0  0  0  0  0  0
   -7.1421    8.7411    1.7555 C   0  0  0  0  0  0  0  0  0  0  0  0
   -6.5679    7.7110    2.0602 O   0  0  0  0  0  0  0  0  0  0  0  0
   -8.5823    8.8958    1.4616 C   0  0  0  0  0  0  0  0  0  0  0  0
   -9.5483    7.9383    1.3835 C   0  0  0  0  0  0  0  0  0  0  0  0
  -10.8730    8.3199    1.0664 C   0  0  0  0  0  0  0  0  0  0  0  0
  -11.9091    7.3708    0.9639 C   0  0  0  0  0  0  0  0  0  0  0  0
  -13.1872    7.7510    0.6585 C   0  0  0  0  0  0  0  0  0  0  0  0
  -13.4556    9.1086    0.4448 C   0  0  0  0  0  0  0  0  0  0  0  0
  -14.7195    9.4655    0.1424 F   0  0  0  0  0  0  0  0  0  0  0  0
  -12.4873   10.0700    0.5321 C   0  0  0  0  0  0  0  0  0  0  0  0
  -11.1670    9.6958    0.8465 C   0  0  0  0  0  0  0  0  0  0  0  0
  -10.1424   10.6682    0.9442 C   0  0  0  0  0  0  0  0  0  0  0  0
   -8.8688   10.2722    1.2432 C   0  0  0  0  0  0  0  0  0  0  0  0
   -7.6259   11.0254    1.3886 C   0  0  0  0  0  0  0  0  0  0  0  0
   -7.4493   12.3548    1.0811 C   0  0  0  0  0  0  0  0  0  0  0  0
   -8.4754   13.1981    0.6222 C   0  0  0  0  0  0  0  0  0  0  0  0
   -9.2715   13.9255    0.2238 N   0  0  0  0  0  0  0  0  0  0  0  0
   -6.2005   13.0037    1.1032 C   0  0  0  0  0  0  0  0  0  0  0  0
   -5.2086   13.5832    1.0695 N   0  0  0  0  0  0  0  0  0  0  0  0
   -4.1999    9.5404    2.0399 C   0  0  0  0  0  0  0  0  0  0  0  0
   -3.9547    8.4147    1.2216 C   0  0  0  0  0  0  0  0  0  0  0  0
   -4.7062    7.9786    0.1702 N   0  0  0  0  0  0  0  0  0  0  0  0
   -5.5559    8.8121   -0.5684 C   0  0  0  0  0  0  0  0  0  0  0  0
   -6.7836    8.3269   -1.0140 C   0  0  0  0  0  0  0  0  0  0  0  0
   -7.6475    9.1519   -1.7100 C   0  0  0  0  0  0  0  0  0  0  0  0
   -7.3132   10.4703   -1.9875 C   0  0  0  0  0  0  0  0  0  0  0  0
   -8.2607   11.3818   -2.7010 C   0  0  0  0  0  0  0  0  0  0  0  0
   -6.0640   10.9331   -1.5784 C   0  0  0  0  0  0  0  0  0  0  0  0
   -5.1951   10.1229   -0.8791 C   0  0  0  0  0  0  0  0  0  0  0  0
   -4.6116    6.6224   -0.2155 C   0  0  0  0  0  0  0  0  0  0  0  0
   -4.4225    6.2900   -1.5520 C   0  0  0  0  0  0  0  0  0  0  0  0
   -4.3101    4.9634   -1.9210 C   0  0  0  0  0  0  0  0  0  0  0  0
   -4.3837    3.9478   -0.9754 C   0  0  0  0  0  0  0  0  0  0  0  0
   -4.2203    2.5127   -1.3715 C   0  0  0  0  0  0  0  0  0  0  0  0
   -4.5959    4.2929    0.3549 C   0  0  0  0  0  0  0  0  0  0  0  0
   -4.7120    5.6137    0.7379 C   0  0  0  0  0  0  0  0  0  0  0  0
   -2.7174    7.8240    1.5643 C   0  0  0  0  0  0  0  0  0  0  0  0
   -1.8578    6.4392    0.9864 S   0  0  0  0  0  0  0  0  0  0  0  0
   -0.5338    6.7684    2.0982 C   0  0  0  0  0  0  0  0  0  0  0  0
   -0.7768    7.8668    2.9088 C   0  0  0  0  0  0  0  0  0  0  0  0
    0.0033    8.2795    3.9755 N   0  0  0  0  0  0  0  0  0  0  0  0
    0.5598    7.3513    4.8620 C   0  0  0  0  0  0  0  0  0  0  0  0
    0.0136    6.0777    5.0112 C   0  0  0  0  0  0  0  0  0  0  0  0
    0.6041    5.1558    5.8524 C   0  0  0  0  0  0  0  0  0  0  0  0
    1.7354    5.4757    6.5913 C   0  0  0  0  0  0  0  0  0  0  0  0
    2.3935    4.4611    7.4757 C   0  0  0  0  0  0  0  0  0  0  0  0
    2.2481    6.7618    6.4735 C   0  0  0  0  0  0  0  0  0  0  0  0
    1.6794    7.6864    5.6209 C   0  0  0  0  0  0  0  0  0  0  0  0
    0.0755    9.6623    4.2225 C   0  0  0  0  0  0  0  0  0  0  0  0
    0.2404   10.5417    3.1551 C   0  0  0  0  0  0  0  0  0  0  0  0
    0.2921   11.9023    3.3768 C   0  0  0  0  0  0  0  0  0  0  0  0
    0.1842   12.4245    4.6603 C   0  0  0  0  0  0  0  0  0  0  0  0
    0.2232   13.9049    4.8830 C   0  0  0  0  0  0  0  0  0  0  0  0
    0.0154   11.5405    5.7185 C   0  0  0  0  0  0  0  0  0  0  0  0
   -0.0450   10.1767    5.5095 C   0  0  0  0  0  0  0  0  0  0  0  0
   -2.0067    8.4793    2.5604 C   0  0  0  0  0  0  0  0  0  0  0  0
   -2.8316    9.8877    3.1132 S   0  0  0  0  0  0  0  0  0  0  0  0
    0.5687    5.8581    2.0834 C   0  0  0  0  0  0  0  0  0  0  0  0
    1.9257    6.0761    2.1892 C   0  0  0  0  0  0  0  0  0  0  0  0
    2.6125    7.3692    2.3099 C   0  0  0  0  0  0  0  0  0  0  0  0
    3.5351    7.5020    3.3443 C   0  0  0  0  0  0  0  0  0  0  0  0
    4.2219    8.6841    3.5388 C   0  0  0  0  0  0  0  0  0  0  0  0
    3.9996    9.7508    2.6869 C   0  0  0  0  0  0  0  0  0  0  0  0
    3.1283    9.6046    1.6237 C   0  0  0  0  0  0  0  0  0  0  0  0
    2.4326    8.4220    1.4063 C   0  0  0  0  0  0  0  0  0  0  0  0
    1.6138    8.2789    0.1529 C   0  0  0  0  0  0  0  0  0  0  0  0
    2.3324    7.3789   -0.8540 C   0  0  0  0  0  0  0  0  0  0  0  0
    2.6361    4.8553    2.1430 C   0  0  0  0  0  0  0  0  0  0  0  0
    4.3434    4.4850    2.1882 S   0  0  0  0  0  0  0  0  0  0  0  0
    3.9665    2.8105    1.9479 C   0  0  0  0  0  0  0  0  0  0  0  0
    4.6277    1.5896    1.7201 C   0  0  0  0  0  0  0  0  0  0  0  0
    5.9869    1.2721    1.4979 C   0  0  0  0  0  0  0  0  0  0  0  0
    6.3312   -0.0385    1.0106 C   0  0  0  0  0  0  0  0  0  0  0  0
    7.6253   -0.1581    0.7594 N   0  0  0  0  0  0  0  0  0  0  0  0
    8.3516    1.2447    1.1153 S   0  0  0  0  0  0  0  0  0  0  0  0
    7.0417    2.0651    1.5965 N   0  0  0  0  0  0  0  0  0  0  0  0
    5.3209   -1.0193    0.8998 C   0  0  0  0  0  0  0  0  0  0  0  0
    5.3327   -2.3714    0.5022 C   0  0  0  0  0  0  0  0  0  0  0  0
    6.4048   -3.5399   -0.1917 S   0  0  0  0  0  0  0  0  0  0  0  0
    5.0929   -4.6970   -0.2766 C   0  0  0  0  0  0  0  0  0  0  0  0
    4.9475   -6.0000   -0.8108 C   0  0  0  0  0  0  0  0  0  0  0  0
    5.9554   -6.9418   -1.3304 C   0  0  0  0  0  0  0  0  0  0  0  0
    6.9206   -6.6668   -2.3030 C   0  0  0  0  0  0  0  0  0  0  0  0
    7.1783   -5.3045   -2.8781 C   0  0  0  0  0  0  0  0  0  0  0  0
    8.5286   -4.7655   -2.3991 C   0  0  0  0  0  0  0  0  0  0  0  0
    7.7205   -7.7101   -2.7622 C   0  0  0  0  0  0  0  0  0  0  0  0
    7.6137   -8.9927   -2.2655 C   0  0  0  0  0  0  0  0  0  0  0  0
    6.6961   -9.2541   -1.2615 C   0  0  0  0  0  0  0  0  0  0  0  0
    5.8810   -8.2390   -0.8084 C   0  0  0  0  0  0  0  0  0  0  0  0
    3.6447   -6.4397   -0.6623 C   0  0  0  0  0  0  0  0  0  0  0  0
    2.6204   -5.3248    0.2166 S   0  0  0  0  0  0  0  0  0  0  0  0
    3.9147   -4.1932    0.2784 C   0  0  0  0  0  0  0  0  0  0  0  0
    4.0460   -2.8683    0.7053 C   0  0  0  0  0  0  0  0  0  0  0  0
    3.2268   -1.8849    1.1981 N   0  0  0  0  0  0  0  0  0  0  0  0
    3.9853   -0.7298    1.2848 C   0  0  0  0  0  0  0  0  0  0  0  0
    3.6146    0.6094    1.5495 C   0  0  0  0  0  0  0  0  0  0  0  0
    2.3782    1.2223    1.6292 N   0  0  0  0  0  0  0  0  0  0  0  0
    2.5952    2.5553    1.8624 C   0  0  0  0  0  0  0  0  0  0  0  0
    1.8358    3.7277    1.9631 C   0  0  0  0  0  0  0  0  0  0  0  0
    0.1680    4.1581    1.8735 S   0  0  0  0  0  0  0  0  0  0  0  0
    1.1030    0.7622    1.1242 C   0  0  0  0  0  0  0  0  0  0  0  0
    0.0359    0.6832    2.2154 C   0  0  0  0  0  0  0  0  0  0  0  0
    2.0811   -2.2429    2.0053 C   0  0  0  0  0  0  0  0  0  0  0  0
    2.4876   -3.1182    3.1908 C   0  0  0  0  0  0  0  0  0  0  0  0
    3.0557   -7.5960   -1.2805 C   0  0  0  0  0  0  0  0  0  0  0  0
    3.0161   -7.8475   -2.6416 C   0  0  0  0  0  0  0  0  0  0  0  0
    3.4540   -6.9855   -3.6305 N   0  0  0  0  0  0  0  0  0  0  0  0
    3.2711   -5.6040   -3.5093 C   0  0  0  0  0  0  0  0  0  0  0  0
    4.1950   -4.7188   -4.0616 C   0  0  0  0  0  0  0  0  0  0  0  0
    4.0856   -3.3631   -3.8326 C   0  0  0  0  0  0  0  0  0  0  0  0
    3.0466   -2.8422   -3.0679 C   0  0  0  0  0  0  0  0  0  0  0  0
    2.9923   -1.3785   -2.7512 C   0  0  0  0  0  0  0  0  0  0  0  0
    2.0756   -3.7188   -2.6069 C   0  0  0  0  0  0  0  0  0  0  0  0
    2.1765   -5.0795   -2.8270 C   0  0  0  0  0  0  0  0  0  0  0  0
    3.9687   -7.5500   -4.8113 C   0  0  0  0  0  0  0  0  0  0  0  0
    3.5950   -7.0594   -6.0583 C   0  0  0  0  0  0  0  0  0  0  0  0
    4.0591   -7.6685   -7.2063 C   0  0  0  0  0  0  0  0  0  0  0  0
    4.8973   -8.7757   -7.1449 C   0  0  0  0  0  0  0  0  0  0  0  0
    5.3405   -9.4686   -8.3961 C   0  0  0  0  0  0  0  0  0  0  0  0
    5.2834   -9.2427   -5.8951 C   0  0  0  0  0  0  0  0  0  0  0  0
    4.8313   -8.6396   -4.7384 C   0  0  0  0  0  0  0  0  0  0  0  0
    2.4034   -9.0953   -2.9106 C   0  0  0  0  0  0  0  0  0  0  0  0
    2.0329   -9.9278   -4.3727 S   0  0  0  0  0  0  0  0  0  0  0  0
    1.2472  -11.2151   -3.4475 C   0  0  0  0  0  0  0  0  0  0  0  0
    1.2245  -10.9269   -2.0526 C   0  0  0  0  0  0  0  0  0  0  0  0
    0.6067  -11.6775   -1.0926 N   0  0  0  0  0  0  0  0  0  0  0  0
   -0.6173  -12.3379   -1.3120 C   0  0  0  0  0  0  0  0  0  0  0  0
   -0.8743  -13.5516   -0.6795 C   0  0  0  0  0  0  0  0  0  0  0  0
   -2.0792  -14.1935   -0.8836 C   0  0  0  0  0  0  0  0  0  0  0  0
   -3.0474  -13.6564   -1.7241 C   0  0  0  0  0  0  0  0  0  0  0  0
   -4.3331  -14.3866   -1.9590 C   0  0  0  0  0  0  0  0  0  0  0  0
   -2.7865  -12.4366   -2.3379 C   0  0  0  0  0  0  0  0  0  0  0  0
   -1.5928  -11.7748   -2.1312 C   0  0  0  0  0  0  0  0  0  0  0  0
    1.1407  -11.6705    0.2123 C   0  0  0  0  0  0  0  0  0  0  0  0
    0.3122  -11.5144    1.3179 C   0  0  0  0  0  0  0  0  0  0  0  0
    0.8526  -11.5041    2.5891 C   0  0  0  0  0  0  0  0  0  0  0  0
    2.2200  -11.6437    2.7892 C   0  0  0  0  0  0  0  0  0  0  0  0
    2.8095  -11.6332    4.1652 C   0  0  0  0  0  0  0  0  0  0  0  0
    3.0387  -11.8075    1.6764 C   0  0  0  0  0  0  0  0  0  0  0  0
    2.5119  -11.8254    0.4018 C   0  0  0  0  0  0  0  0  0  0  0  0
    1.9260   -9.7421   -1.7782 C   0  0  0  0  0  0  0  0  0  0  0  0
    2.2365   -8.8282   -0.3347 S   0  0  0  0  0  0  0  0  0  0  0  0
    0.8073  -12.4178   -3.9828 C   0  0  0  0  0  0  0  0  0  0  0  0
    0.7400  -12.8480   -5.2958 C   0  0  0  0  0  0  0  0  0  0  0  0
    1.0424  -12.0495   -6.4796 C   0  0  0  0  0  0  0  0  0  0  0  0
    1.4846  -10.9161   -6.5323 O   0  0  0  0  0  0  0  0  0  0  0  0
    0.6765  -12.8923   -7.6407 C   0  0  0  0  0  0  0  0  0  0  0  0
    0.1804  -14.1249   -7.1802 C   0  0  0  0  0  0  0  0  0  0  0  0
   -0.2440  -15.0801   -8.0886 C   0  0  0  0  0  0  0  0  0  0  0  0
   -0.1644  -14.7905   -9.4439 C   0  0  0  0  0  0  0  0  0  0  0  0
    0.3336  -13.5774   -9.8913 C   0  0  0  0  0  0  0  0  0  0  0  0
    0.4256  -13.2477  -11.7507 Br  0  0  0  0  0  0  0  0  0  0  0  0
    0.7673  -12.5992   -8.9900 C   0  0  0  0  0  0  0  0  0  0  0  0
    1.3904  -11.0993   -9.5334 Cl  0  0  0  0  0  0  0  0  0  0  0  0
    0.2476  -14.1331   -5.7172 C   0  0  0  0  0  0  0  0  0  0  0  0
   -0.0778  -15.2092   -4.9235 C   0  0  0  0  0  0  0  0  0  0  0  0
    0.1275  -15.2919   -3.5339 C   0  0  0  0  0  0  0  0  0  0  0  0
    0.3004  -15.4611   -2.4095 N   0  0  0  0  0  0  0  0  0  0  0  0
   -0.6334  -16.4095   -5.4069 C   0  0  0  0  0  0  0  0  0  0  0  0
   -1.1026  -17.4074   -5.7300 N   0  0  0  0  0  0  0  0  0  0  0  0
   -5.0972   11.3732    2.5525 H   0  0  0  0  0  0  0  0  0  0  0  0
   -9.3088    6.8992    1.5545 H   0  0  0  0  0  0  0  0  0  0  0  0
  -11.6776    6.3299    1.1340 H   0  0  0  0  0  0  0  0  0  0  0  0
  -13.9914    7.0368    0.5789 H   0  0  0  0  0  0  0  0  0  0  0  0
  -12.7306   11.1071    0.3610 H   0  0  0  0  0  0  0  0  0  0  0  0
  -10.3971   11.7039    0.7852 H   0  0  0  0  0  0  0  0  0  0  0  0
   -7.0605    7.3061   -0.7972 H   0  0  0  0  0  0  0  0  0  0  0  0
   -8.6047    8.7646   -2.0280 H   0  0  0  0  0  0  0  0  0  0  0  0
   -8.5634   12.2003   -2.0479 H   0  0  0  0  0  0  0  0  0  0  0  0
   -9.1521   10.8467   -3.0175 H   0  0  0  0  0  0  0  0  0  0  0  0
   -7.7832   11.8199   -3.5760 H   0  0  0  0  0  0  0  0  0  0  0  0
   -5.7730   11.9484   -1.8056 H   0  0  0  0  0  0  0  0  0  0  0  0
   -4.2346   10.5056   -0.5677 H   0  0  0  0  0  0  0  0  0  0  0  0
   -4.3579    7.0730   -2.2935 H   0  0  0  0  0  0  0  0  0  0  0  0
   -4.1552    4.7146   -2.9608 H   0  0  0  0  0  0  0  0  0  0  0  0
   -4.4468    2.3699   -2.4251 H   0  0  0  0  0  0  0  0  0  0  0  0
   -3.1904    2.1981   -1.1994 H   0  0  0  0  0  0  0  0  0  0  0  0
   -4.8693    1.8712   -0.7794 H   0  0  0  0  0  0  0  0  0  0  0  0
   -4.6750    3.5151    1.1004 H   0  0  0  0  0  0  0  0  0  0  0  0
   -4.9066    5.8812    1.7647 H   0  0  0  0  0  0  0  0  0  0  0  0
   -0.8862    5.8083    4.4788 H   0  0  0  0  0  0  0  0  0  0  0  0
    0.1687    4.1706    5.9417 H   0  0  0  0  0  0  0  0  0  0  0  0
    2.8595    4.9393    8.3341 H   0  0  0  0  0  0  0  0  0  0  0  0
    3.1712    3.9322    6.9227 H   0  0  0  0  0  0  0  0  0  0  0  0
    1.6726    3.7269    7.8283 H   0  0  0  0  0  0  0  0  0  0  0  0
    3.1186    7.0425    7.0490 H   0  0  0  0  0  0  0  0  0  0  0  0
    2.1080    8.6724    5.5304 H   0  0  0  0  0  0  0  0  0  0  0  0
    0.3310   10.1481    2.1541 H   0  0  0  0  0  0  0  0  0  0  0  0
    0.4195   12.5725    2.5393 H   0  0  0  0  0  0  0  0  0  0  0  0
   -0.7229   14.3519    4.5772 H   0  0  0  0  0  0  0  0  0  0  0  0
    0.3877   14.1379    5.9320 H   0  0  0  0  0  0  0  0  0  0  0  0
    1.0135   14.3628    4.2914 H   0  0  0  0  0  0  0  0  0  0  0  0
   -0.0822   11.9244    6.7238 H   0  0  0  0  0  0  0  0  0  0  0  0
   -0.1943    9.5050    6.3419 H   0  0  0  0  0  0  0  0  0  0  0  0
    3.7000    6.6671    4.0081 H   0  0  0  0  0  0  0  0  0  0  0  0
    4.9260    8.7700    4.3526 H   0  0  0  0  0  0  0  0  0  0  0  0
    4.5187   10.6859    2.8346 H   0  0  0  0  0  0  0  0  0  0  0  0
    2.9897   10.4267    0.9356 H   0  0  0  0  0  0  0  0  0  0  0  0
    1.4662    9.2645   -0.2942 H   0  0  0  0  0  0  0  0  0  0  0  0
    0.6310    7.8598    0.3667 H   0  0  0  0  0  0  0  0  0  0  0  0
    2.4672    6.3799   -0.4460 H   0  0  0  0  0  0  0  0  0  0  0  0
    1.7543    7.3024   -1.7721 H   0  0  0  0  0  0  0  0  0  0  0  0
    3.3131    7.7852   -1.0912 H   0  0  0  0  0  0  0  0  0  0  0  0
    7.2029   -5.3775   -3.9685 H   0  0  0  0  0  0  0  0  0  0  0  0
    6.3853   -4.6127   -2.6029 H   0  0  0  0  0  0  0  0  0  0  0  0
    8.5743   -4.7579   -1.3132 H   0  0  0  0  0  0  0  0  0  0  0  0
    9.3429   -5.3836   -2.7693 H   0  0  0  0  0  0  0  0  0  0  0  0
    8.6741   -3.7492   -2.7558 H   0  0  0  0  0  0  0  0  0  0  0  0
    8.4404   -7.5022   -3.5405 H   0  0  0  0  0  0  0  0  0  0  0  0
    8.2445   -9.7802   -2.6501 H   0  0  0  0  0  0  0  0  0  0  0  0
    6.6116  -10.2439   -0.8377 H   0  0  0  0  0  0  0  0  0  0  0  0
    5.1764   -8.4449   -0.0158 H   0  0  0  0  0  0  0  0  0  0  0  0
    1.2474   -0.2004    0.6328 H   0  0  0  0  0  0  0  0  0  0  0  0
    0.7665    1.4778    0.3644 H   0  0  0  0  0  0  0  0  0  0  0  0
    0.3704    0.0943    3.0664 H   0  0  0  0  0  0  0  0  0  0  0  0
   -0.2080    1.6792    2.5735 H   0  0  0  0  0  0  0  0  0  0  0  0
   -0.8662    0.2324    1.8114 H   0  0  0  0  0  0  0  0  0  0  0  0
    1.3636   -2.7817    1.3775 H   0  0  0  0  0  0  0  0  0  0  0  0
    1.6251   -1.3367    2.3893 H   0  0  0  0  0  0  0  0  0  0  0  0
    1.6169   -3.3214    3.8083 H   0  0  0  0  0  0  0  0  0  0  0  0
    3.2350   -2.6078    3.7949 H   0  0  0  0  0  0  0  0  0  0  0  0
    2.8987   -4.0655    2.8542 H   0  0  0  0  0  0  0  0  0  0  0  0
    5.0049   -5.1096   -4.6566 H   0  0  0  0  0  0  0  0  0  0  0  0
    4.8320   -2.6951   -4.2379 H   0  0  0  0  0  0  0  0  0  0  0  0
    2.0674   -1.1253   -2.2379 H   0  0  0  0  0  0  0  0  0  0  0  0
    3.0618   -0.7834   -3.6604 H   0  0  0  0  0  0  0  0  0  0  0  0
    3.8298   -1.1027   -2.1089 H   0  0  0  0  0  0  0  0  0  0  0  0
    1.2286   -3.3380   -2.0533 H   0  0  0  0  0  0  0  0  0  0  0  0
    1.4072   -5.7429   -2.4589 H   0  0  0  0  0  0  0  0  0  0  0  0
    2.9273   -6.2124   -6.1199 H   0  0  0  0  0  0  0  0  0  0  0  0
    3.7494   -7.2887   -8.1692 H   0  0  0  0  0  0  0  0  0  0  0  0
    5.4498   -8.7630   -9.2167 H   0  0  0  0  0  0  0  0  0  0  0  0
    4.5936  -10.2083   -8.6864 H   0  0  0  0  0  0  0  0  0  0  0  0
    6.2849   -9.9861   -8.2440 H   0  0  0  0  0  0  0  0  0  0  0  0
    5.9448  -10.0941   -5.8236 H   0  0  0  0  0  0  0  0  0  0  0  0
    5.1398   -9.0101   -3.7715 H   0  0  0  0  0  0  0  0  0  0  0  0
   -0.1243  -13.9914   -0.0414 H   0  0  0  0  0  0  0  0  0  0  0  0
   -2.2624  -15.1393   -0.3970 H   0  0  0  0  0  0  0  0  0  0  0  0
   -4.8174  -14.6213   -1.0124 H   0  0  0  0  0  0  0  0  0  0  0  0
   -5.0150  -13.7948   -2.5643 H   0  0  0  0  0  0  0  0  0  0  0  0
   -4.1400  -15.3276   -2.4737 H   0  0  0  0  0  0  0  0  0  0  0  0
   -3.5316  -11.9912   -2.9813 H   0  0  0  0  0  0  0  0  0  0  0  0
   -1.4089  -10.8230   -2.6078 H   0  0  0  0  0  0  0  0  0  0  0  0
   -0.7514  -11.3941    1.1750 H   0  0  0  0  0  0  0  0  0  0  0  0
    0.1986  -11.3767    3.4393 H   0  0  0  0  0  0  0  0  0  0  0  0
    3.6462  -10.9386    4.2166 H   0  0  0  0  0  0  0  0  0  0  0  0
    2.0678  -11.3446    4.9052 H   0  0  0  0  0  0  0  0  0  0  0  0
    3.1843  -12.6240    4.4213 H   0  0  0  0  0  0  0  0  0  0  0  0
    4.1034  -11.9277    1.8136 H   0  0  0  0  0  0  0  0  0  0  0  0
    3.1551  -11.9640   -0.4550 H   0  0  0  0  0  0  0  0  0  0  0  0
    0.4580  -13.1287   -3.2451 H   0  0  0  0  0  0  0  0  0  0  0  0
   -0.6329  -16.0335   -7.7727 H   0  0  0  0  0  0  0  0  0  0  0  0
   -0.4927  -15.5205  -10.1677 H   0  0  0  0  0  0  0  0  0  0  0  0
  1  2  2  0  0  0  0
  2  3  1  0  0  0  0
  3  4  2  0  0  0  0
  3  5  1  0  0  0  0
  5  6  2  0  0  0  0
  6  7  1  0  0  0  0
  7  8  2  0  0  0  0
  8  9  1  0  0  0  0
  9 10  2  0  0  0  0
 10 11  1  0  0  0  0
 10 12  1  0  0  0  0
 12 13  2  0  0  0  0
 13 14  1  0  0  0  0
 14 15  2  0  0  0  0
 15 16  1  0  0  0  0
 16 17  2  0  0  0  0
 17 18  1  0  0  0  0
 18 19  3  0  0  0  0
 17 20  1  0  0  0  0
 20 21  3  0  0  0  0
  1 22  1  0  0  0  0
 22 23  2  0  0  0  0
 23 24  1  0  0  0  0
 24 25  1  0  0  0  0
 25 26  2  0  0  0  0
 26 27  1  0  0  0  0
 27 28  2  0  0  0  0
 28 29  1  0  0  0  0
 28 30  1  0  0  0  0
 30 31  2  0  0  0  0
 24 32  1  0  0  0  0
 32 33  2  0  0  0  0
 33 34  1  0  0  0  0
 34 35  2  0  0  0  0
 35 36  1  0  0  0  0
 35 37  1  0  0  0  0
 37 38  2  0  0  0  0
 23 39  1  0  0  0  0
 39 40  1  0  0  0  0
 40 41  1  0  0  0  0
 41 42  2  0  0  0  0
 42 43  1  0  0  0  0
 43 44  1  0  0  0  0
 44 45  2  0  0  0  0
 45 46  1  0  0  0  0
 46 47  2  0  0  0  0
 47 48  1  0  0  0  0
 47 49  1  0  0  0  0
 49 50  2  0  0  0  0
 43 51  1  0  0  0  0
 51 52  2  0  0  0  0
 52 53  1  0  0  0  0
 53 54  2  0  0  0  0
 54 55  1  0  0  0  0
 54 56  1  0  0  0  0
 56 57  2  0  0  0  0
 42 58  1  0  0  0  0
 58 59  1  0  0  0  0
 41 60  1  0  0  0  0
 60 61  2  0  0  0  0
 61 62  1  0  0  0  0
 62 63  2  0  0  0  0
 63 64  1  0  0  0  0
 64 65  2  0  0  0  0
 65 66  1  0  0  0  0
 66 67  2  0  0  0  0
 67 68  1  0  0  0  0
 68 69  1  0  0  0  0
 61 70  1  0  0  0  0
 70 71  1  0  0  0  0
 71 72  1  0  0  0  0
 72 73  1  0  0  0  0
 73 74  1  0  0  0  0
 74 75  1  0  0  0  0
 75 76  2  0  0  0  0
 76 77  1  0  0  0  0
 77 78  1  0  0  0  0
 75 79  1  0  0  0  0
 79 80  1  0  0  0  0
 80 81  1  0  0  0  0
 81 82  1  0  0  0  0
 82 83  1  0  0  0  0
 83 84  1  0  0  0  0
 84 85  2  0  0  0  0
 85 86  1  0  0  0  0
 86 87  1  0  0  0  0
 85 88  1  0  0  0  0
 88 89  2  0  0  0  0
 89 90  1  0  0  0  0
 90 91  2  0  0  0  0
 83 92  2  0  0  0  0
 92 93  1  0  0  0  0
 93 94  1  0  0  0  0
 94 95  1  0  0  0  0
 95 96  1  0  0  0  0
 96 97  1  0  0  0  0
 97 98  1  0  0  0  0
 98 99  1  0  0  0  0
 99100  1  0  0  0  0
100101  1  0  0  0  0
101102  1  0  0  0  0
 99103  1  0  0  0  0
103104  1  0  0  0  0
 96105  1  0  0  0  0
105106  1  0  0  0  0
 92107  1  0  0  0  0
107108  2  0  0  0  0
108109  1  0  0  0  0
109110  1  0  0  0  0
110111  2  0  0  0  0
111112  1  0  0  0  0
112113  2  0  0  0  0
113114  1  0  0  0  0
113115  1  0  0  0  0
115116  2  0  0  0  0
109117  1  0  0  0  0
117118  2  0  0  0  0
118119  1  0  0  0  0
119120  2  0  0  0  0
120121  1  0  0  0  0
120122  1  0  0  0  0
122123  2  0  0  0  0
108124  1  0  0  0  0
124125  1  0  0  0  0
125126  1  0  0  0  0
126127  2  0  0  0  0
127128  1  0  0  0  0
128129  1  0  0  0  0
129130  2  0  0  0  0
130131  1  0  0  0  0
131132  2  0  0  0  0
132133  1  0  0  0  0
132134  1  0  0  0  0
134135  2  0  0  0  0
128136  1  0  0  0  0
136137  2  0  0  0  0
137138  1  0  0  0  0
138139  2  0  0  0  0
139140  1  0  0  0  0
139141  1  0  0  0  0
141142  2  0  0  0  0
127143  1  0  0  0  0
143144  1  0  0  0  0
126145  1  0  0  0  0
145146  2  0  0  0  0
146147  1  0  0  0  0
147148  2  0  0  0  0
147149  1  0  0  0  0
149150  2  0  0  0  0
150151  1  0  0  0  0
151152  2  0  0  0  0
152153  1  0  0  0  0
153154  1  0  0  0  0
153155  2  0  0  0  0
155156  1  0  0  0  0
150157  1  0  0  0  0
157158  2  0  0  0  0
158159  1  0  0  0  0
159160  3  0  0  0  0
158161  1  0  0  0  0
161162  3  0  0  0  0
 16  2  1  0  0  0  0
 59 22  1  0  0  0  0
102 60  1  0  0  0  0
144107  1  0  0  0  0
157146  1  0  0  0  0
 15  5  1  0  0  0  0
 31 25  1  0  0  0  0
 38 32  1  0  0  0  0
 58 39  2  0  0  0  0
 67 62  1  0  0  0  0
101 70  2  0  0  0  0
116110  1  0  0  0  0
123117  1  0  0  0  0
143124  2  0  0  0  0
155149  1  0  0  0  0
 13  7  1  0  0  0  0
 50 44  1  0  0  0  0
 57 51  1  0  0  0  0
100 72  2  0  0  0  0
135129  1  0  0  0  0
142136  1  0  0  0  0
 98 73  2  0  0  0  0
 78 74  2  0  0  0  0
 97 79  2  0  0  0  0
 95 80  2  0  0  0  0
 94 82  2  0  0  0  0
 91 84  1  0  0  0  0
  1163  1  0  0  0  0
  6164  1  0  0  0  0
  8165  1  0  0  0  0
  9166  1  0  0  0  0
 12167  1  0  0  0  0
 14168  1  0  0  0  0
 26169  1  0  0  0  0
 27170  1  0  0  0  0
 29171  1  0  0  0  0
 29172  1  0  0  0  0
 29173  1  0  0  0  0
 30174  1  0  0  0  0
 31175  1  0  0  0  0
 33176  1  0  0  0  0
 34177  1  0  0  0  0
 36178  1  0  0  0  0
 36179  1  0  0  0  0
 36180  1  0  0  0  0
 37181  1  0  0  0  0
 38182  1  0  0  0  0
 45183  1  0  0  0  0
 46184  1  0  0  0  0
 48185  1  0  0  0  0
 48186  1  0  0  0  0
 48187  1  0  0  0  0
 49188  1  0  0  0  0
 50189  1  0  0  0  0
 52190  1  0  0  0  0
 53191  1  0  0  0  0
 55192  1  0  0  0  0
 55193  1  0  0  0  0
 55194  1  0  0  0  0
 56195  1  0  0  0  0
 57196  1  0  0  0  0
 63197  1  0  0  0  0
 64198  1  0  0  0  0
 65199  1  0  0  0  0
 66200  1  0  0  0  0
 68201  1  0  0  0  0
 68202  1  0  0  0  0
 69203  1  0  0  0  0
 69204  1  0  0  0  0
 69205  1  0  0  0  0
 86206  1  0  0  0  0
 86207  1  0  0  0  0
 87208  1  0  0  0  0
 87209  1  0  0  0  0
 87210  1  0  0  0  0
 88211  1  0  0  0  0
 89212  1  0  0  0  0
 90213  1  0  0  0  0
 91214  1  0  0  0  0
103215  1  0  0  0  0
103216  1  0  0  0  0
104217  1  0  0  0  0
104218  1  0  0  0  0
104219  1  0  0  0  0
105220  1  0  0  0  0
105221  1  0  0  0  0
106222  1  0  0  0  0
106223  1  0  0  0  0
106224  1  0  0  0  0
111225  1  0  0  0  0
112226  1  0  0  0  0
114227  1  0  0  0  0
114228  1  0  0  0  0
114229  1  0  0  0  0
115230  1  0  0  0  0
116231  1  0  0  0  0
118232  1  0  0  0  0
119233  1  0  0  0  0
121234  1  0  0  0  0
121235  1  0  0  0  0
121236  1  0  0  0  0
122237  1  0  0  0  0
123238  1  0  0  0  0
130239  1  0  0  0  0
131240  1  0  0  0  0
133241  1  0  0  0  0
133242  1  0  0  0  0
133243  1  0  0  0  0
134244  1  0  0  0  0
135245  1  0  0  0  0
137246  1  0  0  0  0
138247  1  0  0  0  0
140248  1  0  0  0  0
140249  1  0  0  0  0
140250  1  0  0  0  0
141251  1  0  0  0  0
142252  1  0  0  0  0
145253  1  0  0  0  0
151254  1  0  0  0  0
152255  1  0  0  0  0
M  END
