
  xtb     02062207503D
 energy: -443.605248836549 gnorm: 0.000472273329 xtb: 6.4.1 (unknown)
264290  0     0  0            999 V2000
   -1.7392   -2.3002   -5.9085 C   0  0  0  0  0  0  0  0  0  0  0  0
   -1.2000   -3.5771   -5.9044 C   0  0  0  0  0  0  0  0  0  0  0  0
   -1.9540   -4.7774   -5.5191 C   0  0  0  0  0  0  0  0  0  0  0  0
   -3.0965   -4.8332   -5.1018 O   0  0  0  0  0  0  0  0  0  0  0  0
   -1.0696   -5.9197   -5.8347 C   0  0  0  0  0  0  0  0  0  0  0  0
   -1.3113   -7.2539   -5.7047 C   0  0  0  0  0  0  0  0  0  0  0  0
   -0.3019   -8.1759   -6.0695 C   0  0  0  0  0  0  0  0  0  0  0  0
   -0.4960   -9.5661   -5.9509 C   0  0  0  0  0  0  0  0  0  0  0  0
    0.4836  -10.4494   -6.3137 C   0  0  0  0  0  0  0  0  0  0  0  0
    1.6949   -9.9499   -6.8070 C   0  0  0  0  0  0  0  0  0  0  0  0
    2.6495  -10.8334   -7.1591 F   0  0  0  0  0  0  0  0  0  0  0  0
    1.9354   -8.6104   -6.9406 C   0  0  0  0  0  0  0  0  0  0  0  0
    0.9376   -7.6882   -6.5728 C   0  0  0  0  0  0  0  0  0  0  0  0
    1.1563   -6.2946   -6.6998 C   0  0  0  0  0  0  0  0  0  0  0  0
    0.1693   -5.4253   -6.3294 C   0  0  0  0  0  0  0  0  0  0  0  0
    0.1057   -3.9660   -6.3381 C   0  0  0  0  0  0  0  0  0  0  0  0
    1.1770   -3.1185   -6.5205 C   0  0  0  0  0  0  0  0  0  0  0  0
    2.4937   -3.5665   -6.6951 C   0  0  0  0  0  0  0  0  0  0  0  0
    3.5948   -3.8883   -6.7832 N   0  0  0  0  0  0  0  0  0  0  0  0
    1.0848   -1.7180   -6.4174 C   0  0  0  0  0  0  0  0  0  0  0  0
    1.0627   -0.5730   -6.3227 N   0  0  0  0  0  0  0  0  0  0  0  0
   -2.7389   -1.8379   -5.0599 C   0  0  0  0  0  0  0  0  0  0  0  0
   -3.1590   -2.3005   -3.7913 C   0  0  0  0  0  0  0  0  0  0  0  0
   -2.5653   -3.2778   -3.0425 N   0  0  0  0  0  0  0  0  0  0  0  0
   -1.1831   -3.5135   -3.0851 C   0  0  0  0  0  0  0  0  0  0  0  0
   -0.2794   -2.4601   -3.2254 C   0  0  0  0  0  0  0  0  0  0  0  0
    1.0772   -2.7058   -3.2455 C   0  0  0  0  0  0  0  0  0  0  0  0
    1.5770   -4.0010   -3.1329 C   0  0  0  0  0  0  0  0  0  0  0  0
    3.0522   -4.2482   -3.1762 C   0  0  0  0  0  0  0  0  0  0  0  0
    0.6711   -5.0436   -2.9806 C   0  0  0  0  0  0  0  0  0  0  0  0
   -0.6915   -4.8099   -2.9486 C   0  0  0  0  0  0  0  0  0  0  0  0
   -3.3362   -3.9229   -2.0565 C   0  0  0  0  0  0  0  0  0  0  0  0
   -2.8416   -4.0850   -0.7654 C   0  0  0  0  0  0  0  0  0  0  0  0
   -3.6305   -4.6721    0.2029 C   0  0  0  0  0  0  0  0  0  0  0  0
   -4.9189   -5.1092   -0.0868 C   0  0  0  0  0  0  0  0  0  0  0  0
   -5.7618   -5.7390    0.9787 C   0  0  0  0  0  0  0  0  0  0  0  0
   -5.3913   -4.9648   -1.3855 C   0  0  0  0  0  0  0  0  0  0  0  0
   -4.6137   -4.3799   -2.3654 C   0  0  0  0  0  0  0  0  0  0  0  0
   -4.1647   -1.4623   -3.2664 C   0  0  0  0  0  0  0  0  0  0  0  0
   -4.9690   -1.4223   -1.7336 S   0  0  0  0  0  0  0  0  0  0  0  0
   -5.5413    0.2090   -2.0580 C   0  0  0  0  0  0  0  0  0  0  0  0
   -5.2303    0.6312   -3.3469 C   0  0  0  0  0  0  0  0  0  0  0  0
   -5.6000    1.8565   -3.8647 N   0  0  0  0  0  0  0  0  0  0  0  0
   -4.7130    2.5116   -4.7396 C   0  0  0  0  0  0  0  0  0  0  0  0
   -3.3534    2.5610   -4.4428 C   0  0  0  0  0  0  0  0  0  0  0  0
   -2.4746    3.1666   -5.3172 C   0  0  0  0  0  0  0  0  0  0  0  0
   -2.9255    3.7474   -6.4975 C   0  0  0  0  0  0  0  0  0  0  0  0
   -1.9545    4.3914   -7.4380 C   0  0  0  0  0  0  0  0  0  0  0  0
   -4.2865    3.7129   -6.7732 C   0  0  0  0  0  0  0  0  0  0  0  0
   -5.1753    3.1000   -5.9112 C   0  0  0  0  0  0  0  0  0  0  0  0
   -6.8299    2.4388   -3.5330 C   0  0  0  0  0  0  0  0  0  0  0  0
   -6.9493    3.8243   -3.4557 C   0  0  0  0  0  0  0  0  0  0  0  0
   -8.1553    4.4013   -3.1092 C   0  0  0  0  0  0  0  0  0  0  0  0
   -9.2692    3.6232   -2.8231 C   0  0  0  0  0  0  0  0  0  0  0  0
  -10.5707    4.2448   -2.4180 C   0  0  0  0  0  0  0  0  0  0  0  0
   -9.1429    2.2409   -2.9066 C   0  0  0  0  0  0  0  0  0  0  0  0
   -7.9465    1.6518   -3.2593 C   0  0  0  0  0  0  0  0  0  0  0  0
   -4.4438   -0.3309   -4.0239 C   0  0  0  0  0  0  0  0  0  0  0  0
   -3.5547   -0.3274   -5.5052 S   0  0  0  0  0  0  0  0  0  0  0  0
   -5.8695    1.0537   -0.9551 C   0  0  0  0  0  0  0  0  0  0  0  0
   -6.3874    0.7290    0.2809 C   0  0  0  0  0  0  0  0  0  0  0  0
   -7.1480   -0.5232    0.5812 C   0  0  0  0  0  0  0  0  0  0  0  0
   -6.3540   -1.4854    1.4664 C   0  0  0  0  0  0  0  0  0  0  0  0
   -6.0600    1.7057    1.2453 C   0  0  0  0  0  0  0  0  0  0  0  0
   -6.1203    1.7179    3.0005 S   0  0  0  0  0  0  0  0  0  0  0  0
   -4.9627    3.0139    3.0236 C   0  0  0  0  0  0  0  0  0  0  0  0
   -3.9855    3.5420    3.8967 C   0  0  0  0  0  0  0  0  0  0  0  0
   -3.7440    3.3570    5.2818 C   0  0  0  0  0  0  0  0  0  0  0  0
   -4.6845    2.8816    6.0920 N   0  0  0  0  0  0  0  0  0  0  0  0
   -4.3941    2.6770    7.3669 C   0  0  0  0  0  0  0  0  0  0  0  0
   -5.5199    2.3508    8.2089 C   0  0  0  0  0  0  0  0  0  0  0  0
   -6.8786    1.5496    7.4837 S   0  0  0  0  0  0  0  0  0  0  0  0
   -7.7751    1.6055    8.9607 C   0  0  0  0  0  0  0  0  0  0  0  0
   -9.1543    1.0539    9.0750 C   0  0  0  0  0  0  0  0  0  0  0  0
  -10.1421    1.8396    8.2113 C   0  0  0  0  0  0  0  0  0  0  0  0
   -7.0406    2.2417    9.9204 C   0  0  0  0  0  0  0  0  0  0  0  0
   -5.7650    2.6713    9.5161 C   0  0  0  0  0  0  0  0  0  0  0  0
   -7.4993    2.4389   11.1715 F   0  0  0  0  0  0  0  0  0  0  0  0
   -3.0533    2.8125    7.8277 C   0  0  0  0  0  0  0  0  0  0  0  0
   -2.5426    2.2935    9.0765 C   0  0  0  0  0  0  0  0  0  0  0  0
   -1.3731    2.6792    9.6747 C   0  0  0  0  0  0  0  0  0  0  0  0
   -1.0860    1.9034   10.8108 C   0  0  0  0  0  0  0  0  0  0  0  0
    0.0022    2.1168   11.5734 F   0  0  0  0  0  0  0  0  0  0  0  0
   -1.9904    0.9193   11.0900 C   0  0  0  0  0  0  0  0  0  0  0  0
   -1.9601   -0.0802   12.1937 C   0  0  0  0  0  0  0  0  0  0  0  0
   -1.7059   -1.4921   11.6631 C   0  0  0  0  0  0  0  0  0  0  0  0
   -3.2572    0.9450    9.9113 S   0  0  0  0  0  0  0  0  0  0  0  0
   -2.1388    3.3709    7.0479 N   0  0  0  0  0  0  0  0  0  0  0  0
   -2.4622    3.7054    5.8015 C   0  0  0  0  0  0  0  0  0  0  0  0
   -1.4700    4.1749    4.9012 C   0  0  0  0  0  0  0  0  0  0  0  0
   -0.0639    4.1091    4.9995 C   0  0  0  0  0  0  0  0  0  0  0  0
    1.1532    3.5808    6.1211 S   0  0  0  0  0  0  0  0  0  0  0  0
    2.2971    3.4421    4.8005 C   0  0  0  0  0  0  0  0  0  0  0  0
    3.5285    2.7631    4.6772 C   0  0  0  0  0  0  0  0  0  0  0  0
    4.3610    2.3527    5.8471 C   0  0  0  0  0  0  0  0  0  0  0  0
    5.1864    3.5465    6.3346 C   0  0  0  0  0  0  0  0  0  0  0  0
    3.8897    2.6307    3.3549 C   0  0  0  0  0  0  0  0  0  0  0  0
    2.8018    3.4972    2.2665 S   0  0  0  0  0  0  0  0  0  0  0  0
    1.7673    3.8823    3.5893 C   0  0  0  0  0  0  0  0  0  0  0  0
    0.4351    4.2923    3.7086 C   0  0  0  0  0  0  0  0  0  0  0  0
   -0.5806    4.5755    2.8370 N   0  0  0  0  0  0  0  0  0  0  0  0
   -0.3283    4.5494    1.4147 C   0  0  0  0  0  0  0  0  0  0  0  0
   -0.6046    3.1755    0.8093 C   0  0  0  0  0  0  0  0  0  0  0  0
   -1.7639    4.4538    3.5384 C   0  0  0  0  0  0  0  0  0  0  0  0
   -3.0845    4.2712    3.0765 C   0  0  0  0  0  0  0  0  0  0  0  0
   -3.5786    4.3260    1.7856 N   0  0  0  0  0  0  0  0  0  0  0  0
   -4.6698    3.4935    1.7449 C   0  0  0  0  0  0  0  0  0  0  0  0
   -5.3047    2.7621    0.7378 C   0  0  0  0  0  0  0  0  0  0  0  0
   -5.0851    2.6420   -0.9668 S   0  0  0  0  0  0  0  0  0  0  0  0
   -3.3930    5.3790    0.8109 C   0  0  0  0  0  0  0  0  0  0  0  0
   -4.7086    6.0943    0.5096 C   0  0  0  0  0  0  0  0  0  0  0  0
    4.7824    1.7214    2.7031 C   0  0  0  0  0  0  0  0  0  0  0  0
    4.9391    0.3630    2.9472 C   0  0  0  0  0  0  0  0  0  0  0  0
    4.3912   -0.3448    4.0093 N   0  0  0  0  0  0  0  0  0  0  0  0
    5.1553   -1.3857    4.5591 C   0  0  0  0  0  0  0  0  0  0  0  0
    4.5734   -2.5937    4.9321 C   0  0  0  0  0  0  0  0  0  0  0  0
    5.3534   -3.6048    5.4571 C   0  0  0  0  0  0  0  0  0  0  0  0
    6.7250   -3.4501    5.6148 C   0  0  0  0  0  0  0  0  0  0  0  0
    7.5738   -4.5602    6.1531 C   0  0  0  0  0  0  0  0  0  0  0  0
    7.2987   -2.2420    5.2366 C   0  0  0  0  0  0  0  0  0  0  0  0
    6.5294   -1.2192    4.7209 C   0  0  0  0  0  0  0  0  0  0  0  0
    3.0476   -0.1618    4.3632 C   0  0  0  0  0  0  0  0  0  0  0  0
    2.6434   -0.3263    5.6873 C   0  0  0  0  0  0  0  0  0  0  0  0
    1.3319   -0.1024    6.0474 C   0  0  0  0  0  0  0  0  0  0  0  0
    0.3841    0.2939    5.1094 C   0  0  0  0  0  0  0  0  0  0  0  0
   -1.0276    0.5529    5.5326 C   0  0  0  0  0  0  0  0  0  0  0  0
    0.7885    0.4362    3.7902 C   0  0  0  0  0  0  0  0  0  0  0  0
    2.0980    0.2045    3.4135 C   0  0  0  0  0  0  0  0  0  0  0  0
    5.6359   -0.2639    1.8875 C   0  0  0  0  0  0  0  0  0  0  0  0
    6.0948   -1.8973    1.5878 S   0  0  0  0  0  0  0  0  0  0  0  0
    6.5563   -1.4824   -0.0747 C   0  0  0  0  0  0  0  0  0  0  0  0
    6.4811   -0.0884   -0.3098 C   0  0  0  0  0  0  0  0  0  0  0  0
    6.9222    0.5812   -1.4094 N   0  0  0  0  0  0  0  0  0  0  0  0
    6.3721    1.8519   -1.7092 C   0  0  0  0  0  0  0  0  0  0  0  0
    4.9935    2.0216   -1.7859 C   0  0  0  0  0  0  0  0  0  0  0  0
    4.4721    3.2652   -2.0786 C   0  0  0  0  0  0  0  0  0  0  0  0
    5.3040    4.3573   -2.3021 C   0  0  0  0  0  0  0  0  0  0  0  0
    4.7186    5.7045   -2.5937 C   0  0  0  0  0  0  0  0  0  0  0  0
    6.6788    4.1693   -2.2404 C   0  0  0  0  0  0  0  0  0  0  0  0
    7.2152    2.9295   -1.9484 C   0  0  0  0  0  0  0  0  0  0  0  0
    7.8934    0.0808   -2.2867 C   0  0  0  0  0  0  0  0  0  0  0  0
    7.7595    0.2952   -3.6570 C   0  0  0  0  0  0  0  0  0  0  0  0
    8.6924   -0.2219   -4.5366 C   0  0  0  0  0  0  0  0  0  0  0  0
    9.7790   -0.9556   -4.0808 C   0  0  0  0  0  0  0  0  0  0  0  0
   10.7642   -1.5615   -5.0293 C   0  0  0  0  0  0  0  0  0  0  0  0
    9.9302   -1.1238   -2.7055 C   0  0  0  0  0  0  0  0  0  0  0  0
    9.0067   -0.6157   -1.8173 C   0  0  0  0  0  0  0  0  0  0  0  0
    5.9329    0.5675    0.8166 C   0  0  0  0  0  0  0  0  0  0  0  0
    5.4584    2.2007    1.1522 S   0  0  0  0  0  0  0  0  0  0  0  0
    6.8986   -2.5415   -0.9127 C   0  0  0  0  0  0  0  0  0  0  0  0
    6.8100   -2.5348   -2.2942 C   0  0  0  0  0  0  0  0  0  0  0  0
    5.8517   -1.7030   -3.0302 C   0  0  0  0  0  0  0  0  0  0  0  0
    5.0215   -0.9473   -2.5596 O   0  0  0  0  0  0  0  0  0  0  0  0
    6.0083   -2.0834   -4.4533 C   0  0  0  0  0  0  0  0  0  0  0  0
    6.9755   -3.0985   -4.5592 C   0  0  0  0  0  0  0  0  0  0  0  0
    7.3105   -3.6093   -5.8003 C   0  0  0  0  0  0  0  0  0  0  0  0
    6.7035   -3.0706   -6.9265 C   0  0  0  0  0  0  0  0  0  0  0  0
    5.7707   -2.0536   -6.8183 C   0  0  0  0  0  0  0  0  0  0  0  0
    5.0343   -1.3085   -8.3883 Br  0  0  0  0  0  0  0  0  0  0  0  0
    5.3890   -1.5526   -5.5693 C   0  0  0  0  0  0  0  0  0  0  0  0
    4.2198   -0.3059   -5.4319 Cl  0  0  0  0  0  0  0  0  0  0  0  0
    7.4937   -3.3845   -3.2215 C   0  0  0  0  0  0  0  0  0  0  0  0
    8.5721   -4.1882   -2.9343 C   0  0  0  0  0  0  0  0  0  0  0  0
    9.1356   -4.3127   -1.6500 C   0  0  0  0  0  0  0  0  0  0  0  0
    9.6634   -4.4346   -0.6367 N   0  0  0  0  0  0  0  0  0  0  0  0
    9.2967   -4.9145   -3.8955 C   0  0  0  0  0  0  0  0  0  0  0  0
    9.9390   -5.5125   -4.6375 N   0  0  0  0  0  0  0  0  0  0  0  0
   -1.3735   -1.5888   -6.6391 H   0  0  0  0  0  0  0  0  0  0  0  0
   -2.2588   -7.6081   -5.3262 H   0  0  0  0  0  0  0  0  0  0  0  0
   -1.4392   -9.9273   -5.5687 H   0  0  0  0  0  0  0  0  0  0  0  0
    0.3489  -11.5162   -6.2315 H   0  0  0  0  0  0  0  0  0  0  0  0
    2.8820   -8.2615   -7.3233 H   0  0  0  0  0  0  0  0  0  0  0  0
    2.0996   -5.9545   -7.0970 H   0  0  0  0  0  0  0  0  0  0  0  0
   -0.6433   -1.4467   -3.3080 H   0  0  0  0  0  0  0  0  0  0  0  0
    1.7656   -1.8789   -3.3417 H   0  0  0  0  0  0  0  0  0  0  0  0
    3.5904   -3.4223   -2.7157 H   0  0  0  0  0  0  0  0  0  0  0  0
    3.3917   -4.3296   -4.2101 H   0  0  0  0  0  0  0  0  0  0  0  0
    3.3091   -5.1720   -2.6634 H   0  0  0  0  0  0  0  0  0  0  0  0
    1.0350   -6.0566   -2.8866 H   0  0  0  0  0  0  0  0  0  0  0  0
   -1.3840   -5.6281   -2.8185 H   0  0  0  0  0  0  0  0  0  0  0  0
   -1.8484   -3.7348   -0.5245 H   0  0  0  0  0  0  0  0  0  0  0  0
   -3.2449   -4.7818    1.2062 H   0  0  0  0  0  0  0  0  0  0  0  0
   -5.6539   -5.2032    1.9195 H   0  0  0  0  0  0  0  0  0  0  0  0
   -5.4479   -6.7700    1.1441 H   0  0  0  0  0  0  0  0  0  0  0  0
   -6.8104   -5.7450    0.6925 H   0  0  0  0  0  0  0  0  0  0  0  0
   -6.3819   -5.3160   -1.6350 H   0  0  0  0  0  0  0  0  0  0  0  0
   -4.9710   -4.2892   -3.3793 H   0  0  0  0  0  0  0  0  0  0  0  0
   -2.9953    2.1222   -3.5223 H   0  0  0  0  0  0  0  0  0  0  0  0
   -1.4202    3.1876   -5.0842 H   0  0  0  0  0  0  0  0  0  0  0  0
   -1.4690    5.2420   -6.9599 H   0  0  0  0  0  0  0  0  0  0  0  0
   -2.4545    4.7392   -8.3380 H   0  0  0  0  0  0  0  0  0  0  0  0
   -1.1777    3.6828   -7.7208 H   0  0  0  0  0  0  0  0  0  0  0  0
   -4.6581    4.1598   -7.6839 H   0  0  0  0  0  0  0  0  0  0  0  0
   -6.2296    3.0672   -6.1433 H   0  0  0  0  0  0  0  0  0  0  0  0
   -6.0888    4.4434   -3.6613 H   0  0  0  0  0  0  0  0  0  0  0  0
   -8.2272    5.4781   -3.0521 H   0  0  0  0  0  0  0  0  0  0  0  0
  -10.7209    4.1342   -1.3436 H   0  0  0  0  0  0  0  0  0  0  0  0
  -10.5868    5.3051   -2.6570 H   0  0  0  0  0  0  0  0  0  0  0  0
  -11.4034    3.7576   -2.9218 H   0  0  0  0  0  0  0  0  0  0  0  0
   -9.9990    1.6155   -2.6982 H   0  0  0  0  0  0  0  0  0  0  0  0
   -7.8755    0.5764   -3.3302 H   0  0  0  0  0  0  0  0  0  0  0  0
   -7.4113   -1.0197   -0.3540 H   0  0  0  0  0  0  0  0  0  0  0  0
   -8.0713   -0.2476    1.0972 H   0  0  0  0  0  0  0  0  0  0  0  0
   -6.1091   -1.0153    2.4152 H   0  0  0  0  0  0  0  0  0  0  0  0
   -5.4320   -1.7864    0.9747 H   0  0  0  0  0  0  0  0  0  0  0  0
   -6.9452   -2.3761    1.6620 H   0  0  0  0  0  0  0  0  0  0  0  0
   -9.4587    1.0987   10.1227 H   0  0  0  0  0  0  0  0  0  0  0  0
   -9.1552    0.0075    8.7596 H   0  0  0  0  0  0  0  0  0  0  0  0
  -11.1404    1.4208    8.3080 H   0  0  0  0  0  0  0  0  0  0  0  0
   -9.8426    1.7967    7.1667 H   0  0  0  0  0  0  0  0  0  0  0  0
  -10.1709    2.8815    8.5215 H   0  0  0  0  0  0  0  0  0  0  0  0
   -5.0899    3.2074   10.1568 H   0  0  0  0  0  0  0  0  0  0  0  0
   -0.7573    3.4800    9.3118 H   0  0  0  0  0  0  0  0  0  0  0  0
   -2.9140   -0.0632   12.7270 H   0  0  0  0  0  0  0  0  0  0  0  0
   -1.1690    0.2021   12.8915 H   0  0  0  0  0  0  0  0  0  0  0  0
   -2.4906   -1.7791   10.9665 H   0  0  0  0  0  0  0  0  0  0  0  0
   -1.6909   -2.2032   12.4848 H   0  0  0  0  0  0  0  0  0  0  0  0
   -0.7497   -1.5369   11.1470 H   0  0  0  0  0  0  0  0  0  0  0  0
    5.0307    1.5387    5.5724 H   0  0  0  0  0  0  0  0  0  0  0  0
    3.7028    2.0177    6.6503 H   0  0  0  0  0  0  0  0  0  0  0  0
    5.8494    3.8972    5.5465 H   0  0  0  0  0  0  0  0  0  0  0  0
    5.7877    3.2583    7.1929 H   0  0  0  0  0  0  0  0  0  0  0  0
    4.5325    4.3645    6.6277 H   0  0  0  0  0  0  0  0  0  0  0  0
   -0.9087    5.3184    0.9093 H   0  0  0  0  0  0  0  0  0  0  0  0
    0.7292    4.7934    1.2825 H   0  0  0  0  0  0  0  0  0  0  0  0
    0.0474    2.4338    1.2642 H   0  0  0  0  0  0  0  0  0  0  0  0
   -1.6378    2.8780    0.9698 H   0  0  0  0  0  0  0  0  0  0  0  0
   -0.4076    3.1986   -0.2587 H   0  0  0  0  0  0  0  0  0  0  0  0
   -2.6919    6.1035    1.2281 H   0  0  0  0  0  0  0  0  0  0  0  0
   -2.9916    4.9572   -0.1176 H   0  0  0  0  0  0  0  0  0  0  0  0
   -5.1571    6.4667    1.4280 H   0  0  0  0  0  0  0  0  0  0  0  0
   -4.5195    6.9346   -0.1531 H   0  0  0  0  0  0  0  0  0  0  0  0
   -5.4113    5.4243    0.0219 H   0  0  0  0  0  0  0  0  0  0  0  0
    3.5115   -2.7378    4.7996 H   0  0  0  0  0  0  0  0  0  0  0  0
    4.8866   -4.5377    5.7388 H   0  0  0  0  0  0  0  0  0  0  0  0
    8.0779   -5.0730    5.3335 H   0  0  0  0  0  0  0  0  0  0  0  0
    8.3381   -4.1724    6.8235 H   0  0  0  0  0  0  0  0  0  0  0  0
    6.9699   -5.2880    6.6892 H   0  0  0  0  0  0  0  0  0  0  0  0
    8.3631   -2.0988    5.3522 H   0  0  0  0  0  0  0  0  0  0  0  0
    6.9899   -0.2823    4.4402 H   0  0  0  0  0  0  0  0  0  0  0  0
    3.3690   -0.6224    6.4302 H   0  0  0  0  0  0  0  0  0  0  0  0
    1.0356   -0.2202    7.0795 H   0  0  0  0  0  0  0  0  0  0  0  0
   -1.0463    1.2890    6.3351 H   0  0  0  0  0  0  0  0  0  0  0  0
   -1.6257    0.9264    4.7038 H   0  0  0  0  0  0  0  0  0  0  0  0
   -1.4882   -0.3608    5.9079 H   0  0  0  0  0  0  0  0  0  0  0  0
    0.0643    0.7257    3.0412 H   0  0  0  0  0  0  0  0  0  0  0  0
    2.3865    0.3052    2.3771 H   0  0  0  0  0  0  0  0  0  0  0  0
    4.3511    1.1672   -1.6423 H   0  0  0  0  0  0  0  0  0  0  0  0
    3.4012    3.3908   -2.1410 H   0  0  0  0  0  0  0  0  0  0  0  0
    4.2819    6.1234   -1.6869 H   0  0  0  0  0  0  0  0  0  0  0  0
    5.4789    6.3909   -2.9569 H   0  0  0  0  0  0  0  0  0  0  0  0
    3.9291    5.6266   -3.3388 H   0  0  0  0  0  0  0  0  0  0  0  0
    7.3415    5.0034   -2.4191 H   0  0  0  0  0  0  0  0  0  0  0  0
    8.2855    2.7912   -1.9012 H   0  0  0  0  0  0  0  0  0  0  0  0
    6.9144    0.8558   -4.0273 H   0  0  0  0  0  0  0  0  0  0  0  0
    8.5619   -0.0621   -5.5970 H   0  0  0  0  0  0  0  0  0  0  0  0
   10.6952   -2.6492   -5.0012 H   0  0  0  0  0  0  0  0  0  0  0  0
   10.5774   -1.2323   -6.0480 H   0  0  0  0  0  0  0  0  0  0  0  0
   11.7809   -1.2900   -4.7509 H   0  0  0  0  0  0  0  0  0  0  0  0
   10.7829   -1.6687   -2.3273 H   0  0  0  0  0  0  0  0  0  0  0  0
    9.1436   -0.7609   -0.7561 H   0  0  0  0  0  0  0  0  0  0  0  0
    7.2091   -3.4541   -0.4180 H   0  0  0  0  0  0  0  0  0  0  0  0
    8.0289   -4.4043   -5.9122 H   0  0  0  0  0  0  0  0  0  0  0  0
    6.9578   -3.4456   -7.9056 H   0  0  0  0  0  0  0  0  0  0  0  0
  1  2  2  0  0  0  0
  2  3  1  0  0  0  0
  3  4  2  0  0  0  0
  3  5  1  0  0  0  0
  5  6  2  0  0  0  0
  6  7  1  0  0  0  0
  7  8  2  0  0  0  0
  8  9  1  0  0  0  0
  9 10  2  0  0  0  0
 10 11  1  0  0  0  0
 10 12  1  0  0  0  0
 12 13  2  0  0  0  0
 13 14  1  0  0  0  0
 14 15  2  0  0  0  0
 15 16  1  0  0  0  0
 16 17  2  0  0  0  0
 17 18  1  0  0  0  0
 18 19  3  0  0  0  0
 17 20  1  0  0  0  0
 20 21  3  0  0  0  0
  1 22  1  0  0  0  0
 22 23  2  0  0  0  0
 23 24  1  0  0  0  0
 24 25  1  0  0  0  0
 25 26  2  0  0  0  0
 26 27  1  0  0  0  0
 27 28  2  0  0  0  0
 28 29  1  0  0  0  0
 28 30  1  0  0  0  0
 30 31  2  0  0  0  0
 24 32  1  0  0  0  0
 32 33  2  0  0  0  0
 33 34  1  0  0  0  0
 34 35  2  0  0  0  0
 35 36  1  0  0  0  0
 35 37  1  0  0  0  0
 37 38  2  0  0  0  0
 23 39  1  0  0  0  0
 39 40  1  0  0  0  0
 40 41  1  0  0  0  0
 41 42  2  0  0  0  0
 42 43  1  0  0  0  0
 43 44  1  0  0  0  0
 44 45  2  0  0  0  0
 45 46  1  0  0  0  0
 46 47  2  0  0  0  0
 47 48  1  0  0  0  0
 47 49  1  0  0  0  0
 49 50  2  0  0  0  0
 43 51  1  0  0  0  0
 51 52  2  0  0  0  0
 52 53  1  0  0  0  0
 53 54  2  0  0  0  0
 54 55  1  0  0  0  0
 54 56  1  0  0  0  0
 56 57  2  0  0  0  0
 42 58  1  0  0  0  0
 58 59  1  0  0  0  0
 41 60  1  0  0  0  0
 60 61  2  0  0  0  0
 61 62  1  0  0  0  0
 62 63  1  0  0  0  0
 61 64  1  0  0  0  0
 64 65  1  0  0  0  0
 65 66  1  0  0  0  0
 66 67  1  0  0  0  0
 67 68  2  0  0  0  0
 68 69  1  0  0  0  0
 69 70  2  0  0  0  0
 70 71  1  0  0  0  0
 71 72  1  0  0  0  0
 72 73  1  0  0  0  0
 73 74  1  0  0  0  0
 74 75  1  0  0  0  0
 73 76  2  0  0  0  0
 76 77  1  0  0  0  0
 76 78  1  0  0  0  0
 70 79  1  0  0  0  0
 79 80  1  0  0  0  0
 80 81  2  0  0  0  0
 81 82  1  0  0  0  0
 82 83  1  0  0  0  0
 82 84  2  0  0  0  0
 84 85  1  0  0  0  0
 85 86  1  0  0  0  0
 84 87  1  0  0  0  0
 79 88  2  0  0  0  0
 88 89  1  0  0  0  0
 89 90  2  0  0  0  0
 90 91  1  0  0  0  0
 91 92  1  0  0  0  0
 92 93  1  0  0  0  0
 93 94  1  0  0  0  0
 94 95  1  0  0  0  0
 95 96  1  0  0  0  0
 94 97  2  0  0  0  0
 97 98  1  0  0  0  0
 98 99  1  0  0  0  0
 99100  1  0  0  0  0
100101  1  0  0  0  0
101102  1  0  0  0  0
102103  1  0  0  0  0
101104  1  0  0  0  0
104105  2  0  0  0  0
105106  1  0  0  0  0
106107  1  0  0  0  0
107108  1  0  0  0  0
108109  1  0  0  0  0
106110  1  0  0  0  0
110111  1  0  0  0  0
 97112  1  0  0  0  0
112113  2  0  0  0  0
113114  1  0  0  0  0
114115  1  0  0  0  0
115116  2  0  0  0  0
116117  1  0  0  0  0
117118  2  0  0  0  0
118119  1  0  0  0  0
118120  1  0  0  0  0
120121  2  0  0  0  0
114122  1  0  0  0  0
122123  2  0  0  0  0
123124  1  0  0  0  0
124125  2  0  0  0  0
125126  1  0  0  0  0
125127  1  0  0  0  0
127128  2  0  0  0  0
113129  1  0  0  0  0
129130  1  0  0  0  0
130131  1  0  0  0  0
131132  2  0  0  0  0
132133  1  0  0  0  0
133134  1  0  0  0  0
134135  2  0  0  0  0
135136  1  0  0  0  0
136137  2  0  0  0  0
137138  1  0  0  0  0
137139  1  0  0  0  0
139140  2  0  0  0  0
133141  1  0  0  0  0
141142  2  0  0  0  0
142143  1  0  0  0  0
143144  2  0  0  0  0
144145  1  0  0  0  0
144146  1  0  0  0  0
146147  2  0  0  0  0
132148  1  0  0  0  0
148149  1  0  0  0  0
131150  1  0  0  0  0
150151  2  0  0  0  0
151152  1  0  0  0  0
152153  2  0  0  0  0
152154  1  0  0  0  0
154155  2  0  0  0  0
155156  1  0  0  0  0
156157  2  0  0  0  0
157158  1  0  0  0  0
158159  1  0  0  0  0
158160  2  0  0  0  0
160161  1  0  0  0  0
155162  1  0  0  0  0
162163  2  0  0  0  0
163164  1  0  0  0  0
164165  3  0  0  0  0
163166  1  0  0  0  0
166167  3  0  0  0  0
 16  2  1  0  0  0  0
 59 22  1  0  0  0  0
109 60  1  0  0  0  0
149112  1  0  0  0  0
162151  1  0  0  0  0
 15  5  1  0  0  0  0
 31 25  1  0  0  0  0
 38 32  1  0  0  0  0
 58 39  2  0  0  0  0
108 64  2  0  0  0  0
121115  1  0  0  0  0
128122  1  0  0  0  0
148129  2  0  0  0  0
160154  1  0  0  0  0
 13  7  1  0  0  0  0
 50 44  1  0  0  0  0
 57 51  1  0  0  0  0
107 66  2  0  0  0  0
140134  1  0  0  0  0
147141  1  0  0  0  0
105 67  1  0  0  0  0
 89 68  1  0  0  0  0
104 90  1  0  0  0  0
 77 71  2  0  0  0  0
 87 80  1  0  0  0  0
100 91  2  0  0  0  0
 99 93  2  0  0  0  0
  1168  1  0  0  0  0
  6169  1  0  0  0  0
  8170  1  0  0  0  0
  9171  1  0  0  0  0
 12172  1  0  0  0  0
 14173  1  0  0  0  0
 26174  1  0  0  0  0
 27175  1  0  0  0  0
 29176  1  0  0  0  0
 29177  1  0  0  0  0
 29178  1  0  0  0  0
 30179  1  0  0  0  0
 31180  1  0  0  0  0
 33181  1  0  0  0  0
 34182  1  0  0  0  0
 36183  1  0  0  0  0
 36184  1  0  0  0  0
 36185  1  0  0  0  0
 37186  1  0  0  0  0
 38187  1  0  0  0  0
 45188  1  0  0  0  0
 46189  1  0  0  0  0
 48190  1  0  0  0  0
 48191  1  0  0  0  0
 48192  1  0  0  0  0
 49193  1  0  0  0  0
 50194  1  0  0  0  0
 52195  1  0  0  0  0
 53196  1  0  0  0  0
 55197  1  0  0  0  0
 55198  1  0  0  0  0
 55199  1  0  0  0  0
 56200  1  0  0  0  0
 57201  1  0  0  0  0
 62202  1  0  0  0  0
 62203  1  0  0  0  0
 63204  1  0  0  0  0
 63205  1  0  0  0  0
 63206  1  0  0  0  0
 74207  1  0  0  0  0
 74208  1  0  0  0  0
 75209  1  0  0  0  0
 75210  1  0  0  0  0
 75211  1  0  0  0  0
 77212  1  0  0  0  0
 81213  1  0  0  0  0
 85214  1  0  0  0  0
 85215  1  0  0  0  0
 86216  1  0  0  0  0
 86217  1  0  0  0  0
 86218  1  0  0  0  0
 95219  1  0  0  0  0
 95220  1  0  0  0  0
 96221  1  0  0  0  0
 96222  1  0  0  0  0
 96223  1  0  0  0  0
102224  1  0  0  0  0
102225  1  0  0  0  0
103226  1  0  0  0  0
103227  1  0  0  0  0
103228  1  0  0  0  0
110229  1  0  0  0  0
110230  1  0  0  0  0
111231  1  0  0  0  0
111232  1  0  0  0  0
111233  1  0  0  0  0
116234  1  0  0  0  0
117235  1  0  0  0  0
119236  1  0  0  0  0
119237  1  0  0  0  0
119238  1  0  0  0  0
120239  1  0  0  0  0
121240  1  0  0  0  0
123241  1  0  0  0  0
124242  1  0  0  0  0
126243  1  0  0  0  0
126244  1  0  0  0  0
126245  1  0  0  0  0
127246  1  0  0  0  0
128247  1  0  0  0  0
135248  1  0  0  0  0
136249  1  0  0  0  0
138250  1  0  0  0  0
138251  1  0  0  0  0
138252  1  0  0  0  0
139253  1  0  0  0  0
140254  1  0  0  0  0
142255  1  0  0  0  0
143256  1  0  0  0  0
145257  1  0  0  0  0
145258  1  0  0  0  0
145259  1  0  0  0  0
146260  1  0  0  0  0
147261  1  0  0  0  0
150262  1  0  0  0  0
156263  1  0  0  0  0
157264  1  0  0  0  0
M  END
