
  xtb     02072210283D
 energy: -366.226998783652 gnorm: 0.000356001816 xtb: 6.4.1 (unknown)
215239  0     0  0            999 V2000
    5.5853    4.2322   -7.5939 C   0  0  0  0  0  0  0  0  0  0  0  0
    6.1596    5.4888   -7.6412 C   0  0  0  0  0  0  0  0  0  0  0  0
    5.3877    6.7362   -7.5529 C   0  0  0  0  0  0  0  0  0  0  0  0
    4.1866    6.8549   -7.3882 O   0  0  0  0  0  0  0  0  0  0  0  0
    6.3517    7.8204   -7.8355 C   0  0  0  0  0  0  0  0  0  0  0  0
    6.1389    9.1653   -7.8818 C   0  0  0  0  0  0  0  0  0  0  0  0
    7.2273   10.0262   -8.1556 C   0  0  0  0  0  0  0  0  0  0  0  0
    7.0668   11.4251   -8.2051 C   0  0  0  0  0  0  0  0  0  0  0  0
    8.1257   12.2482   -8.4740 C   0  0  0  0  0  0  0  0  0  0  0  0
    9.3845   11.6781   -8.7003 C   0  0  0  0  0  0  0  0  0  0  0  0
   10.4171   12.5036   -8.9624 F   0  0  0  0  0  0  0  0  0  0  0  0
    9.5952   10.3277   -8.6631 C   0  0  0  0  0  0  0  0  0  0  0  0
    8.5160    9.4663   -8.3878 C   0  0  0  0  0  0  0  0  0  0  0  0
    8.7031    8.0637   -8.3400 C   0  0  0  0  0  0  0  0  0  0  0  0
    7.6370    7.2544   -8.0626 C   0  0  0  0  0  0  0  0  0  0  0  0
    7.5284    5.8045   -7.9235 C   0  0  0  0  0  0  0  0  0  0  0  0
    8.5803    4.9187   -7.8956 C   0  0  0  0  0  0  0  0  0  0  0  0
    8.4430    3.5462   -7.6142 C   0  0  0  0  0  0  0  0  0  0  0  0
    8.4056    2.4264   -7.3590 N   0  0  0  0  0  0  0  0  0  0  0  0
    9.9263    5.2899   -8.0572 C   0  0  0  0  0  0  0  0  0  0  0  0
   11.0436    5.5381   -8.1636 N   0  0  0  0  0  0  0  0  0  0  0  0
    4.3915    3.9057   -6.9531 C   0  0  0  0  0  0  0  0  0  0  0  0
    3.7083    4.5217   -5.8802 C   0  0  0  0  0  0  0  0  0  0  0  0
    4.1762    5.5194   -5.0794 N   0  0  0  0  0  0  0  0  0  0  0  0
    3.2557    6.3268   -4.3740 C   0  0  0  0  0  0  0  0  0  0  0  0
    3.4481    6.5744   -3.0198 C   0  0  0  0  0  0  0  0  0  0  0  0
    2.5463    7.3616   -2.3300 C   0  0  0  0  0  0  0  0  0  0  0  0
    1.4440    7.9157   -2.9691 C   0  0  0  0  0  0  0  0  0  0  0  0
    0.4495    8.7432   -2.2150 C   0  0  0  0  0  0  0  0  0  0  0  0
    1.2730    7.6739   -4.3282 C   0  0  0  0  0  0  0  0  0  0  0  0
    2.1661    6.8905   -5.0304 C   0  0  0  0  0  0  0  0  0  0  0  0
    5.5415    5.7844   -4.9007 C   0  0  0  0  0  0  0  0  0  0  0  0
    6.4720    4.7523   -4.7849 C   0  0  0  0  0  0  0  0  0  0  0  0
    7.8132    5.0409   -4.6501 C   0  0  0  0  0  0  0  0  0  0  0  0
    8.2706    6.3573   -4.6275 C   0  0  0  0  0  0  0  0  0  0  0  0
    9.7349    6.6476   -4.5302 C   0  0  0  0  0  0  0  0  0  0  0  0
    7.3334    7.3786   -4.6980 C   0  0  0  0  0  0  0  0  0  0  0  0
    5.9847    7.1032   -4.8286 C   0  0  0  0  0  0  0  0  0  0  0  0
    2.4752    3.8688   -5.6448 C   0  0  0  0  0  0  0  0  0  0  0  0
    1.2163    4.0820   -4.4765 S   0  0  0  0  0  0  0  0  0  0  0  0
    0.3441    2.7064   -5.1320 C   0  0  0  0  0  0  0  0  0  0  0  0
    1.0317    2.0759   -6.1610 C   0  0  0  0  0  0  0  0  0  0  0  0
    0.6176    0.9325   -6.8147 N   0  0  0  0  0  0  0  0  0  0  0  0
    0.9193    0.7247   -8.1695 C   0  0  0  0  0  0  0  0  0  0  0  0
    1.0067    1.7816   -9.0717 C   0  0  0  0  0  0  0  0  0  0  0  0
    1.3114    1.5405  -10.3975 C   0  0  0  0  0  0  0  0  0  0  0  0
    1.5244    0.2510  -10.8643 C   0  0  0  0  0  0  0  0  0  0  0  0
    1.8781   -0.0043  -12.2971 C   0  0  0  0  0  0  0  0  0  0  0  0
    1.4212   -0.8003   -9.9600 C   0  0  0  0  0  0  0  0  0  0  0  0
    1.1272   -0.5731   -8.6318 C   0  0  0  0  0  0  0  0  0  0  0  0
   -0.1917   -0.0115   -6.1486 C   0  0  0  0  0  0  0  0  0  0  0  0
    0.1915   -0.5209   -4.9135 C   0  0  0  0  0  0  0  0  0  0  0  0
   -0.6264   -1.4175   -4.2507 C   0  0  0  0  0  0  0  0  0  0  0  0
   -1.8349   -1.8271   -4.7973 C   0  0  0  0  0  0  0  0  0  0  0  0
   -2.7270   -2.7910   -4.0770 C   0  0  0  0  0  0  0  0  0  0  0  0
   -2.1946   -1.3322   -6.0470 C   0  0  0  0  0  0  0  0  0  0  0  0
   -1.3863   -0.4400   -6.7207 C   0  0  0  0  0  0  0  0  0  0  0  0
    2.2379    2.7629   -6.4489 C   0  0  0  0  0  0  0  0  0  0  0  0
    3.5478    2.4582   -7.5287 S   0  0  0  0  0  0  0  0  0  0  0  0
   -0.8408    2.2436   -4.4553 C   0  0  0  0  0  0  0  0  0  0  0  0
   -2.1394    2.0556   -4.8814 C   0  0  0  0  0  0  0  0  0  0  0  0
   -2.7443    2.5745   -6.1097 C   0  0  0  0  0  0  0  0  0  0  0  0
   -2.0081    2.8735   -7.2539 C   0  0  0  0  0  0  0  0  0  0  0  0
   -2.6315    3.3513   -8.3902 C   0  0  0  0  0  0  0  0  0  0  0  0
   -3.9990    3.5559   -8.4086 C   0  0  0  0  0  0  0  0  0  0  0  0
   -4.7531    3.2961   -7.2720 C   0  0  0  0  0  0  0  0  0  0  0  0
   -6.2275    3.5802   -7.2450 C   0  0  0  0  0  0  0  0  0  0  0  0
   -6.4848    5.0094   -6.7636 C   0  0  0  0  0  0  0  0  0  0  0  0
   -4.1181    2.8155   -6.1383 C   0  0  0  0  0  0  0  0  0  0  0  0
   -2.8803    1.3351   -3.9046 C   0  0  0  0  0  0  0  0  0  0  0  0
   -4.4655    0.5980   -3.9296 S   0  0  0  0  0  0  0  0  0  0  0  0
   -4.1506   -0.1119   -2.3853 C   0  0  0  0  0  0  0  0  0  0  0  0
   -4.7416   -1.0160   -1.4876 C   0  0  0  0  0  0  0  0  0  0  0  0
   -5.9138   -1.7942   -1.5908 C   0  0  0  0  0  0  0  0  0  0  0  0
   -6.1906   -2.7675   -0.5730 C   0  0  0  0  0  0  0  0  0  0  0  0
   -7.2825   -3.4710   -0.8290 N   0  0  0  0  0  0  0  0  0  0  0  0
   -7.9107   -2.9521   -2.2282 S   0  0  0  0  0  0  0  0  0  0  0  0
   -6.8120   -1.8098   -2.5637 N   0  0  0  0  0  0  0  0  0  0  0  0
   -5.3475   -2.8302    0.5570 C   0  0  0  0  0  0  0  0  0  0  0  0
   -5.4506   -3.5722    1.7459 C   0  0  0  0  0  0  0  0  0  0  0  0
   -6.4714   -4.7780    2.4515 S   0  0  0  0  0  0  0  0  0  0  0  0
   -5.5144   -4.6964    3.9109 C   0  0  0  0  0  0  0  0  0  0  0  0
   -5.5804   -5.3926    5.1369 C   0  0  0  0  0  0  0  0  0  0  0  0
   -6.5396   -6.4673    5.4030 C   0  0  0  0  0  0  0  0  0  0  0  0
   -7.8814   -6.3133    5.0679 C   0  0  0  0  0  0  0  0  0  0  0  0
   -8.7759   -7.3356    5.3243 C   0  0  0  0  0  0  0  0  0  0  0  0
   -8.3451   -8.5109    5.9143 C   0  0  0  0  0  0  0  0  0  0  0  0
   -7.0055   -8.6880    6.2388 C   0  0  0  0  0  0  0  0  0  0  0  0
   -6.5285   -9.9379    6.9208 C   0  0  0  0  0  0  0  0  0  0  0  0
   -6.4061   -9.7046    8.4281 C   0  0  0  0  0  0  0  0  0  0  0  0
   -6.1116   -7.6635    5.9708 C   0  0  0  0  0  0  0  0  0  0  0  0
   -4.5814   -4.9879    5.9980 C   0  0  0  0  0  0  0  0  0  0  0  0
   -3.5359   -3.7692    5.2886 S   0  0  0  0  0  0  0  0  0  0  0  0
   -4.4626   -3.7833    3.8312 C   0  0  0  0  0  0  0  0  0  0  0  0
   -4.4244   -3.1405    2.5860 C   0  0  0  0  0  0  0  0  0  0  0  0
   -3.6630   -2.1881    1.9555 N   0  0  0  0  0  0  0  0  0  0  0  0
   -4.2130   -1.9849    0.6966 C   0  0  0  0  0  0  0  0  0  0  0  0
   -3.8383   -1.1621   -0.3980 C   0  0  0  0  0  0  0  0  0  0  0  0
   -2.7100   -0.4075   -0.6657 N   0  0  0  0  0  0  0  0  0  0  0  0
   -2.9038    0.2279   -1.8634 C   0  0  0  0  0  0  0  0  0  0  0  0
   -2.1725    1.0379   -2.7441 C   0  0  0  0  0  0  0  0  0  0  0  0
   -0.5766    1.6834   -2.8035 S   0  0  0  0  0  0  0  0  0  0  0  0
   -1.3800   -0.4902   -0.1085 C   0  0  0  0  0  0  0  0  0  0  0  0
   -0.9860    0.7842    0.6362 C   0  0  0  0  0  0  0  0  0  0  0  0
   -2.9096   -1.2624    2.7741 C   0  0  0  0  0  0  0  0  0  0  0  0
   -3.7461   -0.0317    3.1181 C   0  0  0  0  0  0  0  0  0  0  0  0
   -4.3346   -5.4040    7.3612 C   0  0  0  0  0  0  0  0  0  0  0  0
   -3.0187   -5.4740    7.8450 C   0  0  0  0  0  0  0  0  0  0  0  0
   -2.8063   -5.9092    9.1309 C   0  0  0  0  0  0  0  0  0  0  0  0
   -1.5214   -6.1058    9.8564 C   0  0  0  0  0  0  0  0  0  0  0  0
   -0.4030   -5.9265    9.4403 O   0  0  0  0  0  0  0  0  0  0  0  0
   -1.9318   -6.5947   11.2019 C   0  0  0  0  0  0  0  0  0  0  0  0
   -3.3379   -6.6976   11.2511 C   0  0  0  0  0  0  0  0  0  0  0  0
   -3.8790   -6.2667    9.9718 C   0  0  0  0  0  0  0  0  0  0  0  0
   -5.1793   -6.1633    9.5109 C   0  0  0  0  0  0  0  0  0  0  0  0
   -5.3959   -5.7290    8.2134 C   0  0  0  0  0  0  0  0  0  0  0  0
   -3.9557   -7.1806   12.3914 C   0  0  0  0  0  0  0  0  0  0  0  0
   -3.1645   -7.5417   13.4683 C   0  0  0  0  0  0  0  0  0  0  0  0
   -1.7705   -7.3949   13.4477 C   0  0  0  0  0  0  0  0  0  0  0  0
   -1.1461   -6.9292   12.2768 C   0  0  0  0  0  0  0  0  0  0  0  0
   -1.0205   -7.7978   14.6097 C   0  0  0  0  0  0  0  0  0  0  0  0
    0.1297   -7.2514   15.0803 C   0  0  0  0  0  0  0  0  0  0  0  0
    0.6748   -5.9165   14.6972 C   0  0  0  0  0  0  0  0  0  0  0  0
    0.2606   -5.1559   13.8520 O   0  0  0  0  0  0  0  0  0  0  0  0
    1.7758   -5.6560   15.6428 C   0  0  0  0  0  0  0  0  0  0  0  0
    2.5831   -4.5573   15.7171 C   0  0  0  0  0  0  0  0  0  0  0  0
    3.5869   -4.5063   16.7089 C   0  0  0  0  0  0  0  0  0  0  0  0
    4.4543   -3.4007   16.8252 C   0  0  0  0  0  0  0  0  0  0  0  0
    5.4182   -3.3612   17.7937 C   0  0  0  0  0  0  0  0  0  0  0  0
    5.5365   -4.4426   18.6780 C   0  0  0  0  0  0  0  0  0  0  0  0
    6.4901   -4.3844   19.6247 F   0  0  0  0  0  0  0  0  0  0  0  0
    4.7232   -5.5391   18.6083 C   0  0  0  0  0  0  0  0  0  0  0  0
    3.7251   -5.5976   17.6158 C   0  0  0  0  0  0  0  0  0  0  0  0
    2.8722   -6.7206   17.5161 C   0  0  0  0  0  0  0  0  0  0  0  0
    1.9124   -6.7532   16.5382 C   0  0  0  0  0  0  0  0  0  0  0  0
    0.9188   -7.7624   16.1922 C   0  0  0  0  0  0  0  0  0  0  0  0
    0.8071   -8.9995   16.7682 C   0  0  0  0  0  0  0  0  0  0  0  0
    1.6171   -9.4529   17.8315 C   0  0  0  0  0  0  0  0  0  0  0  0
    2.2377   -9.8795   18.6976 N   0  0  0  0  0  0  0  0  0  0  0  0
   -0.1070  -10.0030   16.3813 C   0  0  0  0  0  0  0  0  0  0  0  0
   -0.8078  -10.8751   16.1226 N   0  0  0  0  0  0  0  0  0  0  0  0
    6.0642    3.4254   -8.1360 H   0  0  0  0  0  0  0  0  0  0  0  0
    5.1547    9.5736   -7.7059 H   0  0  0  0  0  0  0  0  0  0  0  0
    6.0861   11.8411   -8.0282 H   0  0  0  0  0  0  0  0  0  0  0  0
    8.0183   13.3204   -8.5176 H   0  0  0  0  0  0  0  0  0  0  0  0
   10.5792    9.9233   -8.8420 H   0  0  0  0  0  0  0  0  0  0  0  0
    9.6878    7.6677   -8.5304 H   0  0  0  0  0  0  0  0  0  0  0  0
    4.3006    6.1451   -2.5137 H   0  0  0  0  0  0  0  0  0  0  0  0
    2.7004    7.5437   -1.2763 H   0  0  0  0  0  0  0  0  0  0  0  0
    0.1219    9.5922   -2.8112 H   0  0  0  0  0  0  0  0  0  0  0  0
   -0.4292    8.1419   -1.9800 H   0  0  0  0  0  0  0  0  0  0  0  0
    0.8716    9.1078   -1.2819 H   0  0  0  0  0  0  0  0  0  0  0  0
    0.4308    8.1113   -4.8441 H   0  0  0  0  0  0  0  0  0  0  0  0
    2.0517    6.7298   -6.0908 H   0  0  0  0  0  0  0  0  0  0  0  0
    6.1422    3.7244   -4.8063 H   0  0  0  0  0  0  0  0  0  0  0  0
    8.5229    4.2304   -4.5702 H   0  0  0  0  0  0  0  0  0  0  0  0
   10.1510    6.2072   -3.6251 H   0  0  0  0  0  0  0  0  0  0  0  0
    9.9192    7.7186   -4.5154 H   0  0  0  0  0  0  0  0  0  0  0  0
   10.2656    6.2168   -5.3789 H   0  0  0  0  0  0  0  0  0  0  0  0
    7.6605    8.4079   -4.6673 H   0  0  0  0  0  0  0  0  0  0  0  0
    5.2676    7.9079   -4.8916 H   0  0  0  0  0  0  0  0  0  0  0  0
    0.8301    2.7956   -8.7441 H   0  0  0  0  0  0  0  0  0  0  0  0
    1.3776    2.3739  -11.0819 H   0  0  0  0  0  0  0  0  0  0  0  0
    1.5310    0.8056  -12.9342 H   0  0  0  0  0  0  0  0  0  0  0  0
    1.4422   -0.9389  -12.6434 H   0  0  0  0  0  0  0  0  0  0  0  0
    2.9608   -0.0794  -12.4047 H   0  0  0  0  0  0  0  0  0  0  0  0
    1.5821   -1.8129  -10.3005 H   0  0  0  0  0  0  0  0  0  0  0  0
    1.0579   -1.3997   -7.9403 H   0  0  0  0  0  0  0  0  0  0  0  0
    1.1285   -0.2079   -4.4754 H   0  0  0  0  0  0  0  0  0  0  0  0
   -0.3166   -1.8053   -3.2900 H   0  0  0  0  0  0  0  0  0  0  0  0
   -3.7706   -2.4994   -4.1784 H   0  0  0  0  0  0  0  0  0  0  0  0
   -2.4786   -2.8411   -3.0189 H   0  0  0  0  0  0  0  0  0  0  0  0
   -2.6178   -3.7901   -4.4997 H   0  0  0  0  0  0  0  0  0  0  0  0
   -3.1307   -1.6394   -6.4893 H   0  0  0  0  0  0  0  0  0  0  0  0
   -1.6813   -0.0537   -7.6850 H   0  0  0  0  0  0  0  0  0  0  0  0
   -0.9455    2.7301   -7.2645 H   0  0  0  0  0  0  0  0  0  0  0  0
   -2.0414    3.5611   -9.2707 H   0  0  0  0  0  0  0  0  0  0  0  0
   -4.4816    3.9229   -9.3029 H   0  0  0  0  0  0  0  0  0  0  0  0
   -6.6466    3.4563   -8.2454 H   0  0  0  0  0  0  0  0  0  0  0  0
   -6.7265    2.8784   -6.5742 H   0  0  0  0  0  0  0  0  0  0  0  0
   -6.0850    5.1478   -5.7615 H   0  0  0  0  0  0  0  0  0  0  0  0
   -7.5518    5.2188   -6.7441 H   0  0  0  0  0  0  0  0  0  0  0  0
   -6.0020    5.7248   -7.4259 H   0  0  0  0  0  0  0  0  0  0  0  0
   -4.7127    2.6463   -5.2545 H   0  0  0  0  0  0  0  0  0  0  0  0
   -8.2216   -5.3910    4.6218 H   0  0  0  0  0  0  0  0  0  0  0  0
   -9.8172   -7.2125    5.0656 H   0  0  0  0  0  0  0  0  0  0  0  0
   -9.0526   -9.3015    6.1186 H   0  0  0  0  0  0  0  0  0  0  0  0
   -7.2289  -10.7542    6.7359 H   0  0  0  0  0  0  0  0  0  0  0  0
   -5.5533  -10.2264    6.5231 H   0  0  0  0  0  0  0  0  0  0  0  0
   -6.0633  -10.6083    8.9266 H   0  0  0  0  0  0  0  0  0  0  0  0
   -7.3705   -9.4224    8.8451 H   0  0  0  0  0  0  0  0  0  0  0  0
   -5.6968   -8.9046    8.6318 H   0  0  0  0  0  0  0  0  0  0  0  0
   -5.0641   -7.7962    6.2017 H   0  0  0  0  0  0  0  0  0  0  0  0
   -0.6823   -0.6302   -0.9425 H   0  0  0  0  0  0  0  0  0  0  0  0
   -1.3166   -1.3767    0.5242 H   0  0  0  0  0  0  0  0  0  0  0  0
   -1.7158    1.0431    1.3982 H   0  0  0  0  0  0  0  0  0  0  0  0
   -0.9173    1.6126   -0.0640 H   0  0  0  0  0  0  0  0  0  0  0  0
   -0.0148    0.6520    1.1052 H   0  0  0  0  0  0  0  0  0  0  0  0
   -1.9855   -0.9653    2.2869 H   0  0  0  0  0  0  0  0  0  0  0  0
   -2.6460   -1.7970    3.6902 H   0  0  0  0  0  0  0  0  0  0  0  0
   -4.0416    0.4944    2.2124 H   0  0  0  0  0  0  0  0  0  0  0  0
   -4.6468   -0.3264    3.6519 H   0  0  0  0  0  0  0  0  0  0  0  0
   -3.1739    0.6428    3.7496 H   0  0  0  0  0  0  0  0  0  0  0  0
   -2.1848   -5.2099    7.2111 H   0  0  0  0  0  0  0  0  0  0  0  0
   -6.0172   -6.4086   10.1458 H   0  0  0  0  0  0  0  0  0  0  0  0
   -6.4071   -5.6327    7.8492 H   0  0  0  0  0  0  0  0  0  0  0  0
   -5.0289   -7.2851   12.4424 H   0  0  0  0  0  0  0  0  0  0  0  0
   -3.6316   -7.9250   14.3644 H   0  0  0  0  0  0  0  0  0  0  0  0
   -0.0730   -6.8672   12.2025 H   0  0  0  0  0  0  0  0  0  0  0  0
   -1.4599   -8.6155   15.1691 H   0  0  0  0  0  0  0  0  0  0  0  0
    2.4582   -3.7396   15.0231 H   0  0  0  0  0  0  0  0  0  0  0  0
    4.3436   -2.5801   16.1326 H   0  0  0  0  0  0  0  0  0  0  0  0
    6.0893   -2.5233   17.8970 H   0  0  0  0  0  0  0  0  0  0  0  0
    4.8441   -6.3544   19.3045 H   0  0  0  0  0  0  0  0  0  0  0  0
    2.9989   -7.5267   18.2206 H   0  0  0  0  0  0  0  0  0  0  0  0
  1  2  2  0  0  0  0
  2  3  1  0  0  0  0
  3  4  2  0  0  0  0
  3  5  1  0  0  0  0
  5  6  2  0  0  0  0
  6  7  1  0  0  0  0
  7  8  2  0  0  0  0
  8  9  1  0  0  0  0
  9 10  2  0  0  0  0
 10 11  1  0  0  0  0
 10 12  1  0  0  0  0
 12 13  2  0  0  0  0
 13 14  1  0  0  0  0
 14 15  2  0  0  0  0
 15 16  1  0  0  0  0
 16 17  2  0  0  0  0
 17 18  1  0  0  0  0
 18 19  3  0  0  0  0
 17 20  1  0  0  0  0
 20 21  3  0  0  0  0
  1 22  1  0  0  0  0
 22 23  2  0  0  0  0
 23 24  1  0  0  0  0
 24 25  1  0  0  0  0
 25 26  2  0  0  0  0
 26 27  1  0  0  0  0
 27 28  2  0  0  0  0
 28 29  1  0  0  0  0
 28 30  1  0  0  0  0
 30 31  2  0  0  0  0
 24 32  1  0  0  0  0
 32 33  2  0  0  0  0
 33 34  1  0  0  0  0
 34 35  2  0  0  0  0
 35 36  1  0  0  0  0
 35 37  1  0  0  0  0
 37 38  2  0  0  0  0
 23 39  1  0  0  0  0
 39 40  1  0  0  0  0
 40 41  1  0  0  0  0
 41 42  2  0  0  0  0
 42 43  1  0  0  0  0
 43 44  1  0  0  0  0
 44 45  2  0  0  0  0
 45 46  1  0  0  0  0
 46 47  2  0  0  0  0
 47 48  1  0  0  0  0
 47 49  1  0  0  0  0
 49 50  2  0  0  0  0
 43 51  1  0  0  0  0
 51 52  2  0  0  0  0
 52 53  1  0  0  0  0
 53 54  2  0  0  0  0
 54 55  1  0  0  0  0
 54 56  1  0  0  0  0
 56 57  2  0  0  0  0
 42 58  1  0  0  0  0
 58 59  1  0  0  0  0
 41 60  1  0  0  0  0
 60 61  2  0  0  0  0
 61 62  1  0  0  0  0
 62 63  2  0  0  0  0
 63 64  1  0  0  0  0
 64 65  2  0  0  0  0
 65 66  1  0  0  0  0
 66 67  1  0  0  0  0
 67 68  1  0  0  0  0
 66 69  2  0  0  0  0
 61 70  1  0  0  0  0
 70 71  1  0  0  0  0
 71 72  1  0  0  0  0
 72 73  1  0  0  0  0
 73 74  1  0  0  0  0
 74 75  1  0  0  0  0
 75 76  2  0  0  0  0
 76 77  1  0  0  0  0
 77 78  1  0  0  0  0
 75 79  1  0  0  0  0
 79 80  1  0  0  0  0
 80 81  1  0  0  0  0
 81 82  1  0  0  0  0
 82 83  1  0  0  0  0
 83 84  1  0  0  0  0
 84 85  2  0  0  0  0
 85 86  1  0  0  0  0
 86 87  2  0  0  0  0
 87 88  1  0  0  0  0
 88 89  1  0  0  0  0
 89 90  1  0  0  0  0
 88 91  2  0  0  0  0
 83 92  2  0  0  0  0
 92 93  1  0  0  0  0
 93 94  1  0  0  0  0
 94 95  1  0  0  0  0
 95 96  1  0  0  0  0
 96 97  1  0  0  0  0
 97 98  1  0  0  0  0
 98 99  1  0  0  0  0
 99100  1  0  0  0  0
100101  1  0  0  0  0
101102  1  0  0  0  0
 99103  1  0  0  0  0
103104  1  0  0  0  0
 96105  1  0  0  0  0
105106  1  0  0  0  0
 92107  1  0  0  0  0
107108  2  0  0  0  0
108109  1  0  0  0  0
109110  1  0  0  0  0
110111  2  0  0  0  0
110112  1  0  0  0  0
112113  2  0  0  0  0
113114  1  0  0  0  0
114115  1  0  0  0  0
115116  2  0  0  0  0
113117  1  0  0  0  0
117118  2  0  0  0  0
118119  1  0  0  0  0
119120  2  0  0  0  0
119121  1  0  0  0  0
121122  2  0  0  0  0
122123  1  0  0  0  0
123124  2  0  0  0  0
123125  1  0  0  0  0
125126  2  0  0  0  0
126127  1  0  0  0  0
127128  2  0  0  0  0
128129  1  0  0  0  0
129130  2  0  0  0  0
130131  1  0  0  0  0
130132  1  0  0  0  0
132133  2  0  0  0  0
133134  1  0  0  0  0
134135  2  0  0  0  0
135136  1  0  0  0  0
136137  2  0  0  0  0
137138  1  0  0  0  0
138139  3  0  0  0  0
137140  1  0  0  0  0
140141  3  0  0  0  0
 16  2  1  0  0  0  0
 59 22  1  0  0  0  0
102 60  1  0  0  0  0
116107  1  0  0  0  0
136122  1  0  0  0  0
 15  5  1  0  0  0  0
 31 25  1  0  0  0  0
 38 32  1  0  0  0  0
 58 39  2  0  0  0  0
 69 62  1  0  0  0  0
101 70  2  0  0  0  0
114109  2  0  0  0  0
135125  1  0  0  0  0
 13  7  1  0  0  0  0
 50 44  1  0  0  0  0
 57 51  1  0  0  0  0
100 72  2  0  0  0  0
120112  1  0  0  0  0
133127  1  0  0  0  0
 98 73  2  0  0  0  0
 78 74  2  0  0  0  0
 97 79  2  0  0  0  0
 95 80  2  0  0  0  0
 94 82  2  0  0  0  0
 91 84  1  0  0  0  0
  1142  1  0  0  0  0
  6143  1  0  0  0  0
  8144  1  0  0  0  0
  9145  1  0  0  0  0
 12146  1  0  0  0  0
 14147  1  0  0  0  0
 26148  1  0  0  0  0
 27149  1  0  0  0  0
 29150  1  0  0  0  0
 29151  1  0  0  0  0
 29152  1  0  0  0  0
 30153  1  0  0  0  0
 31154  1  0  0  0  0
 33155  1  0  0  0  0
 34156  1  0  0  0  0
 36157  1  0  0  0  0
 36158  1  0  0  0  0
 36159  1  0  0  0  0
 37160  1  0  0  0  0
 38161  1  0  0  0  0
 45162  1  0  0  0  0
 46163  1  0  0  0  0
 48164  1  0  0  0  0
 48165  1  0  0  0  0
 48166  1  0  0  0  0
 49167  1  0  0  0  0
 50168  1  0  0  0  0
 52169  1  0  0  0  0
 53170  1  0  0  0  0
 55171  1  0  0  0  0
 55172  1  0  0  0  0
 55173  1  0  0  0  0
 56174  1  0  0  0  0
 57175  1  0  0  0  0
 63176  1  0  0  0  0
 64177  1  0  0  0  0
 65178  1  0  0  0  0
 67179  1  0  0  0  0
 67180  1  0  0  0  0
 68181  1  0  0  0  0
 68182  1  0  0  0  0
 68183  1  0  0  0  0
 69184  1  0  0  0  0
 85185  1  0  0  0  0
 86186  1  0  0  0  0
 87187  1  0  0  0  0
 89188  1  0  0  0  0
 89189  1  0  0  0  0
 90190  1  0  0  0  0
 90191  1  0  0  0  0
 90192  1  0  0  0  0
 91193  1  0  0  0  0
103194  1  0  0  0  0
103195  1  0  0  0  0
104196  1  0  0  0  0
104197  1  0  0  0  0
104198  1  0  0  0  0
105199  1  0  0  0  0
105200  1  0  0  0  0
106201  1  0  0  0  0
106202  1  0  0  0  0
106203  1  0  0  0  0
108204  1  0  0  0  0
115205  1  0  0  0  0
116206  1  0  0  0  0
117207  1  0  0  0  0
118208  1  0  0  0  0
120209  1  0  0  0  0
121210  1  0  0  0  0
126211  1  0  0  0  0
128212  1  0  0  0  0
129213  1  0  0  0  0
132214  1  0  0  0  0
134215  1  0  0  0  0
M  END
