237

C          8.59460       -8.86860        1.36110
C          8.04780      -10.01820        1.90070
C          7.03430      -10.00930        2.96470
O          6.50990       -9.03880        3.48150
C          6.87380      -11.42120        3.37140
C          6.05970      -11.95050        4.32710
C          6.05470      -13.35040        4.53030
C          5.22640      -13.95200        5.49830
C          5.23090      -15.30670        5.68780
C          6.07560      -16.09680        4.89850
F          6.06610      -17.42970        5.09690
C          6.89840      -15.56410        3.94510
C          6.90690      -14.17150        3.73820
C          7.74780      -13.59020        2.75870
C          7.72780      -12.23570        2.57660
C          8.44950      -11.36990        1.64780
C          9.23770      -11.79170        0.60240
C          9.80080      -10.92510       -0.35340
N         10.26090      -10.27710       -1.18360
C          9.50290      -13.14070        0.31060
N          9.73600      -14.22620        0.01260
C          7.96260       -7.62910        1.27960
C          6.59250       -7.28350        1.25340
N          5.53170       -8.13440        1.15650
C          4.26710       -7.70860        1.62270
C          3.14160       -7.87240        0.82390
C          1.90810       -7.44700        1.27860
C          1.77030       -6.85480        2.52780
C          0.43960       -6.36270        3.00690
C          2.90180       -6.71510        3.32490
C          4.13960       -7.13760        2.88530
C          5.62070       -9.41480        0.59440
C          6.40050       -9.65800       -0.53600
C          6.49490      -10.93330       -1.05060
C          5.82350      -12.00250       -0.46040
C          5.97310      -13.38570       -1.01020
C          5.01780      -11.74450        0.64000
C          4.90940      -10.46930        1.16300
C          6.44330       -5.87790        1.23720
S          5.06670       -4.82880        1.17280
C          6.11910       -3.42580        1.19160
C          7.46700       -3.75590        1.15800
N          8.50420       -2.85310        1.05690
C          9.75460       -3.15080        1.62690
C          9.83910       -3.75960        2.87380
C         11.07310       -4.05190        3.42030
C         12.24730       -3.74010        2.74790
C         13.58420       -4.08000        3.33170
C         12.15220       -3.12040        1.50660
C         10.92540       -2.82890        0.94610
C          8.32160       -1.61070        0.43060
C          8.88890       -0.46390        0.98090
C          8.65280        0.76980        0.41140
C          7.86800        0.89710       -0.72940
C          7.57190        2.25090       -1.29820
C          7.36070       -0.25840       -1.30860
C          7.57800       -1.49870       -0.73990
C          7.63290       -5.16200        1.19600
S          9.00620       -6.20260        1.15120
C          5.57880       -2.10380        1.32080
C          5.95540       -1.18000        2.27380
C          6.73120       -1.54290        3.46020
C          7.68940       -0.69220        4.00130
C          8.40000       -1.08340        5.12090
C          8.14910       -2.30340        5.72570
C          7.16020       -3.14440        5.23010
C          6.83850       -4.46230        5.87940
C          7.38740       -5.64110        5.07270
C          6.46320       -2.75170        4.09780
C          5.36640        0.07700        2.02180
S          5.46050        1.62190        2.82760
C          4.28310        2.25060        1.72230
C          3.56070        3.43590        1.48700
C          3.63250        4.72790        2.05320
C          2.74540        5.75300        1.57150
N          2.95760        6.91990        2.15850
S          4.16300        6.74790        3.22580
N          4.46210        5.17550        2.98220
C          1.73640        5.40750        0.64440
C          0.59340        6.09720        0.20460
S         -0.16350        7.64260        0.40560
C         -1.55220        7.04780       -0.47340
C         -2.80240        7.62890       -0.76680
C         -3.07520        9.03380       -0.42970
C         -2.27740       10.01060       -1.01610
C         -2.45860       11.33990       -0.68450
C         -3.43060       11.70040        0.22940
C         -4.23510       10.73730        0.82800
C         -5.30250       11.14810        1.80170
C         -6.36790       12.01130        1.12550
C         -4.04100        9.40340        0.49880
C         -3.61510        6.74580       -1.45010
S         -2.82490        5.19750       -1.73590
C         -1.40690        5.73000       -0.91100
C         -0.17390        5.18820       -0.53050
N          0.46560        3.97820       -0.59490
C          1.64610        4.09180        0.11390
C          2.65620        3.15080        0.42970
N          2.88040        1.85940       -0.01910
C          3.85500        1.31520        0.77860
C          4.49350        0.07790        0.93400
S          4.42520       -1.46640        0.16460
C          2.68010        1.34480       -1.35620
C          3.96360        1.44030       -2.17920
C         -0.26120        2.79420       -0.99700
C         -0.44210        2.71440       -2.51280
C         -4.94510        6.86990       -1.95030
C         -5.97860        7.66260       -1.53930
C         -7.20200        7.39530       -2.19800
C         -8.46280        7.97700       -1.95500
C         -8.71960        8.85720       -0.83430
C         -9.64250        9.86010       -0.74180
C         -9.78590       10.41510        0.55060
C        -10.74060       11.52080        0.86770
C        -10.24720       12.85520        0.30800
C         -8.94910        9.81070        1.44190
Cl        -8.80390       10.14780        3.11440
S         -7.96950        8.57620        0.71890
C         -9.50720        7.57640       -2.78860
C         -9.34550        6.61540       -3.82290
C         -8.08810        6.00040       -4.04200
C         -7.86550        5.01600       -5.07810
C         -7.06640        3.90810       -5.02190
C         -6.98770        3.17910       -6.22910
C         -6.14170        1.95890       -6.40300
C         -4.66570        2.34220       -6.51880
C         -7.73330        3.76720       -7.21040
S         -8.55530        5.19390       -6.67130
Cl        -7.91740        3.23010       -8.82360
C         -7.06090        6.39960       -3.20070
S         -5.43410        5.78290       -3.23830
C        -10.56530        6.32600       -4.44860
C        -11.64540        7.02710       -3.94120
S        -11.15920        8.10410       -2.65040
C        -12.94970        6.83040       -4.43420
C        -14.14080        7.38440       -4.05010
C        -14.33030        8.38690       -2.98740
O        -13.47650        8.93000       -2.31190
C        -15.78160        8.61950       -2.90080
C        -16.46320        9.44110       -2.05050
C        -17.87180        9.50170       -2.13390
C        -18.62770       10.32800       -1.27760
C        -19.99120       10.37420       -1.36670
C        -20.63470        9.58390       -2.32870
F        -21.97700        9.64240       -2.40090
C        -19.94960        8.76620       -3.18390
C        -18.54460        8.70550       -3.10570
C        -17.80950        7.86600       -3.97510
C        -16.44430        7.82160       -3.87500
C        -15.43950        7.05910       -4.61240
C        -15.70870        6.19970       -5.64670
C        -17.00490        5.93870       -6.13940
N        -18.02860        5.67870       -6.58950
C        -14.76100        5.45320       -6.37770
N        -14.06450        4.80680       -7.02370
H          9.61680       -8.90080        1.00340
H          5.41920      -11.31400        4.91950
H          4.58400      -13.32180        6.09520
H          4.60480      -15.78160        6.42640
H          7.53610      -16.20360        3.35490
H          8.39040      -14.23550        2.18130
H          3.23960       -8.32770       -0.15090
H          1.03980       -7.57270        0.64820
H          0.38180       -5.28010        2.89100
H         -0.37090       -6.80950        2.43670
H          0.29910       -6.59240        4.06100
H          2.80830       -6.27460        4.30690
H          5.01110       -7.06090        3.51590
H          6.93470       -8.84630       -1.00670
H          7.10780      -11.10720       -1.92300
H          5.41920      -14.10420       -0.41150
H          5.60650      -13.42800       -2.03520
H          7.02200      -13.68000       -1.02360
H          4.47670      -12.55400        1.10840
H          4.28520      -10.28470        2.02440
H          8.93430       -3.98290        3.41500
H         11.12310       -4.52300        4.39150
H         13.92150       -5.04420        2.94980
H         14.32760       -3.33400        3.05990
H         13.52970       -4.14710        4.41570
H         13.05400       -2.86880        0.96750
H         10.86510       -2.35100       -0.02060
H          9.50170       -0.55210        1.86510
H          9.07570        1.65420        0.86540
H          7.20280        2.17520       -2.31810
H          6.81360        2.74990       -0.69270
H          8.46310        2.87500       -1.29120
H          6.78790       -0.19390       -2.22310
H          7.16870       -2.38540       -1.20190
H          7.87500        0.26600        3.54120
H          9.15430       -0.42780        5.53040
H          8.71190       -2.59620        6.60030
H          7.25510       -4.48980        6.88790
H          5.75310       -4.56390        5.95750
H          7.07310       -6.58580        5.51000
H          7.02450       -5.60530        4.04760
H          8.47500       -5.62090        5.05230
H          5.67490       -3.38730        3.72070
H         -1.51950        9.72350       -1.72970
H         -1.83460       12.09610       -1.13730
H         -3.55860       12.74010        0.49260
H         -4.85010       11.71610        2.61880
H         -5.77310       10.26060        2.22880
H         -7.14640       12.26920        1.83910
H         -5.93520       12.93160        0.74110
H         -6.82160       11.47570        0.29410
H         -4.62310        8.63930        0.99580
H          2.36440        0.29900       -1.28230
H          1.90920        1.92480       -1.85120
H          4.28630        2.47690       -2.25230
H          4.75700        0.85910       -1.71880
H          3.78480        1.05700       -3.18030
H         -1.25370        2.83990       -0.53370
H          0.24710        1.91420       -0.60250
H         -1.08840        3.51770       -2.85530
H         -0.90280        1.76680       -2.77690
H          0.50640        2.80190       -3.03810
H         -5.86600        8.41780       -0.78700
H        -10.20930       10.22070       -1.58000
H        -11.70950       11.27880        0.42570
H        -10.86240       11.59840        1.94900
H        -10.13140       12.79590       -0.77130
H         -9.28570       13.11830        0.74220
H        -10.95920       13.64400        0.53780
H         -6.56930        3.58600       -4.12500
H         -6.45400        1.42230       -7.29960
H         -6.28080        1.30330       -5.54090
H         -4.34490        2.89110       -5.63630
H         -4.50800        2.97200       -7.39100
H         -4.05190        1.45050       -6.61930
H        -10.68060        5.60570       -5.23810
H        -12.98580        6.10270       -5.23590
H        -15.93360       10.03490       -1.32050
H        -18.10900       10.92720       -0.54440
H        -20.58450       10.99980       -0.71900
H        -20.47840        8.17160       -3.91230
H        -18.35110        7.27680       -4.69710
