223

C         -6.19470        4.17530       -7.32950
C         -6.68160        3.71600       -8.53940
C         -6.38960        2.37990       -9.07630
O         -5.74630        1.49170       -8.54640
C         -6.92990        2.37840      -10.45220
C         -6.90800        1.38070      -11.37970
C         -7.50590        1.60040      -12.64270
C         -7.52000        0.60120      -13.63570
C         -8.09710        0.82610      -14.85540
C         -8.68130        2.07350      -15.10690
F         -9.24630        2.27800      -16.31330
C         -8.69600        3.07700      -14.17820
C         -8.10610        2.86210      -12.91800
C         -8.10670        3.88120      -11.93500
C         -7.53160        3.63990      -10.71870
C         -7.40070        4.46910       -9.52320
C         -8.00840        5.68630       -9.31810
C         -7.97300        6.38470       -8.09660
N         -8.00990        6.98850       -7.11950
C         -8.80770        6.33550      -10.27440
N         -9.48410        6.89880      -11.01400
C         -5.85750        3.38560       -6.23240
C         -6.28500        2.09560       -5.84290
N         -7.30360        1.37550       -6.39280
C         -8.36480        1.97500       -7.08650
C         -8.87090        1.37230       -8.23610
C         -9.88930        1.97800       -8.94850
C        -10.43460        3.18620       -8.53510
C        -11.50000        3.87020       -9.33170
C         -9.95310        3.75810       -7.35940
C         -8.93460        3.16720       -6.64220
C         -7.31990       -0.02800       -6.24500
C         -8.50060       -0.67430       -5.89480
C         -8.51440       -2.04630       -5.74180
C         -7.36370       -2.80160       -5.93710
C         -7.37930       -4.28530       -5.73690
C         -6.19580       -2.14560       -6.30870
C         -6.16650       -0.77410       -6.46460
C         -5.58990        1.67700       -4.68430
S         -5.67060        0.25840       -3.69190
C         -4.50930        0.95660       -2.57490
C         -4.08840        2.22570       -2.94800
N         -3.21170        3.04350       -2.25550
C         -3.06380        2.97070       -0.86260
C         -1.79840        3.05260       -0.28430
C         -1.64170        2.86610        1.07570
C         -2.72690        2.57920        1.89430
C         -2.55280        2.29700        3.35490
C         -3.99320        2.56520        1.32050
C         -4.16510        2.77400       -0.03270
C         -2.37750        3.90890       -2.98700
C         -2.13240        5.19710       -2.52000
C         -1.31690        6.04910       -3.23590
C         -0.73220        5.64820       -4.43230
C          0.12420        6.59270       -5.21830
C         -0.97920        4.35980       -4.88810
C         -1.78560        3.49360       -4.17610
C         -4.71980        2.61970       -4.15450
S         -4.71840        4.08190       -5.06810
C         -4.10660        0.23170       -1.40570
C         -4.88640       -0.31560       -0.40780
C         -6.34880       -0.37570       -0.40660
C         -6.97930       -1.50890        0.10420
C         -8.35750       -1.60120        0.09470
C         -9.12510       -0.57300       -0.42360
C         -8.51770        0.56980       -0.92610
C         -9.32920        1.67600       -1.53780
C         -9.41840        1.48430       -3.05300
C         -7.13460        0.65680       -0.90760
C         -4.08120       -0.79670        0.65040
S         -4.46220       -1.38400        2.25220
C         -2.77060       -1.41410        2.62570
C         -1.92110       -1.64630        3.72180
C         -2.19360       -1.90130        5.08320
C         -1.10290       -1.92570        6.01870
N         -1.51060       -2.10530        7.26530
S         -3.12450       -2.23790        7.26410
N         -3.36770       -2.06840        5.67170
C          0.21870       -1.82520        5.53240
C          1.46280       -1.96160        6.17490
S          2.10630       -2.20220        7.76450
C          3.71380       -2.28050        7.08230
C          4.99810       -2.44660        7.65180
C          5.24850       -2.54670        9.08890
C          6.33750       -1.90230        9.67180
C          6.55460       -2.01060       11.03130
C          5.69090       -2.75010       11.82130
C          4.59560       -3.39160       11.25850
C          3.61950       -4.15380       12.10730
C          2.40000       -3.28520       12.42210
C          4.38400       -3.28110        9.89290
C          5.97730       -2.42340        6.68370
S          5.33500       -2.18220        5.07030
C          3.72730       -2.12000        5.69840
C          2.43860       -1.93190        5.17950
N          1.86210       -1.74070        3.94970
C          0.49020       -1.66420        4.14700
C         -0.59220       -1.43710        3.25910
N         -0.64610       -1.03320        1.93880
C         -1.96060       -1.02150        1.55930
C         -2.71230       -0.64710        0.43880
S         -2.38580        0.04040       -1.10780
C          0.33570       -0.33700        1.14000
C          0.78630       -1.15840       -0.06680
C          2.57920       -2.19710        2.77750
C          2.19840       -3.63420        2.42890
C          7.39730       -2.67400        6.82170
C          8.35490       -1.83940        6.22210
C          8.13200       -0.60570        5.54170
C          9.26120       -0.01280        5.10010
C          9.40900        1.23470        4.30250
C          9.76780        0.90990        2.85050
S         10.68380       -0.94810        5.49390
C          9.72500       -2.17240        6.27460
C         10.21070       -3.30720        6.93270
C          9.24960       -4.10250        7.59370
C          7.87800       -3.78860        7.50390
S          6.90200       -5.00050        8.28010
C          8.32120       -5.90230        8.73570
C          8.17080       -7.17770        9.48830
C          7.55740       -8.26860        8.60860
C          9.46250       -5.31670        8.30240
C         11.59520       -3.67500        6.99660
C         12.57820       -3.54760        6.07130
C         14.00040       -3.68900        6.49530
O         14.38470       -4.12360        7.55970
C         14.79510       -3.15860        5.37320
C         13.94470       -2.84310        4.31310
C         14.45530       -2.29180        3.13050
C         15.80470       -2.07430        3.03350
C         16.69400       -2.39700        4.08180
C         18.08280       -2.18320        3.96810
C         18.92440       -2.50450        4.99730
C         18.41830       -3.05210        6.18720
C         17.07710       -3.27340        6.33610
C         16.18590       -2.95420        5.29130
C         12.57660       -3.20650        4.66620
C         11.53780       -3.36860        3.78770
C         11.57830       -3.00590        2.42660
N         11.52990       -2.69660        1.32170
C         10.31400       -3.98700        4.11780
N          9.32140       -4.53330        4.30250
H         -6.00720        5.23690       -7.21970
H         -6.44580        0.43080      -11.15540
H         -7.06230       -0.35240      -13.41830
H         -8.11360        0.07230      -15.62650
H         -9.15600        4.02570      -14.40680
H         -8.55850        4.83010      -12.17650
H         -8.45300        0.43510       -8.57160
H        -10.25490        1.50730       -9.84970
H        -11.96280        3.18280      -10.03500
H        -11.07200        4.69840       -9.89810
H        -12.26670        4.28090       -8.67810
H        -10.37930        4.68540       -7.00550
H         -8.57430        3.63150       -5.73660
H         -9.40000       -0.09610       -5.74300
H         -9.43420       -2.53920       -5.46220
H         -7.14600       -4.51930       -4.69760
H         -8.35970       -4.69850       -5.96210
H         -6.63660       -4.77060       -6.36560
H         -5.29690       -2.71780       -6.48550
H         -5.26860       -0.27120       -6.78730
H         -0.93790        3.23170       -0.91190
H         -0.65140        2.92560        1.50600
H         -2.99030        3.09680        3.95200
H         -1.50020        2.20990        3.61440
H         -3.05570        1.36960        3.62620
H         -4.85740        2.37840        1.94130
H         -5.15720        2.77550       -0.45510
H         -2.58650        5.52190       -1.59540
H         -1.13750        7.04760       -2.86440
H          0.67970        7.25460       -4.55760
H         -0.50110        7.21060       -5.86360
H          0.82560        6.05020       -5.84780
H         -0.52850        4.02460       -5.81110
H         -1.95410        2.48870       -4.53560
H         -6.38660       -2.32220        0.49390
H         -8.83650       -2.48430        0.49130
H        -10.20250       -0.65460       -0.43320
H         -8.86470        2.64100       -1.32340
H        -10.33500        1.67980       -1.11370
H         -9.89200        0.53230       -3.28190
H         -8.42330        1.48010       -3.49240
H         -9.99940        2.28310       -3.50900
H         -6.66810        1.55470       -1.28330
H          7.00390       -1.31180        9.05980
H          7.40130       -1.51130       11.47970
H          5.86880       -2.82840       12.88440
H          4.09700       -4.46120       13.03980
H          3.29280       -5.05080       11.57720
H          2.70280       -2.39120       12.96290
H          1.90720       -2.97810       11.50260
H          1.68780       -3.83580       13.03220
H          3.54620       -3.79250        9.44300
H          1.17100       -0.05190        1.78090
H         -0.13260        0.58500        0.77580
H          1.14620       -2.14000        0.22830
H          1.57860       -0.63380       -0.59390
H         -0.04670       -1.29420       -0.75130
H          2.40610       -1.54280        1.92770
H          3.64290       -2.14810        3.02300
H          1.13580       -3.70530        2.20530
H          2.41750       -4.29380        3.26540
H          2.76640       -3.97020        1.56550
H          7.15660       -0.17470        5.40630
H         10.19410        1.85920        4.73610
H          8.46860        1.78860        4.33630
H         10.71180        0.37110        2.80380
H          8.99720        0.28880        2.39970
H          9.86190        1.82520        2.27190
H          7.52660       -7.01230       10.35570
H          9.15260       -7.49690        9.84360
H          8.18840       -8.45460        7.74270
H          7.45540       -9.19280        9.17160
H          6.57420       -7.96120        8.26010
H         10.43570       -5.73910        8.47730
H         11.92670       -4.08500        7.94610
H         13.80020       -2.03200        2.31510
H         16.21400       -1.64440        2.13050
H         18.46980       -1.76200        3.05140
H         19.98720       -2.33810        4.90140
H         19.10060       -3.29790        6.98730
H         16.67660       -3.69300        7.24540
