
  xtb     02062201473D
 energy: -362.140855512954 gnorm: 0.000363009832 xtb: 6.4.1 (unknown)
209232  0     0  0            999 V2000
   -6.9079    4.4663    5.2398 C   0  0  0  0  0  0  0  0  0  0  0  0
   -6.8478    4.3958    6.6181 C   0  0  0  0  0  0  0  0  0  0  0  0
   -5.6882    4.7261    7.4441 C   0  0  0  0  0  0  0  0  0  0  0  0
   -4.5739    5.0606    7.0742 O   0  0  0  0  0  0  0  0  0  0  0  0
   -6.1368    4.6102    8.8442 C   0  0  0  0  0  0  0  0  0  0  0  0
   -5.4243    4.8028    9.9906 C   0  0  0  0  0  0  0  0  0  0  0  0
   -6.0636    4.6168   11.2376 C   0  0  0  0  0  0  0  0  0  0  0  0
   -5.3749    4.7934   12.4542 C   0  0  0  0  0  0  0  0  0  0  0  0
   -6.0034    4.6054   13.6542 C   0  0  0  0  0  0  0  0  0  0  0  0
   -7.3535    4.2324   13.6594 C   0  0  0  0  0  0  0  0  0  0  0  0
   -7.9564    4.0510   14.8505 F   0  0  0  0  0  0  0  0  0  0  0  0
   -8.0682    4.0487   12.5084 C   0  0  0  0  0  0  0  0  0  0  0  0
   -7.4361    4.2367   11.2643 C   0  0  0  0  0  0  0  0  0  0  0  0
   -8.1486    4.0457   10.0559 C   0  0  0  0  0  0  0  0  0  0  0  0
   -7.5077    4.2283    8.8610 C   0  0  0  0  0  0  0  0  0  0  0  0
   -7.9591    4.0767    7.4780 C   0  0  0  0  0  0  0  0  0  0  0  0
   -9.2154    3.6604    7.1007 C   0  0  0  0  0  0  0  0  0  0  0  0
  -10.2709    3.4228    8.0021 C   0  0  0  0  0  0  0  0  0  0  0  0
  -11.1786    3.2270    8.6790 N   0  0  0  0  0  0  0  0  0  0  0  0
   -9.6267    3.3801    5.7850 C   0  0  0  0  0  0  0  0  0  0  0  0
  -10.0371    3.0945    4.7488 N   0  0  0  0  0  0  0  0  0  0  0  0
   -5.8972    4.6618    4.3070 C   0  0  0  0  0  0  0  0  0  0  0  0
   -6.1321    4.6612    2.9031 C   0  0  0  0  0  0  0  0  0  0  0  0
   -7.3575    4.7492    2.3081 N   0  0  0  0  0  0  0  0  0  0  0  0
   -7.5463    4.1545    1.0439 C   0  0  0  0  0  0  0  0  0  0  0  0
   -7.1082    2.8536    0.8129 C   0  0  0  0  0  0  0  0  0  0  0  0
   -7.2824    2.2768   -0.4288 C   0  0  0  0  0  0  0  0  0  0  0  0
   -7.8997    2.9725   -1.4620 C   0  0  0  0  0  0  0  0  0  0  0  0
   -8.0558    2.3484   -2.8139 C   0  0  0  0  0  0  0  0  0  0  0  0
   -8.3484    4.2645   -1.2150 C   0  0  0  0  0  0  0  0  0  0  0  0
   -8.1761    4.8553    0.0209 C   0  0  0  0  0  0  0  0  0  0  0  0
   -8.4100    5.5134    2.8489 C   0  0  0  0  0  0  0  0  0  0  0  0
   -9.7253    5.0787    2.7069 C   0  0  0  0  0  0  0  0  0  0  0  0
  -10.7580    5.8273    3.2342 C   0  0  0  0  0  0  0  0  0  0  0  0
  -10.5121    7.0145    3.9144 C   0  0  0  0  0  0  0  0  0  0  0  0
  -11.6444    7.7939    4.5082 C   0  0  0  0  0  0  0  0  0  0  0  0
   -9.1968    7.4487    4.0320 C   0  0  0  0  0  0  0  0  0  0  0  0
   -8.1538    6.7166    3.5011 C   0  0  0  0  0  0  0  0  0  0  0  0
   -4.9211    4.5523    2.1993 C   0  0  0  0  0  0  0  0  0  0  0  0
   -4.5013    4.3889    0.5223 S   0  0  0  0  0  0  0  0  0  0  0  0
   -2.7974    4.3400    0.9416 C   0  0  0  0  0  0  0  0  0  0  0  0
   -2.5761    4.4109    2.3098 C   0  0  0  0  0  0  0  0  0  0  0  0
   -1.3477    4.2877    2.9369 N   0  0  0  0  0  0  0  0  0  0  0  0
   -0.3962    3.3663    2.4861 C   0  0  0  0  0  0  0  0  0  0  0  0
    0.9642    3.6573    2.5744 C   0  0  0  0  0  0  0  0  0  0  0  0
    1.8981    2.7824    2.0598 C   0  0  0  0  0  0  0  0  0  0  0  0
    1.5142    1.5936    1.4482 C   0  0  0  0  0  0  0  0  0  0  0  0
    2.5438    0.6716    0.8696 C   0  0  0  0  0  0  0  0  0  0  0  0
    0.1615    1.2852    1.4112 C   0  0  0  0  0  0  0  0  0  0  0  0
   -0.7838    2.1492    1.9303 C   0  0  0  0  0  0  0  0  0  0  0  0
   -1.1147    5.0530    4.0914 C   0  0  0  0  0  0  0  0  0  0  0  0
   -0.4428    4.5107    5.1823 C   0  0  0  0  0  0  0  0  0  0  0  0
   -0.2478    5.2670    6.3205 C   0  0  0  0  0  0  0  0  0  0  0  0
   -0.7191    6.5707    6.4074 C   0  0  0  0  0  0  0  0  0  0  0  0
   -0.5482    7.3729    7.6605 C   0  0  0  0  0  0  0  0  0  0  0  0
   -1.3829    7.1058    5.3108 C   0  0  0  0  0  0  0  0  0  0  0  0
   -1.5783    6.3635    4.1646 C   0  0  0  0  0  0  0  0  0  0  0  0
   -3.7954    4.5537    3.0143 C   0  0  0  0  0  0  0  0  0  0  0  0
   -4.1722    4.7026    4.6912 S   0  0  0  0  0  0  0  0  0  0  0  0
   -1.7938    4.0838   -0.0485 C   0  0  0  0  0  0  0  0  0  0  0  0
   -0.5550    4.6842   -0.1613 C   0  0  0  0  0  0  0  0  0  0  0  0
   -0.2303    5.9689    0.4525 C   0  0  0  0  0  0  0  0  0  0  0  0
   -1.2178    6.9394    0.6198 C   0  0  0  0  0  0  0  0  0  0  0  0
   -0.9081    8.1502    1.2070 C   0  0  0  0  0  0  0  0  0  0  0  0
    0.3820    8.4108    1.6359 C   0  0  0  0  0  0  0  0  0  0  0  0
    1.3836    7.4662    1.4588 C   0  0  0  0  0  0  0  0  0  0  0  0
    2.8011    7.7539    1.8615 C   0  0  0  0  0  0  0  0  0  0  0  0
    3.6113    8.2282    0.6537 C   0  0  0  0  0  0  0  0  0  0  0  0
    1.0688    6.2576    0.8567 C   0  0  0  0  0  0  0  0  0  0  0  0
    0.3117    3.9032   -0.9608 C   0  0  0  0  0  0  0  0  0  0  0  0
    2.0175    4.0006   -1.3274 S   0  0  0  0  0  0  0  0  0  0  0  0
    1.9257    2.4588   -2.1097 C   0  0  0  0  0  0  0  0  0  0  0  0
    2.7735    1.4923   -2.6755 C   0  0  0  0  0  0  0  0  0  0  0  0
    4.1608    1.5109   -2.9344 C   0  0  0  0  0  0  0  0  0  0  0  0
    4.7755    0.3516   -3.5139 C   0  0  0  0  0  0  0  0  0  0  0  0
    6.0716    0.5181   -3.7250 N   0  0  0  0  0  0  0  0  0  0  0  0
    6.4846    2.0049   -3.2341 S   0  0  0  0  0  0  0  0  0  0  0  0
    5.0252    2.4925   -2.7286 N   0  0  0  0  0  0  0  0  0  0  0  0
    3.9917   -0.8050   -3.7183 C   0  0  0  0  0  0  0  0  0  0  0  0
    4.3587   -2.1100   -4.0774 C   0  0  0  0  0  0  0  0  0  0  0  0
    5.7805   -3.0093   -4.4913 S   0  0  0  0  0  0  0  0  0  0  0  0
    4.8165   -4.4703   -4.5022 C   0  0  0  0  0  0  0  0  0  0  0  0
    5.1361   -5.8141   -4.7013 C   0  0  0  0  0  0  0  0  0  0  0  0
    6.4758   -6.3250   -5.0263 C   0  0  0  0  0  0  0  0  0  0  0  0
    6.7605   -6.7477   -6.3206 C   0  0  0  0  0  0  0  0  0  0  0  0
    8.0133   -7.2484   -6.6162 C   0  0  0  0  0  0  0  0  0  0  0  0
    8.9750   -7.3435   -5.6269 C   0  0  0  0  0  0  0  0  0  0  0  0
    8.7069   -6.9197   -4.3329 C   0  0  0  0  0  0  0  0  0  0  0  0
    9.7228   -7.0917   -3.2415 C   0  0  0  0  0  0  0  0  0  0  0  0
    9.4646   -8.4071   -2.5034 C   0  0  0  0  0  0  0  0  0  0  0  0
    7.4543   -6.3984   -4.0448 C   0  0  0  0  0  0  0  0  0  0  0  0
    4.0154   -6.6294   -4.5678 C   0  0  0  0  0  0  0  0  0  0  0  0
    2.5477   -5.7129   -4.2399 S   0  0  0  0  0  0  0  0  0  0  0  0
    3.4589   -4.2485   -4.2230 C   0  0  0  0  0  0  0  0  0  0  0  0
    3.2050   -2.8955   -3.9814 C   0  0  0  0  0  0  0  0  0  0  0  0
    2.1385   -2.1218   -3.6115 N   0  0  0  0  0  0  0  0  0  0  0  0
    2.5945   -0.8282   -3.4319 C   0  0  0  0  0  0  0  0  0  0  0  0
    1.9630    0.3664   -2.9973 C   0  0  0  0  0  0  0  0  0  0  0  0
    0.6462    0.6755   -2.6825 N   0  0  0  0  0  0  0  0  0  0  0  0
    0.6370    1.9282   -2.1320 C   0  0  0  0  0  0  0  0  0  0  0  0
   -0.2855    2.7555   -1.4800 C   0  0  0  0  0  0  0  0  0  0  0  0
   -1.9462    2.6345   -1.0303 S   0  0  0  0  0  0  0  0  0  0  0  0
   -0.5897    0.1283   -3.2002 C   0  0  0  0  0  0  0  0  0  0  0  0
   -0.5869    0.0858   -4.7259 C   0  0  0  0  0  0  0  0  0  0  0  0
    0.9218   -2.7611   -3.1649 C   0  0  0  0  0  0  0  0  0  0  0  0
    0.7838   -2.7010   -1.6455 C   0  0  0  0  0  0  0  0  0  0  0  0
    3.9752   -8.0375   -4.5733 C   0  0  0  0  0  0  0  0  0  0  0  0
    2.8557   -8.8568   -4.5128 C   0  0  0  0  0  0  0  0  0  0  0  0
    1.3975   -8.7069   -4.4691 C   0  0  0  0  0  0  0  0  0  0  0  0
    0.7106   -7.7115   -4.4464 O   0  0  0  0  0  0  0  0  0  0  0  0
    0.9044  -10.0064   -4.4449 N   0  0  0  0  0  0  0  0  0  0  0  0
   -0.5029  -10.3174   -4.4131 C   0  0  0  0  0  0  0  0  0  0  0  0
    1.8983  -10.9816   -4.4532 C   0  0  0  0  0  0  0  0  0  0  0  0
    1.7013  -12.1697   -4.4628 O   0  0  0  0  0  0  0  0  0  0  0  0
    3.1601  -10.2212   -4.4754 C   0  0  0  0  0  0  0  0  0  0  0  0
    4.5145  -10.5207   -4.4749 C   0  0  0  0  0  0  0  0  0  0  0  0
    5.4295   -9.0178   -4.5921 S   0  0  0  0  0  0  0  0  0  0  0  0
    5.0115  -11.8256   -4.3152 C   0  0  0  0  0  0  0  0  0  0  0  0
    6.3097  -12.2599   -4.2946 C   0  0  0  0  0  0  0  0  0  0  0  0
    7.4890  -11.4414   -4.6154 C   0  0  0  0  0  0  0  0  0  0  0  0
    7.5309  -10.2396   -4.8114 O   0  0  0  0  0  0  0  0  0  0  0  0
    8.6273  -12.3717   -4.6744 C   0  0  0  0  0  0  0  0  0  0  0  0
    9.9327  -12.1057   -4.9725 C   0  0  0  0  0  0  0  0  0  0  0  0
   10.8671  -13.1646   -4.9738 C   0  0  0  0  0  0  0  0  0  0  0  0
   12.2283  -12.9477   -5.2699 C   0  0  0  0  0  0  0  0  0  0  0  0
   13.1228  -13.9816   -5.2683 C   0  0  0  0  0  0  0  0  0  0  0  0
   12.6667  -15.2720   -4.9664 C   0  0  0  0  0  0  0  0  0  0  0  0
   13.5616  -16.2761   -4.9692 F   0  0  0  0  0  0  0  0  0  0  0  0
   11.3579  -15.5373   -4.6730 C   0  0  0  0  0  0  0  0  0  0  0  0
   10.4229  -14.4842   -4.6689 C   0  0  0  0  0  0  0  0  0  0  0  0
    9.0633  -14.7281   -4.3626 C   0  0  0  0  0  0  0  0  0  0  0  0
    8.1764  -13.6852   -4.3605 C   0  0  0  0  0  0  0  0  0  0  0  0
    6.7485  -13.6229   -4.0578 C   0  0  0  0  0  0  0  0  0  0  0  0
    5.9999  -14.6502   -3.5484 C   0  0  0  0  0  0  0  0  0  0  0  0
    4.6715  -14.5449   -3.0796 C   0  0  0  0  0  0  0  0  0  0  0  0
    3.6195  -14.5403   -2.6210 N   0  0  0  0  0  0  0  0  0  0  0  0
    6.4927  -15.9573   -3.3505 C   0  0  0  0  0  0  0  0  0  0  0  0
    6.8317  -17.0401   -3.1759 N   0  0  0  0  0  0  0  0  0  0  0  0
   -7.8887    4.3195    4.8064 H   0  0  0  0  0  0  0  0  0  0  0  0
   -4.3833    5.0869    9.9482 H   0  0  0  0  0  0  0  0  0  0  0  0
   -4.3343    5.0804   12.4239 H   0  0  0  0  0  0  0  0  0  0  0  0
   -5.4903    4.7353   14.5938 H   0  0  0  0  0  0  0  0  0  0  0  0
   -9.1069    3.7601   12.5505 H   0  0  0  0  0  0  0  0  0  0  0  0
   -9.1855    3.7562   10.1119 H   0  0  0  0  0  0  0  0  0  0  0  0
   -6.6408    2.2993    1.6136 H   0  0  0  0  0  0  0  0  0  0  0  0
   -6.9378    1.2671   -0.5978 H   0  0  0  0  0  0  0  0  0  0  0  0
   -8.2643    1.2844   -2.7279 H   0  0  0  0  0  0  0  0  0  0  0  0
   -8.8592    2.8227   -3.3718 H   0  0  0  0  0  0  0  0  0  0  0  0
   -7.1327    2.4643   -3.3830 H   0  0  0  0  0  0  0  0  0  0  0  0
   -8.8340    4.8204   -2.0036 H   0  0  0  0  0  0  0  0  0  0  0  0
   -8.5223    5.8625    0.1994 H   0  0  0  0  0  0  0  0  0  0  0  0
   -9.9297    4.1498    2.1986 H   0  0  0  0  0  0  0  0  0  0  0  0
  -11.7725    5.4732    3.1312 H   0  0  0  0  0  0  0  0  0  0  0  0
  -11.3005    8.7482    4.8989 H   0  0  0  0  0  0  0  0  0  0  0  0
  -12.0993    7.2302    5.3225 H   0  0  0  0  0  0  0  0  0  0  0  0
  -12.4156    7.9768    3.7619 H   0  0  0  0  0  0  0  0  0  0  0  0
   -8.9836    8.3780    4.5405 H   0  0  0  0  0  0  0  0  0  0  0  0
   -7.1375    7.0702    3.5953 H   0  0  0  0  0  0  0  0  0  0  0  0
    1.2750    4.5833    3.0338 H   0  0  0  0  0  0  0  0  0  0  0  0
    2.9478    3.0325    2.1153 H   0  0  0  0  0  0  0  0  0  0  0  0
    3.0658    0.1408    1.6662 H   0  0  0  0  0  0  0  0  0  0  0  0
    2.0851   -0.0651    0.2139 H   0  0  0  0  0  0  0  0  0  0  0  0
    3.2845    1.2313    0.3013 H   0  0  0  0  0  0  0  0  0  0  0  0
   -0.1637    0.3536    0.9688 H   0  0  0  0  0  0  0  0  0  0  0  0
   -1.8308    1.8840    1.9017 H   0  0  0  0  0  0  0  0  0  0  0  0
   -0.0859    3.4923    5.1368 H   0  0  0  0  0  0  0  0  0  0  0  0
    0.2685    4.8292    7.1628 H   0  0  0  0  0  0  0  0  0  0  0  0
   -1.4606    7.3198    8.2550 H   0  0  0  0  0  0  0  0  0  0  0  0
   -0.3598    8.4193    7.4294 H   0  0  0  0  0  0  0  0  0  0  0  0
    0.2729    6.9896    8.2617 H   0  0  0  0  0  0  0  0  0  0  0  0
   -1.7529    8.1199    5.3547 H   0  0  0  0  0  0  0  0  0  0  0  0
   -2.0872    6.7953    3.3159 H   0  0  0  0  0  0  0  0  0  0  0  0
   -2.2225    6.7487    0.2726 H   0  0  0  0  0  0  0  0  0  0  0  0
   -1.6779    8.8984    1.3302 H   0  0  0  0  0  0  0  0  0  0  0  0
    0.6138    9.3566    2.1038 H   0  0  0  0  0  0  0  0  0  0  0  0
    3.2601    6.8498    2.2672 H   0  0  0  0  0  0  0  0  0  0  0  0
    2.8179    8.5232    2.6359 H   0  0  0  0  0  0  0  0  0  0  0  0
    3.6194    7.4633   -0.1194 H   0  0  0  0  0  0  0  0  0  0  0  0
    3.1732    9.1324    0.2366 H   0  0  0  0  0  0  0  0  0  0  0  0
    4.6374    8.4413    0.9437 H   0  0  0  0  0  0  0  0  0  0  0  0
    1.8450    5.5212    0.7174 H   0  0  0  0  0  0  0  0  0  0  0  0
    5.9986   -6.6832   -7.0837 H   0  0  0  0  0  0  0  0  0  0  0  0
    8.2369   -7.5749   -7.6210 H   0  0  0  0  0  0  0  0  0  0  0  0
    9.9473   -7.7518   -5.8621 H   0  0  0  0  0  0  0  0  0  0  0  0
    9.6614   -6.2608   -2.5359 H   0  0  0  0  0  0  0  0  0  0  0  0
   10.7279   -7.1056   -3.6674 H   0  0  0  0  0  0  0  0  0  0  0  0
    9.4571   -9.2356   -3.2075 H   0  0  0  0  0  0  0  0  0  0  0  0
   10.2324   -8.5855   -1.7538 H   0  0  0  0  0  0  0  0  0  0  0  0
    8.4950   -8.3794   -2.0117 H   0  0  0  0  0  0  0  0  0  0  0  0
    7.2266   -6.0634   -3.0428 H   0  0  0  0  0  0  0  0  0  0  0  0
   -0.7933   -0.8538   -2.7726 H   0  0  0  0  0  0  0  0  0  0  0  0
   -1.3863    0.7946   -2.8596 H   0  0  0  0  0  0  0  0  0  0  0  0
    0.2314   -0.5237   -5.1024 H   0  0  0  0  0  0  0  0  0  0  0  0
   -1.5262   -0.3244   -5.0867 H   0  0  0  0  0  0  0  0  0  0  0  0
   -0.4712    1.0910   -5.1252 H   0  0  0  0  0  0  0  0  0  0  0  0
    0.0569   -2.3290   -3.6675 H   0  0  0  0  0  0  0  0  0  0  0  0
    0.9846   -3.8062   -3.4774 H   0  0  0  0  0  0  0  0  0  0  0  0
    1.6160   -3.2220   -1.1779 H   0  0  0  0  0  0  0  0  0  0  0  0
    0.7833   -1.6730   -1.2902 H   0  0  0  0  0  0  0  0  0  0  0  0
   -0.1408   -3.1816   -1.3379 H   0  0  0  0  0  0  0  0  0  0  0  0
   -0.9791   -9.7904   -3.5860 H   0  0  0  0  0  0  0  0  0  0  0  0
   -0.9795  -10.0137   -5.3467 H   0  0  0  0  0  0  0  0  0  0  0  0
   -0.6011  -11.3934   -4.2810 H   0  0  0  0  0  0  0  0  0  0  0  0
    4.2244  -12.5617   -4.1885 H   0  0  0  0  0  0  0  0  0  0  0  0
   10.2479  -11.0994   -5.2053 H   0  0  0  0  0  0  0  0  0  0  0  0
   12.5559  -11.9448   -5.4992 H   0  0  0  0  0  0  0  0  0  0  0  0
   14.1673  -13.8330   -5.4922 H   0  0  0  0  0  0  0  0  0  0  0  0
   11.0425  -16.5432   -4.4438 H   0  0  0  0  0  0  0  0  0  0  0  0
    8.7597  -15.7381   -4.1396 H   0  0  0  0  0  0  0  0  0  0  0  0
  1  2  2  0  0  0  0
  2  3  1  0  0  0  0
  3  4  2  0  0  0  0
  3  5  1  0  0  0  0
  5  6  2  0  0  0  0
  6  7  1  0  0  0  0
  7  8  2  0  0  0  0
  8  9  1  0  0  0  0
  9 10  2  0  0  0  0
 10 11  1  0  0  0  0
 10 12  1  0  0  0  0
 12 13  2  0  0  0  0
 13 14  1  0  0  0  0
 14 15  2  0  0  0  0
 15 16  1  0  0  0  0
 16 17  2  0  0  0  0
 17 18  1  0  0  0  0
 18 19  3  0  0  0  0
 17 20  1  0  0  0  0
 20 21  3  0  0  0  0
  1 22  1  0  0  0  0
 22 23  2  0  0  0  0
 23 24  1  0  0  0  0
 24 25  1  0  0  0  0
 25 26  2  0  0  0  0
 26 27  1  0  0  0  0
 27 28  2  0  0  0  0
 28 29  1  0  0  0  0
 28 30  1  0  0  0  0
 30 31  2  0  0  0  0
 24 32  1  0  0  0  0
 32 33  2  0  0  0  0
 33 34  1  0  0  0  0
 34 35  2  0  0  0  0
 35 36  1  0  0  0  0
 35 37  1  0  0  0  0
 37 38  2  0  0  0  0
 23 39  1  0  0  0  0
 39 40  1  0  0  0  0
 40 41  1  0  0  0  0
 41 42  2  0  0  0  0
 42 43  1  0  0  0  0
 43 44  1  0  0  0  0
 44 45  2  0  0  0  0
 45 46  1  0  0  0  0
 46 47  2  0  0  0  0
 47 48  1  0  0  0  0
 47 49  1  0  0  0  0
 49 50  2  0  0  0  0
 43 51  1  0  0  0  0
 51 52  2  0  0  0  0
 52 53  1  0  0  0  0
 53 54  2  0  0  0  0
 54 55  1  0  0  0  0
 54 56  1  0  0  0  0
 56 57  2  0  0  0  0
 42 58  1  0  0  0  0
 58 59  1  0  0  0  0
 41 60  1  0  0  0  0
 60 61  2  0  0  0  0
 61 62  1  0  0  0  0
 62 63  2  0  0  0  0
 63 64  1  0  0  0  0
 64 65  2  0  0  0  0
 65 66  1  0  0  0  0
 66 67  1  0  0  0  0
 67 68  1  0  0  0  0
 66 69  2  0  0  0  0
 61 70  1  0  0  0  0
 70 71  1  0  0  0  0
 71 72  1  0  0  0  0
 72 73  1  0  0  0  0
 73 74  1  0  0  0  0
 74 75  1  0  0  0  0
 75 76  2  0  0  0  0
 76 77  1  0  0  0  0
 77 78  1  0  0  0  0
 75 79  1  0  0  0  0
 79 80  1  0  0  0  0
 80 81  1  0  0  0  0
 81 82  1  0  0  0  0
 82 83  1  0  0  0  0
 83 84  1  0  0  0  0
 84 85  2  0  0  0  0
 85 86  1  0  0  0  0
 86 87  2  0  0  0  0
 87 88  1  0  0  0  0
 88 89  1  0  0  0  0
 89 90  1  0  0  0  0
 88 91  2  0  0  0  0
 83 92  2  0  0  0  0
 92 93  1  0  0  0  0
 93 94  1  0  0  0  0
 94 95  1  0  0  0  0
 95 96  1  0  0  0  0
 96 97  1  0  0  0  0
 97 98  1  0  0  0  0
 98 99  1  0  0  0  0
 99100  1  0  0  0  0
100101  1  0  0  0  0
101102  1  0  0  0  0
 99103  1  0  0  0  0
103104  1  0  0  0  0
 96105  1  0  0  0  0
105106  1  0  0  0  0
 92107  1  0  0  0  0
107108  2  0  0  0  0
108109  1  0  0  0  0
109110  2  0  0  0  0
109111  1  0  0  0  0
111112  1  0  0  0  0
111113  1  0  0  0  0
113114  2  0  0  0  0
113115  1  0  0  0  0
115116  2  0  0  0  0
116117  1  0  0  0  0
116118  1  0  0  0  0
118119  2  0  0  0  0
119120  1  0  0  0  0
120121  2  0  0  0  0
120122  1  0  0  0  0
122123  2  0  0  0  0
123124  1  0  0  0  0
124125  2  0  0  0  0
125126  1  0  0  0  0
126127  2  0  0  0  0
127128  1  0  0  0  0
127129  1  0  0  0  0
129130  2  0  0  0  0
130131  1  0  0  0  0
131132  2  0  0  0  0
132133  1  0  0  0  0
133134  2  0  0  0  0
134135  1  0  0  0  0
135136  3  0  0  0  0
134137  1  0  0  0  0
137138  3  0  0  0  0
 16  2  1  0  0  0  0
 59 22  1  0  0  0  0
102 60  1  0  0  0  0
117107  1  0  0  0  0
133119  1  0  0  0  0
 15  5  1  0  0  0  0
 31 25  1  0  0  0  0
 38 32  1  0  0  0  0
 58 39  2  0  0  0  0
 69 62  1  0  0  0  0
101 70  2  0  0  0  0
115108  1  0  0  0  0
132122  1  0  0  0  0
 13  7  1  0  0  0  0
 50 44  1  0  0  0  0
 57 51  1  0  0  0  0
100 72  2  0  0  0  0
130124  1  0  0  0  0
 98 73  2  0  0  0  0
 78 74  2  0  0  0  0
 97 79  2  0  0  0  0
 95 80  2  0  0  0  0
 94 82  2  0  0  0  0
 91 84  1  0  0  0  0
  1139  1  0  0  0  0
  6140  1  0  0  0  0
  8141  1  0  0  0  0
  9142  1  0  0  0  0
 12143  1  0  0  0  0
 14144  1  0  0  0  0
 26145  1  0  0  0  0
 27146  1  0  0  0  0
 29147  1  0  0  0  0
 29148  1  0  0  0  0
 29149  1  0  0  0  0
 30150  1  0  0  0  0
 31151  1  0  0  0  0
 33152  1  0  0  0  0
 34153  1  0  0  0  0
 36154  1  0  0  0  0
 36155  1  0  0  0  0
 36156  1  0  0  0  0
 37157  1  0  0  0  0
 38158  1  0  0  0  0
 45159  1  0  0  0  0
 46160  1  0  0  0  0
 48161  1  0  0  0  0
 48162  1  0  0  0  0
 48163  1  0  0  0  0
 49164  1  0  0  0  0
 50165  1  0  0  0  0
 52166  1  0  0  0  0
 53167  1  0  0  0  0
 55168  1  0  0  0  0
 55169  1  0  0  0  0
 55170  1  0  0  0  0
 56171  1  0  0  0  0
 57172  1  0  0  0  0
 63173  1  0  0  0  0
 64174  1  0  0  0  0
 65175  1  0  0  0  0
 67176  1  0  0  0  0
 67177  1  0  0  0  0
 68178  1  0  0  0  0
 68179  1  0  0  0  0
 68180  1  0  0  0  0
 69181  1  0  0  0  0
 85182  1  0  0  0  0
 86183  1  0  0  0  0
 87184  1  0  0  0  0
 89185  1  0  0  0  0
 89186  1  0  0  0  0
 90187  1  0  0  0  0
 90188  1  0  0  0  0
 90189  1  0  0  0  0
 91190  1  0  0  0  0
103191  1  0  0  0  0
103192  1  0  0  0  0
104193  1  0  0  0  0
104194  1  0  0  0  0
104195  1  0  0  0  0
105196  1  0  0  0  0
105197  1  0  0  0  0
106198  1  0  0  0  0
106199  1  0  0  0  0
106200  1  0  0  0  0
112201  1  0  0  0  0
112202  1  0  0  0  0
112203  1  0  0  0  0
118204  1  0  0  0  0
123205  1  0  0  0  0
125206  1  0  0  0  0
126207  1  0  0  0  0
129208  1  0  0  0  0
131209  1  0  0  0  0
M  END
