203

C          8.84920       -0.88780        1.22790
C          9.08460       -2.22750        0.99350
C          8.12150       -3.19450        0.46790
O          7.00600       -2.97990        0.02210
C          8.75720       -4.51850        0.60360
C          8.26010       -5.74460        0.27370
C          9.05320       -6.89260        0.50020
C          8.58990       -8.18480        0.18200
C          9.36620       -9.28780        0.40820
C         10.64010       -9.11580        0.96460
F         11.39060      -10.21320        1.18110
C         11.13810       -7.88490        1.29050
C         10.35200       -6.73860        1.06460
C         10.84160       -5.45110        1.39110
C         10.05450       -4.35490        1.16530
C         10.28390       -2.92720        1.38220
C         11.45280       -2.37930        1.85780
C         12.55320       -3.13530        2.30530
N         13.47610       -3.68860        2.70860
C         11.73700       -1.00440        1.94610
N         12.06340        0.09630        2.01930
C          7.73830       -0.10220        0.94240
C          7.61250        1.25020        1.36380
N          8.42010        1.87030        2.27380
C          9.01160        1.19180        3.35780
C         10.29000        1.54640        3.78020
C         10.87760        0.87700        4.83500
C         10.21810       -0.15860        5.48640
C         10.89300       -0.90880        6.59230
C          8.93080       -0.48500        5.07420
C          8.32440        0.18450        4.03050
C          8.60190        3.26540        2.19530
C          8.92300        3.85930        0.98030
C          9.14740        5.22060        0.91730
C          9.04240        6.01840        2.04890
C          9.27670        7.49600        1.98360
C          8.71100        5.41390        3.25780
C          8.49780        4.05370        3.33800
C          6.49000        1.85400        0.77160
S          5.76740        3.43060        0.86650
C          4.39660        2.87960       -0.08310
C          4.53530        1.56140       -0.49290
N          3.62080        0.88310       -1.27650
C          3.41550       -0.48800       -1.04780
C          3.37430       -0.98750        0.25130
C          3.22150       -2.34160        0.46760
C          3.09240       -3.22670       -0.59560
C          2.97360       -4.69830       -0.34450
C          3.10090       -2.71470       -1.88670
C          3.26240       -1.36300       -2.11770
C          2.87340        1.54780       -2.25990
C          3.45920        2.51570       -3.06930
C          2.69910        3.19590       -4.00020
C          1.33880        2.94980       -4.13570
C          0.49930        3.74650       -5.08650
C          0.76670        1.96160       -3.34220
C          1.51980        1.25930       -2.42410
C          5.73580        0.98700       -0.00950
S          6.38300       -0.61080       -0.06910
C          3.15270        3.59540       -0.22630
C          2.76440        4.70940       -0.93780
C          3.63720        5.64900       -1.64260
C          3.21300        6.19600       -2.85250
C          3.99470        7.12420       -3.51130
C          5.20830        7.51560       -2.97880
C          5.65980        6.97080       -1.78220
C          6.99780        7.38030       -1.23470
C          8.12760        6.91610       -2.15500
C          4.86620        6.04580       -1.12160
C          1.34850        4.81290       -0.97610
S          0.25280        5.92160       -1.77120
C         -1.08990        4.98390       -1.21230
C         -2.49190        4.94300       -1.32400
C         -3.42390        5.82930       -1.90700
C         -4.82660        5.52960       -1.81030
N         -5.58260        6.46930       -2.35500
S         -4.61700        7.62910       -2.94310
N         -3.19530        6.97570       -2.52800
C         -5.22510        4.29070       -1.26000
C         -6.46380        3.63030       -1.25170
S         -8.10050        3.91870       -1.73360
C         -8.48250        2.26060       -1.33460
C         -9.67100        1.51610       -1.41280
C        -10.96370        2.08950       -1.79510
C        -11.08900        2.84120       -2.95870
C        -12.31740        3.37700       -3.30040
C        -13.41780        3.18120       -2.48460
C        -13.30350        2.45560       -1.30390
C        -14.49570        2.22170       -0.42060
C        -15.19000        0.90710       -0.78260
C        -12.07230        1.91300       -0.97160
C         -9.47000        0.20480       -1.00490
S         -7.82280       -0.08910       -0.47390
C         -7.38830        1.54250       -0.83760
C         -6.23530        2.33350       -0.77830
N         -4.91160        2.18150       -0.45850
C         -4.27290        3.37510       -0.73220
C         -2.91730        3.77540       -0.63430
N         -1.81220        3.16390       -0.06380
C         -0.71040        3.89200       -0.43250
C          0.67960        3.80580       -0.28820
S          1.78040        2.71700        0.45950
C         -1.75660        2.37110        1.14550
C         -1.43040        3.24000        2.36040
C         -4.35880        0.86260       -0.24480
C         -4.70380        0.30860        1.13760
C        -10.37630       -0.88740       -1.03720
C        -11.51370       -0.99520       -1.82060
C        -12.18140       -2.19760       -1.63310
S        -13.65650       -2.67450       -2.42650
C        -13.88040       -1.36120       -3.68660
C        -15.12730       -1.67630       -4.49010
C        -11.55300       -3.05400       -0.69750
S        -10.10630       -2.29630       -0.06320
C        -12.04570       -4.31500       -0.38520
C        -11.55770       -5.28050        0.47210
C        -10.36000       -5.15700        1.29640
O         -9.59200       -4.21270        1.37360
C        -10.24640       -6.42950        2.04170
C         -9.28430       -6.81260        2.95150
C         -9.38400       -8.07520        3.52570
Cl        -8.20150       -8.59080        4.66250
C        -10.44190       -8.91500        3.17460
Br       -10.57690      -10.63340        3.95500
C        -11.41180       -8.52650        2.25720
C        -11.31340       -7.27070        1.68330
C        -12.14940       -6.57830        0.69980
C        -13.27500       -7.10570        0.11690
C        -14.09140       -6.47010       -0.84160
N        -14.81560       -6.03740       -1.62160
C        -13.77840       -8.39210        0.40070
N        -14.23720       -9.42800        0.58680
H          9.64720       -0.35740        1.73090
H          7.27460       -5.83930       -0.15730
H          7.60450       -8.29170       -0.24630
H          9.02630      -10.28340        0.17080
H         12.12450       -7.79010        1.71700
H         11.82980       -5.36960        1.81420
H         10.82410        2.33100        3.26810
H         11.87570        1.14940        5.14230
H         11.67480       -1.54940        6.18330
H         11.36260       -0.22110        7.29290
H         10.18520       -1.53350        7.13140
H          8.39070       -1.27160        5.58140
H          7.32180       -0.07750        3.72510
H          9.01830        3.24670        0.09580
H          9.42500        5.66400       -0.02580
H          8.35250        8.03400        2.19400
H         10.01190        7.79830        2.72750
H          9.63200        7.79260        1.00050
H          8.62260        6.01960        4.14780
H          8.24960        3.59180        4.28200
H          3.46260       -0.30710        1.08650
H          3.20400       -2.71970        1.47960
H          2.63200       -5.22150       -1.23420
H          3.94750       -5.09850       -0.06250
H          2.28150       -4.89890        0.47140
H          2.99610       -3.38510       -2.72770
H          3.28290       -0.97750       -3.12660
H          4.51100        2.73730       -2.96190
H          3.17540        3.93590       -4.62630
H         -0.01100        4.54830       -4.55000
H         -0.26090        3.12230       -5.55140
H          1.11240        4.19590       -5.86380
H         -0.28880        1.74830       -3.43770
H          1.06410        0.49610       -1.80970
H          2.27510        5.88810       -3.28400
H          3.65050        7.54810       -4.44320
H          5.80670        8.25570       -3.49000
H          7.03470        8.46940       -1.14660
H          7.13620        6.95150       -0.24080
H          8.13720        5.83030       -2.22110
H          7.99630        7.31540       -3.15770
H          9.09110        7.25570       -1.78060
H          5.19480        5.65110       -0.17180
H        -10.23050        2.99080       -3.59550
H        -12.41570        3.95330       -4.20830
H        -14.37320        3.60480       -2.75870
H        -14.17650        2.18130        0.62260
H        -15.20440        3.04460       -0.53020
H        -16.04310        0.73660       -0.13080
H        -15.54530        0.93680       -1.81090
H        -14.50230        0.07080       -0.67280
H        -11.96460        1.35060       -0.05490
H         -2.71680        1.89610        1.31060
H         -0.98430        1.60520        1.01990
H         -0.44760        3.69260        2.26280
H         -2.16990        4.03140        2.46570
H         -1.44080        2.62880        3.25870
H         -4.78810        0.19540       -1.00120
H         -3.28160        0.89950       -0.41020
H         -4.44030        1.00690        1.92910
H         -4.17270       -0.62470        1.30120
H         -5.77000        0.11230        1.20810
H        -11.81600       -0.22710       -2.50600
H        -12.99220       -1.35780       -4.31810
H        -13.97670       -0.40670       -3.17050
H        -15.28260       -0.90820       -5.24450
H        -15.02960       -2.63930       -4.98540
H        -15.99890       -1.71170       -3.84090
H        -12.95900       -4.55790       -0.91630
H         -8.47460       -6.14860        3.20930
H        -12.21140       -9.20810        2.01640
