270

C          8.40620       -0.64340        9.19340
C          9.66290       -0.09040        9.17250
C         10.70560       -0.59930       10.08780
O         10.55290       -1.35980       11.02130
C         11.97430       -0.02700        9.58620
C         13.25240       -0.26670        9.99650
C         14.32270        0.37420        9.33000
C         15.66130        0.16690        9.71870
C         16.69050        0.78460        9.06330
C         16.39560        1.63260        7.98850
F         17.42180        2.23130        7.35200
C         15.11570        1.86850        7.57040
C         14.04380        1.24520        8.23760
C         12.70650        1.48260        7.84010
C         11.68930        0.86520        8.51280
C         10.23880        0.94090        8.35370
C          9.56720        1.99040        7.76930
C         10.21160        3.05290        7.11440
N         10.68890        3.94780        6.57300
C          8.17750        2.18020        7.88240
N          7.05580        2.40140        8.00620
C          7.45610       -0.63670        8.16610
C          6.06040       -0.78560        8.27270
N          5.35650       -0.98440        9.42670
C          5.83630       -1.81020       10.45440
C          5.64710       -1.45760       11.78710
C          6.12240       -2.27770       12.79190
C          6.79380       -3.45870       12.49940
C          7.34350       -4.32670       13.58690
C          6.96720       -3.80830       11.16410
C          6.49280       -3.00190       10.15030
C          4.10090       -0.35970        9.56750
C          3.93760        0.96510        9.17030
C          2.70280        1.56920        9.29290
C          1.61440        0.88070        9.81730
C          0.27220        1.53730        9.91840
C          1.79630       -0.43510       10.22610
C          3.02370       -1.05620       10.10390
C          5.44110       -0.61090        7.01530
S          3.80120       -0.69300        6.46700
C          4.32160       -0.42410        4.81450
C          5.70340       -0.33850        4.69530
N          6.39380       -0.26120        3.50010
C          7.55680        0.52350        3.44860
C          7.60940        1.73440        4.13560
C          8.75660        2.50140        4.10440
C          9.87800        2.08690        3.39580
C         11.11130        2.93470        3.35790
C          9.81390        0.87960        2.70930
C          8.67300        0.10230        2.73180
C          5.95290       -0.99710        2.39210
C          5.33450       -2.23370        2.56640
C          4.83160       -2.92150        1.48180
C          4.94980       -2.41390        0.19390
C          4.40730       -3.16690       -0.98150
C          5.60480       -1.20180        0.02360
C          6.09190       -0.49240        1.10280
C          6.32160       -0.42140        5.96170
S          7.96310       -0.40320        6.48680
C          3.36640       -0.31230        3.76070
S          1.93550       -1.32110        3.74750
C          1.43670       -0.60030        2.27210
C          0.31870       -0.72180        1.39030
C          0.51580        0.21480        0.35000
C          1.78730        1.01880        0.57740
C          2.79580        0.95610       -0.55030
C          2.66200        0.08490       -1.62050
C          3.56590        0.11920       -2.66860
C          4.63190        1.00780       -2.66810
C          5.61220        1.04100       -3.80640
C          6.80140        0.11570       -3.53970
C          4.78820        1.84570       -1.57000
C          3.88330        1.82250       -0.52750
C          1.34330        2.45770        0.81100
C          1.14920        3.30380       -0.27420
C          0.69000        4.59320       -0.08780
C          0.40580        5.07360        1.18400
C         -0.04670        6.49090        1.38580
C          1.15970        7.41980        1.53610
C          0.59640        4.22380        2.26440
C          1.05250        2.93070        2.08260
C          2.31880        0.36930        1.82950
C          3.42180        0.52840        2.66730
C         -0.40770        0.34950       -0.66020
C         -1.52650       -0.47710       -0.61600
C         -2.64530       -0.59300       -1.49590
C         -3.54850       -1.53220       -1.02930
C         -3.01280       -2.19530        0.21300
C         -1.73030       -1.40460        0.43200
C         -0.80280       -1.54490        1.43780
C         -2.56010       -3.62660       -0.03610
C         -2.20280       -4.05930       -1.30600
C         -1.65590       -5.31540       -1.49240
C         -1.44400       -6.17160       -0.41940
C         -0.83130       -7.52780       -0.62680
C         -1.88370       -8.55910       -1.03690
C         -1.83030       -5.74540        0.84500
C         -2.37610       -4.48970        1.03690
C         -4.03610       -2.10790        1.32210
C         -5.12800       -2.96880        1.29470
C         -6.09890       -2.88490        2.27410
C         -5.98870       -1.94880        3.28810
C         -4.91070       -1.07610        3.32300
C         -4.75160       -0.08490        4.44030
C         -3.82750       -0.64580        5.52310
C         -3.94360       -1.16110        2.32910
C         -4.68970       -1.65050       -1.81660
C         -4.63140       -0.85040       -2.94510
S         -3.15990        0.12050       -2.96860
C         -5.51240       -0.71320       -4.05140
C         -6.74900       -1.28830       -4.35230
N         -7.48630       -2.18700       -3.59530
C         -6.92890       -3.33120       -3.02370
C         -5.78370       -3.92490       -3.55400
C         -5.21970       -5.02120       -2.93270
C         -5.77960       -5.56610       -1.78280
C         -5.14300       -6.73890       -1.10480
C         -6.93290       -4.98230       -1.27300
C         -7.50200       -3.87890       -1.87550
C         -8.88450       -2.00870       -3.58750
C         -9.41720       -0.73700       -3.39600
C        -10.78460       -0.54700       -3.41660
C        -11.65290       -1.61270       -3.61730
C        -13.13450       -1.40000       -3.66520
C        -11.11160       -2.88040       -3.79910
C         -9.74650       -3.08250       -3.79010
C         -7.24190       -0.79940       -5.58560
S         -8.64690       -1.16490       -6.51920
C         -8.12840       -0.04240       -7.79130
C         -6.85030        0.50600       -7.51560
N         -6.06320        1.22560       -8.36290
C         -6.15390        1.14200       -9.75760
C         -5.95880        2.28430      -10.53190
C         -6.08890        2.22420      -11.90690
C         -6.41010        1.03440      -12.54620
C         -6.60980        0.97270      -14.02740
C         -6.55170       -0.11330      -11.76870
C         -6.42500       -0.06770      -10.39690
C         -5.05810        2.05520       -7.81300
C         -5.37170        2.95670       -6.80060
C         -4.37930        3.74290       -6.25180
C         -3.06400        3.65190       -6.69520
C         -1.99180        4.48120       -6.05990
C         -2.77010        2.76580       -7.72430
C         -3.75320        1.97260       -8.28400
C         -6.40910        0.09730       -6.23950
S         -4.96640        0.37160       -5.32770
C         -8.99550        0.13170       -8.86200
C         -8.99330        1.20120       -9.74560
C         -8.52160        2.53990       -9.38560
O         -8.08600        2.90790       -8.31100
C         -8.81270        3.39010      -10.56740
C         -9.43810        2.61200      -11.55690
C         -9.81470        3.18720      -12.75730
C         -9.54340        4.53330      -12.96290
C         -8.90910        5.29070      -11.99250
Br        -8.53320        7.11140      -12.34480
C         -8.53660        4.72950      -10.76650
Cl        -7.73720        5.65870       -9.56740
C         -9.53480        1.23590      -11.06760
C         -9.90750        0.14520      -11.81980
C         -9.83940       -1.18300      -11.35800
N         -9.77820       -2.28970      -11.05520
C        -10.31070        0.21610      -13.16410
N        -10.62650        0.21920      -14.26940
H          8.17060       -1.20210       10.09270
H         13.44900       -0.93750       10.81940
H         15.86350       -0.49240       10.54960
H         17.71970        0.63720        9.35000
H         14.92530        2.53170        6.74110
H         12.52070        2.14000        7.00540
H          5.13780       -0.53590       12.02600
H          5.97840       -1.98780       13.82240
H          7.19950       -5.37930       13.35210
H          6.86900       -4.10740       14.54000
H          8.41430       -4.15050       13.68950
H          7.48060       -4.72560       10.91670
H          6.62910       -3.28500        9.11650
H          4.78110        1.51440        8.77820
H          2.58460        2.59690        8.98280
H         -0.32080        1.09200       10.71350
H          0.37550        2.60330       10.10760
H         -0.27150        1.41340        8.98110
H          0.96340       -0.98550       10.63910
H          3.15270       -2.08190       10.41670
H          6.74710        2.07370        4.69200
H          8.78150        3.44030        4.63720
H         11.99900        2.32300        3.21080
H         11.05040        3.64550        2.53280
H         11.21260        3.50090        4.28130
H         10.67530        0.53670        2.15390
H          8.64070       -0.83830        2.20150
H          5.24240       -2.65210        3.55810
H          4.33910       -3.87040        1.63920
H          4.16070       -2.48390       -1.79060
H          5.14930       -3.87730       -1.34810
H          3.51480       -3.72430       -0.70440
H          5.71560       -0.79300       -0.96780
H          6.57340        0.46230        0.95140
H          1.84010       -0.61500       -1.64890
H          3.42970       -0.54760       -3.50940
H          5.97800        2.06070       -3.94430
H          5.11600        0.72950       -4.72800
H          7.50640        0.15790       -4.36680
H          7.31870        0.41300       -2.62990
H          6.46610       -0.91320       -3.42550
H          5.62000        2.53530       -1.54060
H          4.00400        2.50300        0.30280
H          1.36880        2.95510       -1.27290
H          0.54670        5.23620       -0.94470
H         -0.66700        6.55830        2.28180
H         -0.64460        6.81330        0.53090
H          1.75750        7.12660        2.39600
H          1.78840        7.36890        0.64990
H          0.83420        8.44830        1.67300
H          0.38120        4.57510        3.26370
H          1.18390        2.28970        2.94180
H          4.21200        1.24170        2.52400
H         -0.28250        1.06230       -1.46070
H         -0.93240       -2.25460        2.24070
H         -2.34050       -3.40830       -2.15630
H         -1.37170       -5.62930       -2.48710
H         -0.34830       -7.85590        0.29580
H         -0.06900       -7.46720       -1.40680
H         -1.42170       -9.53240       -1.18530
H         -2.64610       -8.65130       -0.26670
H         -2.36560       -8.25990       -1.96460
H         -1.68680       -6.39840        1.69440
H         -2.65800       -4.17610        2.03150
H         -5.21030       -3.70560        0.50890
H         -6.94620       -3.55450        2.24810
H         -6.74790       -1.89240        4.05510
H         -5.72590        0.14050        4.87840
H         -4.32710        0.84350        4.05230
H         -2.84260       -0.85320        5.11050
H         -4.23360       -1.57230        5.92330
H         -3.71920        0.06630        6.33800
H         -3.10780       -0.47600        2.34630
H         -5.51900       -2.27950       -1.56860
H         -5.33810       -3.51780       -4.44950
H         -4.32730       -5.46580       -3.34780
H         -4.20040       -6.43860       -0.64770
H         -4.93020       -7.52810       -1.82360
H         -5.79160       -7.13840       -0.32910
H         -7.38810       -5.38900       -0.38130
H         -8.38400       -3.42210       -1.45190
H         -8.75260        0.09930       -3.23310
H        -11.18340        0.44650       -3.27050
H        -13.66350       -2.26000       -3.26090
H        -13.41890       -0.51310       -3.10410
H        -13.45620       -1.26400       -4.69830
H        -11.76980       -3.72120       -3.96310
H         -9.33960       -4.07020       -3.94820
H         -5.71890        3.21860      -10.04690
H         -5.95330        3.12380      -12.48950
H         -6.32860        1.91080      -14.49850
H         -7.65650        0.77180      -14.25820
H         -6.01830        0.16810      -14.46070
H         -6.77210       -1.05620      -12.24770
H         -6.53970       -0.97060       -9.81620
H         -6.39680        3.04380       -6.47610
H         -4.62830        4.44170       -5.46670
H         -1.70630        4.04300       -5.10320
H         -1.10790        4.52830       -6.69090
H         -2.34650        5.49220       -5.87120
H         -1.75630        2.68800       -8.08910
H         -3.51440        1.28140       -9.07930
H         -9.75840       -0.62850       -8.97840
H        -10.31040        2.62120      -13.52820
H         -9.82400        5.00160      -13.89380
