205

C          1.95080        4.08790       -8.36160
C          2.45650        3.22930       -9.31820
C          3.45080        2.18060       -9.09850
O          3.94230        1.81890       -8.04150
C          3.77730        1.64010      -10.43140
C          4.65210        0.64790      -10.76220
C          4.80410        0.28930      -12.12110
C          5.69140       -0.72960      -12.52110
C          5.82700       -1.06940      -13.83890
C          5.06560       -0.38580      -14.79530
F          5.21040       -0.73510      -16.08840
C          4.19210        0.61150      -14.46140
C          4.04010        0.97410      -13.10930
C          3.14020        2.00010      -12.73320
C          3.00940        2.32910      -11.41150
C          2.16000        3.30300      -10.72700
C          1.22690        4.10450      -11.34410
C          1.05260        4.18090      -12.73930
N          0.87140        4.30870      -13.86680
C          0.29310        4.92830      -10.69030
N         -0.52990        5.59410      -10.23960
C          2.12300        4.10560       -6.98290
C          1.50520        5.06770       -6.13520
N          0.89330        6.21630       -6.55080
C          1.33940        6.95320       -7.66590
C          2.69780        7.05860       -7.95370
C          3.11500        7.77200       -9.05940
C          2.20060        8.41060       -9.88950
C          2.64660        9.15910      -11.10700
C          0.85010        8.32980       -9.57070
C          0.41610        7.60850       -8.47660
C         -0.14400        6.76090       -5.76710
C         -1.15560        5.93900       -5.27620
C         -2.15880        6.47180       -4.49340
C         -2.18630        7.82850       -4.18690
C         -3.27770        8.38580       -3.32650
C         -1.18600        8.64260       -4.70160
C         -0.17330        8.12170       -5.48330
C          1.60540        4.67720       -4.78950
S          1.06060        5.35730       -3.28910
C          1.79420        4.03550       -2.39820
C          2.49040        3.16630       -3.22790
N          3.26900        2.11260       -2.78640
C          3.41220        0.99570       -3.63020
C          4.66500        0.44420       -3.87520
C          4.79290       -0.61510       -4.75110
C          3.68730       -1.14560       -5.40360
C          3.83610       -2.25270       -6.40080
C          2.43680       -0.60350       -5.13360
C          2.29390        0.45110       -4.25490
C          4.02350        2.21210       -1.61140
C          4.53380        3.43400       -1.17750
C          5.23630        3.51320        0.00750
C          5.45330        2.38880        0.79430
C          6.16630        2.49850        2.10710
C          4.97240        1.16770        0.33810
C          4.26620        1.07400       -0.84510
C          2.35220        3.52280       -4.59030
S          2.95260        2.84600       -6.06030
C          1.58670        3.82700       -0.99360
C          1.79010        4.64260        0.09750
C          2.20800        6.04660        0.07270
C          3.29520        6.45120        0.84230
C          3.68770        7.77570        0.83730
C          3.00420        8.70370        0.07100
C          1.90220        8.32140       -0.68310
C          1.18750        9.31320       -1.55410
C          1.88660        9.40720       -2.91120
C          1.50650        6.99250       -0.66450
C          1.58380        3.94030        1.30620
S          1.72870        4.41330        2.98080
C          1.20150        2.83210        3.45240
C          0.95650        2.09220        4.62520
C          1.20160        2.33320        5.99670
C          0.97430        1.27560        6.95030
N          1.32530        1.62200        8.17800
S          1.88300        3.14150        8.14720
N          1.70300        3.41910        6.56290
C          0.36440        0.07530        6.51820
C         -0.12190       -1.06010        7.19200
S         -0.13740       -1.73400        8.78620
C         -1.07860       -3.07960        8.18740
C         -1.57750       -4.24160        8.80220
C         -1.26390       -4.63230       10.17490
C         -1.35740       -3.71430       11.21670
C         -1.05320       -4.10780       12.50570
C         -0.65060       -5.40650       12.76560
C         -0.52690       -6.32860       11.73390
C         -0.12910       -7.75150       12.00270
C         -1.36360       -8.65530       12.02670
C         -0.83030       -5.92770       10.44250
C         -2.28260       -5.02320        7.89650
S         -2.26730       -4.35010        6.27000
C         -1.35550       -2.99050        6.81860
C         -0.80170       -1.84110        6.24910
N         -0.73170       -1.25370        5.00920
C          0.00980       -0.09640        5.15550
C          0.46600        0.83250        4.19740
N          0.48190        0.77250        2.81570
C          0.92890        1.99080        2.36880
C          1.17050        2.62090        1.14130
S          1.07610        2.20080       -0.52800
C          0.67330       -0.41880        2.01360
C          2.15310       -0.63520        1.70330
C         -1.77100       -1.48340        4.02540
C         -3.15100       -1.14280        4.58730
C         -2.99510       -6.23370        8.07410
Se        -3.19040       -7.43780        6.63290
C         -4.18990       -8.57010        7.78870
C         -4.29180       -7.96230        9.06300
C         -4.96270       -8.34760       10.24800
C         -4.86070       -7.42330       11.23990
C         -5.47410       -7.47200       12.59420
C         -6.71990       -6.58500       12.66290
S         -3.92550       -6.02530       10.77240
C         -3.64740       -6.71270        9.19980
C         -4.77820       -9.79540        7.52140
C         -4.81710      -10.53840        6.35140
C         -4.19690      -10.14660        5.10530
O         -3.54970       -9.12700        4.87960
C         -4.49080      -11.22120        4.13610
C         -4.12330      -11.31740        2.81140
C         -4.54000      -12.44730        2.11830
Br        -4.06590      -12.63650        0.28720
C         -5.29350      -13.43930        2.72710
C         -5.65760      -13.33090        4.06310
C         -5.25460      -12.21410        4.77670
C         -5.47210      -11.80970        6.16900
C         -6.17840      -12.53320        7.09990
C         -6.39480      -12.15110        8.43860
N         -6.61900      -11.90510        9.53930
C         -6.78870      -13.77600        6.83710
N         -7.31230      -14.78700        6.68730
H          1.30370        4.87070       -8.73580
H          5.22120        0.14060       -9.99720
H          6.26730       -1.24210      -11.76500
H          6.50130       -1.84680      -14.16140
H          3.62200        1.11670      -15.22540
H          2.57760        2.49830      -13.50630
H          3.42110        6.57360       -7.31450
H          4.17140        7.83860       -9.27610
H          3.72810        9.26700      -11.12650
H          2.33690        8.62570      -12.00580
H          2.19290       10.14810      -11.13710
H          0.12390        8.82090      -10.20040
H         -0.63670        7.53640       -8.25460
H         -1.15140        4.88650       -5.51870
H         -2.93820        5.82600       -4.11620
H         -3.28940        7.88680       -2.35820
H         -4.24850        8.22430       -3.79360
H         -3.14320        9.45240       -3.16690
H         -1.19390        9.70040       -4.48290
H          0.60290        8.76360       -5.87240
H          5.53490        0.86060       -3.38890
H          5.77380       -1.02470       -4.94440
H          3.01740       -2.96480       -6.31810
H          3.81890       -1.83760       -7.40900
H          4.77800       -2.77840       -6.26450
H          1.56330       -1.01040       -5.62230
H          1.31700        0.86560       -4.05050
H          4.38540        4.32270       -1.77300
H          5.63030        4.46880        0.32140
H          6.93410        3.26800        2.06790
H          6.62750        1.55250        2.38060
H          5.45950        2.77010        2.89290
H          5.14740        0.27490        0.92160
H          3.88980        0.11950       -1.18310
H          3.82890        5.72420        1.43480
H          4.53220        8.08690        1.43460
H          3.32040        9.73700        0.06740
H          1.18670       10.29570       -1.07760
H          0.15310        8.99960       -1.70640
H          1.85990        8.44120       -3.41060
H          2.92570        9.70220       -2.78270
H          1.39330       10.13990       -3.54470
H          0.62220        6.69530       -1.20870
H         -1.68620       -2.70630       11.01560
H         -1.13430       -3.39740       13.31490
H         -0.42210       -5.70640       13.77820
H          0.55280       -8.09790       11.22310
H          0.38640       -7.81830       12.96230
H         -1.87390       -8.63140       11.06610
H         -2.06180       -8.32320       12.79220
H         -1.07920       -9.68290       12.23960
H         -0.72370       -6.63020        9.62720
H          0.11090       -0.30390        1.08150
H          0.30370       -1.28460        2.55960
H          2.55150        0.19180        1.12260
H          2.72000       -0.71810        2.62850
H          2.27650       -1.55180        1.13330
H         -1.74270       -2.53510        3.72270
H         -1.58770       -0.84800        3.16080
H         -3.40390       -1.78890        5.42290
H         -3.90030       -1.27410        3.81170
H         -3.17350       -0.10870        4.92480
H         -5.50300       -9.27020       10.36680
H         -4.74930       -7.12740       13.33570
H         -5.74470       -8.50410       12.82400
H         -7.15730       -6.63060       13.65660
H         -6.46030       -5.55190       12.44290
H         -7.46100       -6.91870       11.94050
H         -5.28510      -10.22820        8.37420
H         -3.53750      -10.54330        2.34090
H         -5.59990      -14.30320        2.15760
H         -6.24320      -14.11420        4.51530
