
  xtb     02072210493D
 energy: -418.936449294630 gnorm: 0.000698679935 xtb: 6.4.1 (unknown)
252278  0     0  0            999 V2000
   -3.1578    8.4441    8.4286 C   0  0  0  0  0  0  0  0  0  0  0  0
   -2.2985    9.5183    8.5499 C   0  0  0  0  0  0  0  0  0  0  0  0
   -1.1863    9.8395    7.6567 C   0  0  0  0  0  0  0  0  0  0  0  0
   -0.8820    9.2972    6.6065 O   0  0  0  0  0  0  0  0  0  0  0  0
   -0.4608   10.9555    8.2926 C   0  0  0  0  0  0  0  0  0  0  0  0
    0.6532   11.6106    7.8581 C   0  0  0  0  0  0  0  0  0  0  0  0
    1.1833   12.6615    8.6409 C   0  0  0  0  0  0  0  0  0  0  0  0
    2.3318   13.3735    8.2413 C   0  0  0  0  0  0  0  0  0  0  0  0
    2.8354   14.3874    9.0086 C   0  0  0  0  0  0  0  0  0  0  0  0
    2.1894   14.7130   10.2079 C   0  0  0  0  0  0  0  0  0  0  0  0
    2.6998   15.7139   10.9514 F   0  0  0  0  0  0  0  0  0  0  0  0
    1.0719   14.0551   10.6412 C   0  0  0  0  0  0  0  0  0  0  0  0
    0.5398   13.0089    9.8633 C   0  0  0  0  0  0  0  0  0  0  0  0
   -0.6184   12.3124   10.2846 C   0  0  0  0  0  0  0  0  0  0  0  0
   -1.1129   11.2987    9.5100 C   0  0  0  0  0  0  0  0  0  0  0  0
   -2.2775   10.4284    9.6677 C   0  0  0  0  0  0  0  0  0  0  0  0
   -3.1855   10.5073   10.6985 C   0  0  0  0  0  0  0  0  0  0  0  0
   -4.3813    9.7730   10.7977 C   0  0  0  0  0  0  0  0  0  0  0  0
   -5.3920    9.2428   10.9424 N   0  0  0  0  0  0  0  0  0  0  0  0
   -3.0543   11.3741   11.8005 C   0  0  0  0  0  0  0  0  0  0  0  0
   -2.9982   12.0361   12.7380 N   0  0  0  0  0  0  0  0  0  0  0  0
   -3.2861    7.5000    7.4167 C   0  0  0  0  0  0  0  0  0  0  0  0
   -4.1920    6.4059    7.4841 C   0  0  0  0  0  0  0  0  0  0  0  0
   -4.8886    6.0158    8.5938 N   0  0  0  0  0  0  0  0  0  0  0  0
   -4.3557    6.1036    9.8944 C   0  0  0  0  0  0  0  0  0  0  0  0
   -5.1930    6.3893   10.9697 C   0  0  0  0  0  0  0  0  0  0  0  0
   -4.6717    6.4744   12.2452 C   0  0  0  0  0  0  0  0  0  0  0  0
   -3.3147    6.2891   12.4818 C   0  0  0  0  0  0  0  0  0  0  0  0
   -2.7615    6.4297   13.8661 C   0  0  0  0  0  0  0  0  0  0  0  0
   -2.4916    5.9841   11.4037 C   0  0  0  0  0  0  0  0  0  0  0  0
   -3.0003    5.8808   10.1247 C   0  0  0  0  0  0  0  0  0  0  0  0
   -6.1325    5.3763    8.4225 C   0  0  0  0  0  0  0  0  0  0  0  0
   -6.4417    4.2262    9.1435 C   0  0  0  0  0  0  0  0  0  0  0  0
   -7.6669    3.6161    8.9743 C   0  0  0  0  0  0  0  0  0  0  0  0
   -8.6104    4.1288    8.0892 C   0  0  0  0  0  0  0  0  0  0  0  0
   -9.9325    3.4451    7.9211 C   0  0  0  0  0  0  0  0  0  0  0  0
   -8.2920    5.2759    7.3744 C   0  0  0  0  0  0  0  0  0  0  0  0
   -7.0695    5.8985    7.5365 C   0  0  0  0  0  0  0  0  0  0  0  0
   -4.2600    5.7406    6.2493 C   0  0  0  0  0  0  0  0  0  0  0  0
   -5.1523    4.3747    5.6631 S   0  0  0  0  0  0  0  0  0  0  0  0
   -4.3284    4.4757    4.1171 C   0  0  0  0  0  0  0  0  0  0  0  0
   -3.4437    5.5425    4.0588 C   0  0  0  0  0  0  0  0  0  0  0  0
   -2.7152    5.9058    2.9403 N   0  0  0  0  0  0  0  0  0  0  0  0
   -3.2553    5.8053    1.6541 C   0  0  0  0  0  0  0  0  0  0  0  0
   -4.6189    5.9791    1.4268 C   0  0  0  0  0  0  0  0  0  0  0  0
   -5.1350    5.8346    0.1552 C   0  0  0  0  0  0  0  0  0  0  0  0
   -4.3204    5.5081   -0.9219 C   0  0  0  0  0  0  0  0  0  0  0  0
   -4.9038    5.2866   -2.2838 C   0  0  0  0  0  0  0  0  0  0  0  0
   -2.9567    5.3710   -0.6938 C   0  0  0  0  0  0  0  0  0  0  0  0
   -2.4254    5.5174    0.5724 C   0  0  0  0  0  0  0  0  0  0  0  0
   -1.4566    6.5008    3.1428 C   0  0  0  0  0  0  0  0  0  0  0  0
   -0.5779    5.9600    4.0776 C   0  0  0  0  0  0  0  0  0  0  0  0
    0.6267    6.5811    4.3356 C   0  0  0  0  0  0  0  0  0  0  0  0
    0.9898    7.7433    3.6666 C   0  0  0  0  0  0  0  0  0  0  0  0
    2.2713    8.4405    4.0032 C   0  0  0  0  0  0  0  0  0  0  0  0
    0.1226    8.2545    2.7098 C   0  0  0  0  0  0  0  0  0  0  0  0
   -1.0892    7.6470    2.4468 C   0  0  0  0  0  0  0  0  0  0  0  0
   -3.4064    6.2551    5.2816 C   0  0  0  0  0  0  0  0  0  0  0  0
   -2.4667    7.5850    5.8532 S   0  0  0  0  0  0  0  0  0  0  0  0
   -4.4891    3.4909    3.0838 C   0  0  0  0  0  0  0  0  0  0  0  0
   -5.6013    3.0697    2.3908 C   0  0  0  0  0  0  0  0  0  0  0  0
   -6.9926    3.4635    2.6274 C   0  0  0  0  0  0  0  0  0  0  0  0
   -7.5857    3.3472    3.8795 C   0  0  0  0  0  0  0  0  0  0  0  0
   -8.9124    3.6971    4.0480 C   0  0  0  0  0  0  0  0  0  0  0  0
   -9.6596    4.1510    2.9760 C   0  0  0  0  0  0  0  0  0  0  0  0
   -9.0904    4.2485    1.7124 C   0  0  0  0  0  0  0  0  0  0  0  0
   -9.9083    4.6613    0.5228 C   0  0  0  0  0  0  0  0  0  0  0  0
  -10.4314    3.4249   -0.2112 C   0  0  0  0  0  0  0  0  0  0  0  0
   -7.7597    3.8971    1.5508 C   0  0  0  0  0  0  0  0  0  0  0  0
   -5.2451    2.1957    1.3383 C   0  0  0  0  0  0  0  0  0  0  0  0
   -6.1873    1.3789    0.1156 S   0  0  0  0  0  0  0  0  0  0  0  0
   -4.7439    0.6148   -0.4609 C   0  0  0  0  0  0  0  0  0  0  0  0
   -4.3410   -0.3041   -1.4507 C   0  0  0  0  0  0  0  0  0  0  0  0
   -4.9919   -0.8991   -2.5555 C   0  0  0  0  0  0  0  0  0  0  0  0
   -4.2285   -1.7126   -3.4710 C   0  0  0  0  0  0  0  0  0  0  0  0
   -4.9545   -2.1312   -4.4952 N   0  0  0  0  0  0  0  0  0  0  0  0
   -6.4632   -1.5689   -4.3250 S   0  0  0  0  0  0  0  0  0  0  0  0
   -6.2513   -0.7611   -2.9378 N   0  0  0  0  0  0  0  0  0  0  0  0
   -2.8858   -2.0283   -3.1614 C   0  0  0  0  0  0  0  0  0  0  0  0
   -1.9397   -2.9090   -3.7237 C   0  0  0  0  0  0  0  0  0  0  0  0
   -1.7441   -3.9250   -5.1131 S   0  0  0  0  0  0  0  0  0  0  0  0
   -0.1652   -4.3923   -4.5344 C   0  0  0  0  0  0  0  0  0  0  0  0
    0.8522   -5.2206   -5.0565 C   0  0  0  0  0  0  0  0  0  0  0  0
    0.7498   -6.0553   -6.2520 C   0  0  0  0  0  0  0  0  0  0  0  0
    1.3304   -7.3224   -6.2690 C   0  0  0  0  0  0  0  0  0  0  0  0
    1.2413   -8.1105   -7.4002 C   0  0  0  0  0  0  0  0  0  0  0  0
    0.5942   -7.6400   -8.5287 C   0  0  0  0  0  0  0  0  0  0  0  0
   -0.0066   -6.3874   -8.5245 C   0  0  0  0  0  0  0  0  0  0  0  0
   -0.6630   -5.8575   -9.7663 C   0  0  0  0  0  0  0  0  0  0  0  0
    0.3889   -5.2660  -10.7077 C   0  0  0  0  0  0  0  0  0  0  0  0
    0.0580   -5.6148   -7.3756 C   0  0  0  0  0  0  0  0  0  0  0  0
    1.9693   -5.2001   -4.2456 C   0  0  0  0  0  0  0  0  0  0  0  0
    1.7406   -4.2557   -2.7836 S   0  0  0  0  0  0  0  0  0  0  0  0
    0.1676   -3.7933   -3.3203 C   0  0  0  0  0  0  0  0  0  0  0  0
   -0.8428   -2.9420   -2.8594 C   0  0  0  0  0  0  0  0  0  0  0  0
   -1.0485   -2.0969   -1.7974 N   0  0  0  0  0  0  0  0  0  0  0  0
   -2.2860   -1.5100   -1.9868 C   0  0  0  0  0  0  0  0  0  0  0  0
   -2.9561   -0.5176   -1.2419 C   0  0  0  0  0  0  0  0  0  0  0  0
   -2.5067    0.2994   -0.2209 N   0  0  0  0  0  0  0  0  0  0  0  0
   -3.6001    0.9811    0.2540 C   0  0  0  0  0  0  0  0  0  0  0  0
   -3.8857    1.9049    1.2676 C   0  0  0  0  0  0  0  0  0  0  0  0
   -3.0010    2.7594    2.4755 S   0  0  0  0  0  0  0  0  0  0  0  0
   -1.1767    0.8609   -0.1025 C   0  0  0  0  0  0  0  0  0  0  0  0
   -1.1069    2.2439   -0.7477 C   0  0  0  0  0  0  0  0  0  0  0  0
   -0.4081   -2.3517   -0.5230 C   0  0  0  0  0  0  0  0  0  0  0  0
   -0.7150   -3.7623   -0.0206 C   0  0  0  0  0  0  0  0  0  0  0  0
    3.2762   -5.6750   -4.5936 C   0  0  0  0  0  0  0  0  0  0  0  0
    3.9578   -5.3685   -5.7630 C   0  0  0  0  0  0  0  0  0  0  0  0
    3.5153   -4.4907   -6.7390 N   0  0  0  0  0  0  0  0  0  0  0  0
    2.7800   -3.3530   -6.3732 C   0  0  0  0  0  0  0  0  0  0  0  0
    3.0850   -2.6574   -5.2062 C   0  0  0  0  0  0  0  0  0  0  0  0
    2.2886   -1.6078   -4.7892 C   0  0  0  0  0  0  0  0  0  0  0  0
    1.1780   -1.2133   -5.5215 C   0  0  0  0  0  0  0  0  0  0  0  0
    0.2750   -0.1176   -5.0429 C   0  0  0  0  0  0  0  0  0  0  0  0
    0.9235   -1.8632   -6.7246 C   0  0  0  0  0  0  0  0  0  0  0  0
    1.7118   -2.9113   -7.1514 C   0  0  0  0  0  0  0  0  0  0  0  0
    3.7612   -4.7797   -8.0889 C   0  0  0  0  0  0  0  0  0  0  0  0
    3.9900   -3.7502   -9.0000 C   0  0  0  0  0  0  0  0  0  0  0  0
    4.2142   -4.0382  -10.3297 C   0  0  0  0  0  0  0  0  0  0  0  0
    4.2322   -5.3509  -10.7903 C   0  0  0  0  0  0  0  0  0  0  0  0
    4.4761   -5.6398  -12.2399 C   0  0  0  0  0  0  0  0  0  0  0  0
    4.0217   -6.3702   -9.8731 C   0  0  0  0  0  0  0  0  0  0  0  0
    3.7862   -6.0954   -8.5400 C   0  0  0  0  0  0  0  0  0  0  0  0
    5.2103   -6.0265   -5.7941 C   0  0  0  0  0  0  0  0  0  0  0  0
    6.5240   -6.0258   -6.9084 S   0  0  0  0  0  0  0  0  0  0  0  0
    7.4474   -7.1145   -5.8580 C   0  0  0  0  0  0  0  0  0  0  0  0
    6.7733   -7.3750   -4.6464 C   0  0  0  0  0  0  0  0  0  0  0  0
    7.2765   -7.9983   -3.5401 N   0  0  0  0  0  0  0  0  0  0  0  0
    6.3782   -8.5944   -2.6258 C   0  0  0  0  0  0  0  0  0  0  0  0
    5.3716   -9.4408   -3.0799 C   0  0  0  0  0  0  0  0  0  0  0  0
    4.4989  -10.0144   -2.1777 C   0  0  0  0  0  0  0  0  0  0  0  0
    4.6087   -9.7647   -0.8138 C   0  0  0  0  0  0  0  0  0  0  0  0
    3.6385  -10.3753    0.1498 C   0  0  0  0  0  0  0  0  0  0  0  0
    5.6274   -8.9295   -0.3724 C   0  0  0  0  0  0  0  0  0  0  0  0
    6.5071   -8.3465   -1.2641 C   0  0  0  0  0  0  0  0  0  0  0  0
    8.6439   -8.0594   -3.2449 C   0  0  0  0  0  0  0  0  0  0  0  0
    9.4942   -6.9852   -3.5064 C   0  0  0  0  0  0  0  0  0  0  0  0
   10.8446   -7.0896   -3.2489 C   0  0  0  0  0  0  0  0  0  0  0  0
   11.3914   -8.2559   -2.7181 C   0  0  0  0  0  0  0  0  0  0  0  0
   12.8676   -8.3755   -2.5069 C   0  0  0  0  0  0  0  0  0  0  0  0
   10.5306   -9.3006   -2.4094 C   0  0  0  0  0  0  0  0  0  0  0  0
    9.1757   -9.2112   -2.6671 C   0  0  0  0  0  0  0  0  0  0  0  0
    5.4916   -6.7769   -4.6605 C   0  0  0  0  0  0  0  0  0  0  0  0
    4.2076   -6.6796   -3.5011 S   0  0  0  0  0  0  0  0  0  0  0  0
    8.6990   -7.5253   -6.3246 C   0  0  0  0  0  0  0  0  0  0  0  0
    9.3825   -8.6524   -5.9244 C   0  0  0  0  0  0  0  0  0  0  0  0
    8.7420   -9.8655   -5.3781 C   0  0  0  0  0  0  0  0  0  0  0  0
    7.5548  -10.0626   -5.2095 O   0  0  0  0  0  0  0  0  0  0  0  0
    9.8465  -10.8334   -5.2028 C   0  0  0  0  0  0  0  0  0  0  0  0
   10.0172  -12.1374   -4.7169 C   0  0  0  0  0  0  0  0  0  0  0  0
   11.3374  -12.4957   -4.7530 C   0  0  0  0  0  0  0  0  0  0  0  0
   11.9943  -13.9835   -4.2413 Cl  0  0  0  0  0  0  0  0  0  0  0  0
   12.3887  -11.2536   -5.3843 S   0  0  0  0  0  0  0  0  0  0  0  0
   11.0254  -10.2367   -5.6102 C   0  0  0  0  0  0  0  0  0  0  0  0
   10.7977   -8.8902   -6.0647 C   0  0  0  0  0  0  0  0  0  0  0  0
   11.7830   -7.9944   -6.4064 C   0  0  0  0  0  0  0  0  0  0  0  0
   13.1382   -8.3712   -6.3796 C   0  0  0  0  0  0  0  0  0  0  0  0
   14.2453   -8.6738   -6.3363 N   0  0  0  0  0  0  0  0  0  0  0  0
   11.5599   -6.6450   -6.7297 C   0  0  0  0  0  0  0  0  0  0  0  0
   11.4411   -5.5292   -6.9753 N   0  0  0  0  0  0  0  0  0  0  0  0
   -3.8441    8.3021    9.2534 H   0  0  0  0  0  0  0  0  0  0  0  0
    1.1239   11.3346    6.9262 H   0  0  0  0  0  0  0  0  0  0  0  0
    2.8120   13.1041    7.3124 H   0  0  0  0  0  0  0  0  0  0  0  0
    3.7133   14.9419    8.7170 H   0  0  0  0  0  0  0  0  0  0  0  0
    0.5998   14.3337   11.5704 H   0  0  0  0  0  0  0  0  0  0  0  0
   -1.0826   12.6028   11.2132 H   0  0  0  0  0  0  0  0  0  0  0  0
   -6.2443    6.5580   10.7984 H   0  0  0  0  0  0  0  0  0  0  0  0
   -5.3284    6.7099   13.0688 H   0  0  0  0  0  0  0  0  0  0  0  0
   -2.7927    7.4747   14.1750 H   0  0  0  0  0  0  0  0  0  0  0  0
   -3.3551    5.8573   14.5766 H   0  0  0  0  0  0  0  0  0  0  0  0
   -1.7306    6.0880   13.9126 H   0  0  0  0  0  0  0  0  0  0  0  0
   -1.4366    5.8168   11.5668 H   0  0  0  0  0  0  0  0  0  0  0  0
   -2.3491    5.6356    9.2984 H   0  0  0  0  0  0  0  0  0  0  0  0
   -5.7161    3.8169    9.8306 H   0  0  0  0  0  0  0  0  0  0  0  0
   -7.8969    2.7224    9.5360 H   0  0  0  0  0  0  0  0  0  0  0  0
  -10.3875    3.2510    8.8908 H   0  0  0  0  0  0  0  0  0  0  0  0
  -10.6151    4.0522    7.3317 H   0  0  0  0  0  0  0  0  0  0  0  0
   -9.7994    2.4852    7.4212 H   0  0  0  0  0  0  0  0  0  0  0  0
   -9.0099    5.6980    6.6866 H   0  0  0  0  0  0  0  0  0  0  0  0
   -6.8396    6.7994    6.9868 H   0  0  0  0  0  0  0  0  0  0  0  0
   -5.2732    6.2338    2.2477 H   0  0  0  0  0  0  0  0  0  0  0  0
   -6.1925    5.9879   -0.0027 H   0  0  0  0  0  0  0  0  0  0  0  0
   -5.2568    4.2579   -2.3740 H   0  0  0  0  0  0  0  0  0  0  0  0
   -4.1607    5.4572   -3.0591 H   0  0  0  0  0  0  0  0  0  0  0  0
   -5.7512    5.9469   -2.4552 H   0  0  0  0  0  0  0  0  0  0  0  0
   -2.2993    5.1399   -1.5200 H   0  0  0  0  0  0  0  0  0  0  0  0
   -1.3642    5.4006    0.7375 H   0  0  0  0  0  0  0  0  0  0  0  0
   -0.8526    5.0564    4.6032 H   0  0  0  0  0  0  0  0  0  0  0  0
    1.2942    6.1614    5.0743 H   0  0  0  0  0  0  0  0  0  0  0  0
    2.5479    9.1502    3.2273 H   0  0  0  0  0  0  0  0  0  0  0  0
    3.0813    7.7256    4.1351 H   0  0  0  0  0  0  0  0  0  0  0  0
    2.1486    8.9846    4.9398 H   0  0  0  0  0  0  0  0  0  0  0  0
    0.3886    9.1548    2.1748 H   0  0  0  0  0  0  0  0  0  0  0  0
   -1.7650    8.0657    1.7154 H   0  0  0  0  0  0  0  0  0  0  0  0
   -7.0215    2.9549    4.7113 H   0  0  0  0  0  0  0  0  0  0  0  0
   -9.3654    3.6030    5.0228 H   0  0  0  0  0  0  0  0  0  0  0  0
  -10.6969    4.4203    3.1163 H   0  0  0  0  0  0  0  0  0  0  0  0
  -10.7510    5.2763    0.8445 H   0  0  0  0  0  0  0  0  0  0  0  0
   -9.2959    5.2517   -0.1621 H   0  0  0  0  0  0  0  0  0  0  0  0
   -9.6028    2.8026   -0.5417 H   0  0  0  0  0  0  0  0  0  0  0  0
  -11.0172    3.7170   -1.0796 H   0  0  0  0  0  0  0  0  0  0  0  0
  -11.0606    2.8324    0.4492 H   0  0  0  0  0  0  0  0  0  0  0  0
   -7.3053    3.9644    0.5737 H   0  0  0  0  0  0  0  0  0  0  0  0
    1.8327   -7.6948   -5.3884 H   0  0  0  0  0  0  0  0  0  0  0  0
    1.6848   -9.0958   -7.4031 H   0  0  0  0  0  0  0  0  0  0  0  0
    0.5436   -8.2531   -9.4167 H   0  0  0  0  0  0  0  0  0  0  0  0
   -1.1893   -6.6645  -10.2805 H   0  0  0  0  0  0  0  0  0  0  0  0
   -1.3905   -5.0876   -9.5029 H   0  0  0  0  0  0  0  0  0  0  0  0
   -0.0792   -4.8941  -11.6161 H   0  0  0  0  0  0  0  0  0  0  0  0
    1.1261   -6.0191  -10.9764 H   0  0  0  0  0  0  0  0  0  0  0  0
    0.9146   -4.4434  -10.2273 H   0  0  0  0  0  0  0  0  0  0  0  0
   -0.4251   -4.6497   -7.3545 H   0  0  0  0  0  0  0  0  0  0  0  0
   -0.9211    0.9341    0.9595 H   0  0  0  0  0  0  0  0  0  0  0  0
   -0.4669    0.2068   -0.6061 H   0  0  0  0  0  0  0  0  0  0  0  0
   -1.7809    2.9360   -0.2513 H   0  0  0  0  0  0  0  0  0  0  0  0
   -1.3823    2.1802   -1.7986 H   0  0  0  0  0  0  0  0  0  0  0  0
   -0.0945    2.6314   -0.6730 H   0  0  0  0  0  0  0  0  0  0  0  0
    0.6733   -2.2294   -0.6441 H   0  0  0  0  0  0  0  0  0  0  0  0
   -0.7783   -1.6388    0.2113 H   0  0  0  0  0  0  0  0  0  0  0  0
   -0.2684   -3.9038    0.9596 H   0  0  0  0  0  0  0  0  0  0  0  0
   -1.7906   -3.9048    0.0602 H   0  0  0  0  0  0  0  0  0  0  0  0
   -0.3121   -4.5127   -0.6947 H   0  0  0  0  0  0  0  0  0  0  0  0
    3.9396   -2.9536   -4.6150 H   0  0  0  0  0  0  0  0  0  0  0  0
    2.5319   -1.0971   -3.8681 H   0  0  0  0  0  0  0  0  0  0  0  0
    0.5169    0.1667   -4.0214 H   0  0  0  0  0  0  0  0  0  0  0  0
   -0.7652   -0.4392   -5.0792 H   0  0  0  0  0  0  0  0  0  0  0  0
    0.3738    0.7626   -5.6785 H   0  0  0  0  0  0  0  0  0  0  0  0
    0.0787   -1.5558   -7.3240 H   0  0  0  0  0  0  0  0  0  0  0  0
    1.4929   -3.4156   -8.0796 H   0  0  0  0  0  0  0  0  0  0  0  0
    3.9921   -2.7260   -8.6573 H   0  0  0  0  0  0  0  0  0  0  0  0
    4.3870   -3.2298  -11.0256 H   0  0  0  0  0  0  0  0  0  0  0  0
    3.7360   -5.1337  -12.8587 H   0  0  0  0  0  0  0  0  0  0  0  0
    5.4601   -5.2790  -12.5373 H   0  0  0  0  0  0  0  0  0  0  0  0
    4.4253   -6.7073  -12.4382 H   0  0  0  0  0  0  0  0  0  0  0  0
    4.0332   -7.3991  -10.2028 H   0  0  0  0  0  0  0  0  0  0  0  0
    3.6046   -6.9024   -7.8472 H   0  0  0  0  0  0  0  0  0  0  0  0
    5.3065   -9.6597   -4.1342 H   0  0  0  0  0  0  0  0  0  0  0  0
    3.7224  -10.6745   -2.5359 H   0  0  0  0  0  0  0  0  0  0  0  0
    2.7009   -9.8190    0.1344 H   0  0  0  0  0  0  0  0  0  0  0  0
    4.0296  -10.3546    1.1639 H   0  0  0  0  0  0  0  0  0  0  0  0
    3.4190  -11.4052   -0.1238 H   0  0  0  0  0  0  0  0  0  0  0  0
    5.7329   -8.7274    0.6836 H   0  0  0  0  0  0  0  0  0  0  0  0
    7.2945   -7.6962   -0.9116 H   0  0  0  0  0  0  0  0  0  0  0  0
    9.0948   -6.0704   -3.9178 H   0  0  0  0  0  0  0  0  0  0  0  0
   11.4907   -6.2526   -3.4706 H   0  0  0  0  0  0  0  0  0  0  0  0
   13.3736   -8.5196   -3.4627 H   0  0  0  0  0  0  0  0  0  0  0  0
   13.1028   -9.2222   -1.8674 H   0  0  0  0  0  0  0  0  0  0  0  0
   13.2676   -7.4692   -2.0569 H   0  0  0  0  0  0  0  0  0  0  0  0
   10.9258  -10.2084   -1.9769 H   0  0  0  0  0  0  0  0  0  0  0  0
    8.5219  -10.0387   -2.4364 H   0  0  0  0  0  0  0  0  0  0  0  0
    9.1480   -6.8934   -7.0818 H   0  0  0  0  0  0  0  0  0  0  0  0
    9.2299  -12.7719   -4.3558 H   0  0  0  0  0  0  0  0  0  0  0  0
  1  2  2  0  0  0  0
  2  3  1  0  0  0  0
  3  4  2  0  0  0  0
  3  5  1  0  0  0  0
  5  6  2  0  0  0  0
  6  7  1  0  0  0  0
  7  8  2  0  0  0  0
  8  9  1  0  0  0  0
  9 10  2  0  0  0  0
 10 11  1  0  0  0  0
 10 12  1  0  0  0  0
 12 13  2  0  0  0  0
 13 14  1  0  0  0  0
 14 15  2  0  0  0  0
 15 16  1  0  0  0  0
 16 17  2  0  0  0  0
 17 18  1  0  0  0  0
 18 19  3  0  0  0  0
 17 20  1  0  0  0  0
 20 21  3  0  0  0  0
  1 22  1  0  0  0  0
 22 23  2  0  0  0  0
 23 24  1  0  0  0  0
 24 25  1  0  0  0  0
 25 26  2  0  0  0  0
 26 27  1  0  0  0  0
 27 28  2  0  0  0  0
 28 29  1  0  0  0  0
 28 30  1  0  0  0  0
 30 31  2  0  0  0  0
 24 32  1  0  0  0  0
 32 33  2  0  0  0  0
 33 34  1  0  0  0  0
 34 35  2  0  0  0  0
 35 36  1  0  0  0  0
 35 37  1  0  0  0  0
 37 38  2  0  0  0  0
 23 39  1  0  0  0  0
 39 40  1  0  0  0  0
 40 41  1  0  0  0  0
 41 42  2  0  0  0  0
 42 43  1  0  0  0  0
 43 44  1  0  0  0  0
 44 45  2  0  0  0  0
 45 46  1  0  0  0  0
 46 47  2  0  0  0  0
 47 48  1  0  0  0  0
 47 49  1  0  0  0  0
 49 50  2  0  0  0  0
 43 51  1  0  0  0  0
 51 52  2  0  0  0  0
 52 53  1  0  0  0  0
 53 54  2  0  0  0  0
 54 55  1  0  0  0  0
 54 56  1  0  0  0  0
 56 57  2  0  0  0  0
 42 58  1  0  0  0  0
 58 59  1  0  0  0  0
 41 60  1  0  0  0  0
 60 61  2  0  0  0  0
 61 62  1  0  0  0  0
 62 63  2  0  0  0  0
 63 64  1  0  0  0  0
 64 65  2  0  0  0  0
 65 66  1  0  0  0  0
 66 67  1  0  0  0  0
 67 68  1  0  0  0  0
 66 69  2  0  0  0  0
 61 70  1  0  0  0  0
 70 71  1  0  0  0  0
 71 72  1  0  0  0  0
 72 73  1  0  0  0  0
 73 74  1  0  0  0  0
 74 75  1  0  0  0  0
 75 76  2  0  0  0  0
 76 77  1  0  0  0  0
 77 78  1  0  0  0  0
 75 79  1  0  0  0  0
 79 80  1  0  0  0  0
 80 81  1  0  0  0  0
 81 82  1  0  0  0  0
 82 83  1  0  0  0  0
 83 84  1  0  0  0  0
 84 85  2  0  0  0  0
 85 86  1  0  0  0  0
 86 87  2  0  0  0  0
 87 88  1  0  0  0  0
 88 89  1  0  0  0  0
 89 90  1  0  0  0  0
 88 91  2  0  0  0  0
 83 92  2  0  0  0  0
 92 93  1  0  0  0  0
 93 94  1  0  0  0  0
 94 95  1  0  0  0  0
 95 96  1  0  0  0  0
 96 97  1  0  0  0  0
 97 98  1  0  0  0  0
 98 99  1  0  0  0  0
 99100  1  0  0  0  0
100101  1  0  0  0  0
101102  1  0  0  0  0
 99103  1  0  0  0  0
103104  1  0  0  0  0
 96105  1  0  0  0  0
105106  1  0  0  0  0
 92107  1  0  0  0  0
107108  2  0  0  0  0
108109  1  0  0  0  0
109110  1  0  0  0  0
110111  2  0  0  0  0
111112  1  0  0  0  0
112113  2  0  0  0  0
113114  1  0  0  0  0
113115  1  0  0  0  0
115116  2  0  0  0  0
109117  1  0  0  0  0
117118  2  0  0  0  0
118119  1  0  0  0  0
119120  2  0  0  0  0
120121  1  0  0  0  0
120122  1  0  0  0  0
122123  2  0  0  0  0
108124  1  0  0  0  0
124125  1  0  0  0  0
125126  1  0  0  0  0
126127  2  0  0  0  0
127128  1  0  0  0  0
128129  1  0  0  0  0
129130  2  0  0  0  0
130131  1  0  0  0  0
131132  2  0  0  0  0
132133  1  0  0  0  0
132134  1  0  0  0  0
134135  2  0  0  0  0
128136  1  0  0  0  0
136137  2  0  0  0  0
137138  1  0  0  0  0
138139  2  0  0  0  0
139140  1  0  0  0  0
139141  1  0  0  0  0
141142  2  0  0  0  0
127143  1  0  0  0  0
143144  1  0  0  0  0
126145  1  0  0  0  0
145146  2  0  0  0  0
146147  1  0  0  0  0
147148  2  0  0  0  0
147149  1  0  0  0  0
149150  1  0  0  0  0
150151  2  0  0  0  0
151152  1  0  0  0  0
151153  1  0  0  0  0
153154  1  0  0  0  0
154155  1  0  0  0  0
155156  2  0  0  0  0
156157  1  0  0  0  0
157158  3  0  0  0  0
156159  1  0  0  0  0
159160  3  0  0  0  0
 16  2  1  0  0  0  0
 59 22  1  0  0  0  0
102 60  1  0  0  0  0
144107  1  0  0  0  0
155146  1  0  0  0  0
 15  5  1  0  0  0  0
 31 25  1  0  0  0  0
 38 32  1  0  0  0  0
 58 39  2  0  0  0  0
 69 62  1  0  0  0  0
101 70  2  0  0  0  0
116110  1  0  0  0  0
123117  1  0  0  0  0
143124  2  0  0  0  0
154149  2  0  0  0  0
 13  7  1  0  0  0  0
 50 44  1  0  0  0  0
 57 51  1  0  0  0  0
100 72  2  0  0  0  0
135129  1  0  0  0  0
142136  1  0  0  0  0
 98 73  2  0  0  0  0
 78 74  2  0  0  0  0
 97 79  2  0  0  0  0
 95 80  2  0  0  0  0
 94 82  2  0  0  0  0
 91 84  1  0  0  0  0
  1161  1  0  0  0  0
  6162  1  0  0  0  0
  8163  1  0  0  0  0
  9164  1  0  0  0  0
 12165  1  0  0  0  0
 14166  1  0  0  0  0
 26167  1  0  0  0  0
 27168  1  0  0  0  0
 29169  1  0  0  0  0
 29170  1  0  0  0  0
 29171  1  0  0  0  0
 30172  1  0  0  0  0
 31173  1  0  0  0  0
 33174  1  0  0  0  0
 34175  1  0  0  0  0
 36176  1  0  0  0  0
 36177  1  0  0  0  0
 36178  1  0  0  0  0
 37179  1  0  0  0  0
 38180  1  0  0  0  0
 45181  1  0  0  0  0
 46182  1  0  0  0  0
 48183  1  0  0  0  0
 48184  1  0  0  0  0
 48185  1  0  0  0  0
 49186  1  0  0  0  0
 50187  1  0  0  0  0
 52188  1  0  0  0  0
 53189  1  0  0  0  0
 55190  1  0  0  0  0
 55191  1  0  0  0  0
 55192  1  0  0  0  0
 56193  1  0  0  0  0
 57194  1  0  0  0  0
 63195  1  0  0  0  0
 64196  1  0  0  0  0
 65197  1  0  0  0  0
 67198  1  0  0  0  0
 67199  1  0  0  0  0
 68200  1  0  0  0  0
 68201  1  0  0  0  0
 68202  1  0  0  0  0
 69203  1  0  0  0  0
 85204  1  0  0  0  0
 86205  1  0  0  0  0
 87206  1  0  0  0  0
 89207  1  0  0  0  0
 89208  1  0  0  0  0
 90209  1  0  0  0  0
 90210  1  0  0  0  0
 90211  1  0  0  0  0
 91212  1  0  0  0  0
103213  1  0  0  0  0
103214  1  0  0  0  0
104215  1  0  0  0  0
104216  1  0  0  0  0
104217  1  0  0  0  0
105218  1  0  0  0  0
105219  1  0  0  0  0
106220  1  0  0  0  0
106221  1  0  0  0  0
106222  1  0  0  0  0
111223  1  0  0  0  0
112224  1  0  0  0  0
114225  1  0  0  0  0
114226  1  0  0  0  0
114227  1  0  0  0  0
115228  1  0  0  0  0
116229  1  0  0  0  0
118230  1  0  0  0  0
119231  1  0  0  0  0
121232  1  0  0  0  0
121233  1  0  0  0  0
121234  1  0  0  0  0
122235  1  0  0  0  0
123236  1  0  0  0  0
130237  1  0  0  0  0
131238  1  0  0  0  0
133239  1  0  0  0  0
133240  1  0  0  0  0
133241  1  0  0  0  0
134242  1  0  0  0  0
135243  1  0  0  0  0
137244  1  0  0  0  0
138245  1  0  0  0  0
140246  1  0  0  0  0
140247  1  0  0  0  0
140248  1  0  0  0  0
141249  1  0  0  0  0
142250  1  0  0  0  0
145251  1  0  0  0  0
150252  1  0  0  0  0
M  END
