242

C          3.88850       -8.13970       -6.15810
C          4.43290       -8.20430       -7.40540
C          5.27910       -9.37650       -7.75910
O          5.46900      -10.36090       -7.08000
C          5.85930       -9.05900       -9.07750
C          6.79350       -9.74750       -9.79620
C          7.21660       -9.23670      -11.04390
C          8.18220       -9.90320      -11.82580
C          8.58920       -9.39480      -13.02800
C          8.02940       -8.19200      -13.47950
F          8.44480       -7.70410      -14.66390
C          7.08820       -7.50720      -12.76300
C          6.65590       -8.01740      -11.52330
C          5.68090       -7.33330      -10.76190
C          5.28990       -7.84560       -9.55540
C          4.32350       -7.36210       -8.57170
C          3.32750       -6.45770       -8.83630
C          2.30470       -6.10670       -7.93470
N          1.43000       -5.79150       -7.26050
C          3.15440       -5.83440      -10.08850
N          2.95010       -5.32130      -11.09560
C          3.40170       -7.03400       -5.41680
C          3.98480       -5.78980       -5.18180
N          5.22910       -5.37150       -5.64680
C          5.38710       -4.91800       -6.96960
C          4.44030       -4.07370       -7.54090
C          4.61810       -3.61100       -8.83110
C          5.73440       -3.97510       -9.57640
C          5.89270       -3.47530      -10.97810
C          6.67570       -4.81520       -8.99240
C          6.50990       -5.28470       -7.70370
C          6.18550       -5.03360       -4.67960
C          6.23520       -5.74380       -3.48090
C          7.16760       -5.41920       -2.51690
C          8.08310       -4.39320       -2.71790
C          9.07860       -4.03220       -1.65860
C          8.03330       -3.69710       -3.91930
C          7.09820       -4.00250       -4.88780
C          3.25340       -5.07170       -4.20890
S          3.40790       -3.48660       -3.53580
C          1.91990       -3.70670       -2.64730
C          1.32920       -4.93210       -2.86920
N          0.14040       -5.37530       -2.30710
C          0.09740       -6.68110       -1.80450
C         -1.06570       -7.44410       -1.88320
C         -1.08830       -8.72850       -1.38060
C          0.04140       -9.29870       -0.80310
C          0.00420      -10.70180       -0.27950
C          1.20090       -8.53860       -0.74260
C          1.23220       -7.24510       -1.22640
C         -0.98860       -4.54590       -2.29040
C         -1.88000       -4.58800       -1.21900
C         -2.96650       -3.74080       -1.18470
C         -3.20080       -2.82870       -2.20880
C         -4.39490       -1.92430       -2.16750
C         -2.31330       -2.79650       -3.27580
C         -1.21950       -3.64190       -3.32380
C          2.12250       -5.71870       -3.74440
S          1.97530       -7.29550       -4.41930
C          1.39220       -2.60520       -1.80720
C          2.37640       -1.54420       -1.43020
C          2.39450       -1.25300       -0.12490
S          3.20360       -0.01660        0.79950
C          2.24870       -0.43490        2.34260
C          1.54570        0.72100        2.99570
C          2.15200        2.02330        3.06780
C          2.21930        2.84360        4.16450
C          2.72700        4.13180        3.89560
C          2.88450        5.17600        4.95710
C          4.31030        5.19770        5.50900
C          3.05530        4.29670        2.57710
C          3.60440        5.51450        1.91240
C          3.31670        5.55570        0.41650
S          2.77510        2.84990        1.66660
C          0.32790        0.48200        3.57390
C         -0.30840       -0.81870        3.54350
C          0.18130       -1.85890        2.80400
C         -0.46090       -3.13800        2.64150
C          0.15840       -4.34150        2.42230
C         -0.73100       -5.42410        2.26020
C         -0.26640       -6.82970        2.03260
C         -0.02860       -7.55710        3.35630
C         -2.04140       -5.04160        2.35820
S         -2.18680       -3.34090        2.64900
C         -3.25530       -5.90210        2.22000
C         -4.52490       -5.22570        2.72100
C          1.31970       -1.55590        1.97270
C          1.49140       -2.00670        0.70840
S          0.70730       -3.26040       -0.20110
S         -1.88480       -0.81860        4.33520
C         -1.81280        0.91770        4.49600
C         -2.79550        1.88650        4.74130
C         -2.30630        3.15090        4.53210
S         -0.58550        3.14590        4.19270
C         -0.58170        1.42850        4.13240
C         -2.99150        4.39580        4.38840
C         -2.74590        5.30140        3.36370
N         -1.91100        5.08880        2.27540
C         -1.85650        3.83690        1.64440
C         -0.66070        3.36400        1.10720
C         -0.58370        2.09060        0.57920
C         -1.68670        1.24730        0.57290
C         -1.59870       -0.14870        0.03770
C         -2.88650        1.73830        1.07630
C         -2.97950        3.01290        1.59840
C         -1.03440        6.12050        1.90930
C         -0.42630        6.90070        2.88910
C          0.44430        7.91100        2.53140
C          0.73770        8.16650        1.19800
C          1.67600        9.26940        0.81420
C          0.12190        7.38530        0.22630
C         -0.75660        6.37780        0.56950
C         -3.52890        6.46570        3.53010
S         -3.67920        7.95130        2.67270
C         -4.99440        8.46140        3.72530
C         -5.26680        7.51840        4.71830
N         -6.09480        7.71580        5.82080
C         -5.50000        7.62790        7.08660
C         -4.19140        8.07450        7.26810
C         -3.59220        7.98910        8.50750
C         -4.27400        7.47140        9.60300
C         -3.61640        7.40410       10.94730
C         -5.57950        7.03680        9.41580
C         -6.18790        7.10410        8.17790
C         -7.49280        7.63050        5.69850
C         -8.07150        6.63030        4.92370
C         -9.44790        6.54000        4.82970
C        -10.27420        7.43430        5.50220
C        -11.76040        7.32830        5.36640
C         -9.68340        8.42530        6.27810
C         -8.30940        8.52890        6.37780
C         -4.40280        6.40800        4.60510
S         -4.25730        4.92060        5.48020
C         -5.45110        9.79490        3.59130
C         -6.70000       10.32890        3.71170
C         -6.83700       11.78040        4.00930
O         -5.94350       12.59540        4.06350
C         -8.27670       11.99290        4.25920
C         -8.93230       13.12960        4.69350
C        -10.30540       13.07570        4.87420
C        -10.99020       11.89440        4.61340
Cl       -12.69450       11.83830        4.86320
C        -10.34590       10.74790        4.16120
C         -8.97470       10.80330        3.98990
C         -8.02380        9.78420        3.54190
C         -8.35820        8.66020        2.83270
C         -7.42130        7.77350        2.26710
N         -6.70840        7.02810        1.76260
C         -9.68250        8.31200        2.49820
N        -10.73720        7.99990        2.16810
H          3.88030       -9.08720       -5.62320
H          7.20660      -10.67050       -9.41770
H          8.59900      -10.82840      -11.45710
H          9.32690       -9.89200      -13.63750
H          6.67340       -6.58700      -13.14400
H          5.27770       -6.41110      -11.14630
H          3.57590       -3.77450       -6.96640
H          3.87890       -2.95600       -9.26840
H          6.78050       -3.89420      -11.44540
H          5.97530       -2.38920      -10.98650
H          5.01610       -3.74330      -11.56800
H          7.54910       -5.11280       -9.55530
H          7.24670       -5.93450       -7.25460
H          5.54440       -6.55690       -3.31090
H          7.18950       -5.97980       -1.59340
H          8.64870       -3.29460       -0.97970
H          9.35640       -4.90580       -1.07330
H          9.97490       -3.60170       -2.09880
H          8.73190       -2.89240       -4.09790
H          7.06740       -3.43510       -5.80580
H         -1.94730       -7.02560       -2.34500
H         -1.99920       -9.30640       -1.44620
H         -0.92420      -10.88970        0.25640
H          0.84090      -10.88990        0.38890
H          0.06190      -11.41150       -1.10520
H          2.09200       -8.95860       -0.29830
H          2.13710       -6.66030       -1.14540
H         -1.68900       -5.26930       -0.40470
H         -3.63750       -3.77430       -0.33890
H         -4.64010       -1.65440       -1.14260
H         -5.26070       -2.42980       -2.59730
H         -4.21890       -1.01690       -2.74130
H         -2.47710       -2.10040       -4.08620
H         -0.54780       -3.61330       -4.17000
H          0.52050       -2.15300       -2.30920
H          2.95790       -1.05560       -2.19020
H          3.02370       -0.79260        3.03840
H          1.94300        2.51570        5.15160
H          2.63750        6.15770        4.54730
H          2.18500        4.96180        5.76720
H          4.56690        4.22770        5.92880
H          5.02100        5.42770        4.71890
H          4.40450        5.94900        6.28960
H          4.68810        5.55440        2.07050
H          3.17080        6.39720        2.39090
H          2.24410        5.54400        0.23700
H          3.76250        4.69760       -0.08180
H          3.72880        6.46260       -0.01940
H          1.22840       -4.45230        2.40950
H         -1.00260       -7.37700        1.44080
H          0.66350       -6.80420        1.46250
H         -0.94540       -7.60280        3.94000
H          0.72310       -7.03590        3.94480
H          0.31560       -8.57180        3.17130
H         -3.09300       -6.83050        2.77440
H         -3.38250       -6.17530        1.16590
H         -4.72500       -4.31940        2.15380
H         -4.42290       -4.95390        3.76910
H         -5.37570       -5.89470        2.61580
H         -3.82170        1.67190        4.97530
H          0.21950        3.98750        1.13810
H          0.36130        1.74270        0.18620
H         -2.23820       -0.26770       -0.83580
H         -1.92510       -0.87140        0.78490
H         -0.57790       -0.38760       -0.24970
H         -3.76300        1.10660        1.06610
H         -3.92310        3.37140        1.98240
H         -0.62700        6.69810        3.93140
H          0.91110        8.50680        3.30330
H          2.42750        9.42810        1.58470
H          2.17460        9.04520       -0.12580
H          1.12350       10.20110        0.68780
H          0.33070        7.57310       -0.81720
H         -1.23160        5.78190       -0.19540
H         -3.64780        8.49420        6.43420
H         -2.57670        8.33770        8.62920
H         -2.59890        7.02820       10.85920
H         -3.56720        8.39860       11.39170
H         -4.17350        6.75720       11.62030
H         -6.12980        6.62520       10.24960
H         -7.19640        6.74000        8.05260
H         -7.44010        5.92170        4.40800
H         -9.88990        5.76170        4.22510
H        -12.26170        8.12760        5.90660
H        -12.04040        7.38010        4.31410
H        -12.11080        6.37250        5.75400
H        -10.30630        9.13190        6.80760
H         -7.85770        9.30100        6.98330
H         -4.66530       10.52980        3.42870
H         -8.37840       14.03500        4.88700
H        -10.84880       13.94210        5.21680
H        -10.91050        9.85110        3.97100
