
  xtb     02082200113D
 energy: -342.004733151432 gnorm: 0.000754981246 xtb: 6.4.1 (unknown)
202224  0     0  0            999 V2000
   -6.0901   -6.5018   -2.5624 C   0  0  0  0  0  0  0  0  0  0  0  0
   -6.5093   -7.3305   -1.5371 C   0  0  0  0  0  0  0  0  0  0  0  0
   -6.7884   -6.9277   -0.1615 C   0  0  0  0  0  0  0  0  0  0  0  0
   -6.6525   -5.8247    0.3450 O   0  0  0  0  0  0  0  0  0  0  0  0
   -7.3051   -8.1282    0.5217 C   0  0  0  0  0  0  0  0  0  0  0  0
   -7.7005   -8.2708    1.8186 C   0  0  0  0  0  0  0  0  0  0  0  0
   -8.1651   -9.5303    2.2616 C   0  0  0  0  0  0  0  0  0  0  0  0
   -8.5816   -9.7378    3.5915 C   0  0  0  0  0  0  0  0  0  0  0  0
   -9.0297  -10.9613    4.0073 C   0  0  0  0  0  0  0  0  0  0  0  0
   -9.0702  -12.0152    3.0859 C   0  0  0  0  0  0  0  0  0  0  0  0
   -9.5148  -13.2134    3.5127 F   0  0  0  0  0  0  0  0  0  0  0  0
   -8.6774  -11.8677    1.7847 C   0  0  0  0  0  0  0  0  0  0  0  0
   -8.2121  -10.6153    1.3401 C   0  0  0  0  0  0  0  0  0  0  0  0
   -7.7926  -10.4346   -0.0001 C   0  0  0  0  0  0  0  0  0  0  0  0
   -7.3424   -9.2075   -0.4046 C   0  0  0  0  0  0  0  0  0  0  0  0
   -6.8242   -8.7285   -1.6863 C   0  0  0  0  0  0  0  0  0  0  0  0
   -6.6448   -9.5129   -2.8033 C   0  0  0  0  0  0  0  0  0  0  0  0
   -6.0094   -9.1155   -3.9935 C   0  0  0  0  0  0  0  0  0  0  0  0
   -5.4701   -8.8925   -4.9851 N   0  0  0  0  0  0  0  0  0  0  0  0
   -7.0450  -10.8599   -2.8920 C   0  0  0  0  0  0  0  0  0  0  0  0
   -7.3657  -11.9540   -3.0373 N   0  0  0  0  0  0  0  0  0  0  0  0
   -5.6983   -5.1708   -2.5393 C   0  0  0  0  0  0  0  0  0  0  0  0
   -5.2377   -4.4718   -3.6928 C   0  0  0  0  0  0  0  0  0  0  0  0
   -5.3675   -4.8948   -4.9846 N   0  0  0  0  0  0  0  0  0  0  0  0
   -4.4465   -4.4296   -5.9467 C   0  0  0  0  0  0  0  0  0  0  0  0
   -3.0794   -4.4791   -5.6880 C   0  0  0  0  0  0  0  0  0  0  0  0
   -2.1835   -3.9868   -6.6148 C   0  0  0  0  0  0  0  0  0  0  0  0
   -2.6209   -3.4414   -7.8166 C   0  0  0  0  0  0  0  0  0  0  0  0
   -1.6333   -2.9111   -8.8082 C   0  0  0  0  0  0  0  0  0  0  0  0
   -3.9851   -3.4239   -8.0766 C   0  0  0  0  0  0  0  0  0  0  0  0
   -4.8927   -3.9137   -7.1582 C   0  0  0  0  0  0  0  0  0  0  0  0
   -6.4777   -5.6346   -5.4372 C   0  0  0  0  0  0  0  0  0  0  0  0
   -7.7519   -5.3987   -4.9279 C   0  0  0  0  0  0  0  0  0  0  0  0
   -8.8237   -6.1417   -5.3808 C   0  0  0  0  0  0  0  0  0  0  0  0
   -8.6605   -7.1166   -6.3583 C   0  0  0  0  0  0  0  0  0  0  0  0
   -9.8153   -7.9443   -6.8307 C   0  0  0  0  0  0  0  0  0  0  0  0
   -7.3900   -7.3186   -6.8847 C   0  0  0  0  0  0  0  0  0  0  0  0
   -6.3061   -6.5937   -6.4320 C   0  0  0  0  0  0  0  0  0  0  0  0
   -4.6134   -3.2699   -3.3253 C   0  0  0  0  0  0  0  0  0  0  0  0
   -3.8074   -2.0088   -4.2066 S   0  0  0  0  0  0  0  0  0  0  0  0
   -3.5158   -1.1273   -2.7105 C   0  0  0  0  0  0  0  0  0  0  0  0
   -4.0975   -1.7509   -1.6087 C   0  0  0  0  0  0  0  0  0  0  0  0
   -4.1158   -1.2571   -0.3152 N   0  0  0  0  0  0  0  0  0  0  0  0
   -4.3824    0.0852   -0.0373 C   0  0  0  0  0  0  0  0  0  0  0  0
   -5.0945    0.8883   -0.9272 C   0  0  0  0  0  0  0  0  0  0  0  0
   -5.2962    2.2244   -0.6509 C   0  0  0  0  0  0  0  0  0  0  0  0
   -4.8114    2.8007    0.5186 C   0  0  0  0  0  0  0  0  0  0  0  0
   -5.0270    4.2581    0.7913 C   0  0  0  0  0  0  0  0  0  0  0  0
   -4.1246    1.9901    1.4127 C   0  0  0  0  0  0  0  0  0  0  0  0
   -3.9060    0.6536    1.1434 C   0  0  0  0  0  0  0  0  0  0  0  0
   -4.1052   -2.2093    0.7248 C   0  0  0  0  0  0  0  0  0  0  0  0
   -5.0543   -2.1758    1.7405 C   0  0  0  0  0  0  0  0  0  0  0  0
   -5.0743   -3.1707    2.6967 C   0  0  0  0  0  0  0  0  0  0  0  0
   -4.1606   -4.2171    2.6648 C   0  0  0  0  0  0  0  0  0  0  0  0
   -4.2412   -5.3350    3.6573 C   0  0  0  0  0  0  0  0  0  0  0  0
   -3.1966   -4.2240    1.6650 C   0  0  0  0  0  0  0  0  0  0  0  0
   -3.1619   -3.2318    0.7059 C   0  0  0  0  0  0  0  0  0  0  0  0
   -4.6865   -2.9852   -1.9672 C   0  0  0  0  0  0  0  0  0  0  0  0
   -5.5052   -4.2104   -1.0670 S   0  0  0  0  0  0  0  0  0  0  0  0
   -2.6326   -0.0143   -2.7163 C   0  0  0  0  0  0  0  0  0  0  0  0
   -2.1976    0.7314   -3.8020 C   0  0  0  0  0  0  0  0  0  0  0  0
   -2.7819    0.6555   -5.1417 C   0  0  0  0  0  0  0  0  0  0  0  0
   -1.9664    0.5142   -6.2597 C   0  0  0  0  0  0  0  0  0  0  0  0
   -2.5341    0.4204   -7.5161 C   0  0  0  0  0  0  0  0  0  0  0  0
   -3.9084    0.4641   -7.6681 C   0  0  0  0  0  0  0  0  0  0  0  0
   -4.7364    0.6311   -6.5653 C   0  0  0  0  0  0  0  0  0  0  0  0
   -6.2306    0.6378   -6.7120 C   0  0  0  0  0  0  0  0  0  0  0  0
   -6.7771   -0.7807   -6.5407 C   0  0  0  0  0  0  0  0  0  0  0  0
   -4.1612    0.7334   -5.3093 C   0  0  0  0  0  0  0  0  0  0  0  0
   -1.1404    1.5887   -3.4476 C   0  0  0  0  0  0  0  0  0  0  0  0
   -0.1795    2.7317   -4.3582 S   0  0  0  0  0  0  0  0  0  0  0  0
    0.7062    3.1046   -2.9153 C   0  0  0  0  0  0  0  0  0  0  0  0
    1.8243    3.8522   -2.5110 C   0  0  0  0  0  0  0  0  0  0  0  0
    2.7783    4.5847   -3.2520 C   0  0  0  0  0  0  0  0  0  0  0  0
    3.9742    5.0354   -2.5943 C   0  0  0  0  0  0  0  0  0  0  0  0
    4.8153    5.6285   -3.4265 N   0  0  0  0  0  0  0  0  0  0  0  0
    4.1584    5.6297   -4.9067 S   0  0  0  0  0  0  0  0  0  0  0  0
    2.7766    4.8670   -4.5450 N   0  0  0  0  0  0  0  0  0  0  0  0
    4.1008    4.8508   -1.2000 C   0  0  0  0  0  0  0  0  0  0  0  0
    5.1077    5.2190   -0.2904 C   0  0  0  0  0  0  0  0  0  0  0  0
    6.6865    5.9309   -0.2897 S   0  0  0  0  0  0  0  0  0  0  0  0
    6.7255    5.7867    1.4526 C   0  0  0  0  0  0  0  0  0  0  0  0
    7.7100    6.0859    2.4111 C   0  0  0  0  0  0  0  0  0  0  0  0
    9.0543    6.5462    2.0631 C   0  0  0  0  0  0  0  0  0  0  0  0
    9.2308    7.6192    1.1936 C   0  0  0  0  0  0  0  0  0  0  0  0
   10.5089    8.0347    0.8679 C   0  0  0  0  0  0  0  0  0  0  0  0
   11.6113    7.3819    1.3909 C   0  0  0  0  0  0  0  0  0  0  0  0
   11.4533    6.2949    2.2429 C   0  0  0  0  0  0  0  0  0  0  0  0
   12.6455    5.5510    2.7710 C   0  0  0  0  0  0  0  0  0  0  0  0
   13.0074    4.3915    1.8410 C   0  0  0  0  0  0  0  0  0  0  0  0
   10.1701    5.8816    2.5673 C   0  0  0  0  0  0  0  0  0  0  0  0
    7.2743    5.7813    3.6923 C   0  0  0  0  0  0  0  0  0  0  0  0
    5.6620    5.0759    3.7028 S   0  0  0  0  0  0  0  0  0  0  0  0
    5.5635    5.2215    1.9858 C   0  0  0  0  0  0  0  0  0  0  0  0
    4.6451    4.8880    0.9852 C   0  0  0  0  0  0  0  0  0  0  0  0
    3.4027    4.3102    0.9066 N   0  0  0  0  0  0  0  0  0  0  0  0
    3.0628    4.2490   -0.4361 C   0  0  0  0  0  0  0  0  0  0  0  0
    1.9880    3.6231   -1.1152 C   0  0  0  0  0  0  0  0  0  0  0  0
    1.0220    2.7254   -0.7036 N   0  0  0  0  0  0  0  0  0  0  0  0
    0.2560    2.4073   -1.7908 C   0  0  0  0  0  0  0  0  0  0  0  0
   -0.7870    1.5267   -2.0985 C   0  0  0  0  0  0  0  0  0  0  0  0
   -1.7387    0.3666   -1.2483 S   0  0  0  0  0  0  0  0  0  0  0  0
    0.9089    1.9480    0.5085 C   0  0  0  0  0  0  0  0  0  0  0  0
   -0.3199    2.3461    1.3281 C   0  0  0  0  0  0  0  0  0  0  0  0
    2.5296    4.4169    2.0562 C   0  0  0  0  0  0  0  0  0  0  0  0
    2.1827    5.8769    2.3488 C   0  0  0  0  0  0  0  0  0  0  0  0
    7.9059    5.9843    4.9480 C   0  0  0  0  0  0  0  0  0  0  0  0
    7.4286    4.9820    6.2947 S   0  0  0  0  0  0  0  0  0  0  0  0
    8.5180    5.8071    7.3895 C   0  0  0  0  0  0  0  0  0  0  0  0
    9.2056    6.8259    6.7052 C   0  0  0  0  0  0  0  0  0  0  0  0
   10.1542    7.7883    7.1376 C   0  0  0  0  0  0  0  0  0  0  0  0
   10.5533    8.6639    6.1811 C   0  0  0  0  0  0  0  0  0  0  0  0
   11.5336    9.7757    6.3442 C   0  0  0  0  0  0  0  0  0  0  0  0
   12.6133    9.7325    5.2651 C   0  0  0  0  0  0  0  0  0  0  0  0
    9.7343    8.3446    4.5022 Se  0  0  0  0  0  2  0  0  0  0  0  0
    8.8575    6.9140    5.3375 C   0  0  0  0  0  0  0  0  0  0  0  0
    8.7055    5.5427    8.7435 C   0  0  0  0  0  0  0  0  0  0  0  0
    8.1121    4.6094    9.5610 C   0  0  0  0  0  0  0  0  0  0  0  0
    7.0897    3.6315    9.1613 C   0  0  0  0  0  0  0  0  0  0  0  0
    6.6017    3.4835    8.0536 O   0  0  0  0  0  0  0  0  0  0  0  0
    6.7781    2.8693   10.3805 C   0  0  0  0  0  0  0  0  0  0  0  0
    5.9398    1.8140   10.7757 C   0  0  0  0  0  0  0  0  0  0  0  0
    6.1022    1.5321   12.1002 C   0  0  0  0  0  0  0  0  0  0  0  0
    7.2670    2.5343   12.8898 S   0  0  0  0  0  0  0  0  0  0  0  0
    7.5557    3.3607   11.4175 C   0  0  0  0  0  0  0  0  0  0  0  0
    8.4013    4.4381   10.9699 C   0  0  0  0  0  0  0  0  0  0  0  0
    9.2842    5.1230   11.7719 C   0  0  0  0  0  0  0  0  0  0  0  0
    9.4164    4.7969   13.1364 C   0  0  0  0  0  0  0  0  0  0  0  0
    9.5308    4.5359   14.2486 N   0  0  0  0  0  0  0  0  0  0  0  0
   10.1216    6.1745   11.3617 C   0  0  0  0  0  0  0  0  0  0  0  0
   10.8283    7.0388   11.0863 N   0  0  0  0  0  0  0  0  0  0  0  0
   -6.0339   -6.9629   -3.5401 H   0  0  0  0  0  0  0  0  0  0  0  0
   -7.6599   -7.4339    2.5001 H   0  0  0  0  0  0  0  0  0  0  0  0
   -8.5414   -8.9093    4.2830 H   0  0  0  0  0  0  0  0  0  0  0  0
   -9.3517  -11.1367    5.0216 H   0  0  0  0  0  0  0  0  0  0  0  0
   -8.7215  -12.7026    1.1028 H   0  0  0  0  0  0  0  0  0  0  0  0
   -7.8396  -11.2776   -0.6702 H   0  0  0  0  0  0  0  0  0  0  0  0
   -2.7286   -4.9063   -4.7600 H   0  0  0  0  0  0  0  0  0  0  0  0
   -1.1251   -4.0260   -6.4032 H   0  0  0  0  0  0  0  0  0  0  0  0
   -0.9141   -2.2599   -8.3156 H   0  0  0  0  0  0  0  0  0  0  0  0
   -2.1336   -2.3536   -9.5955 H   0  0  0  0  0  0  0  0  0  0  0  0
   -1.0815   -3.7326   -9.2656 H   0  0  0  0  0  0  0  0  0  0  0  0
   -4.3448   -3.0143   -9.0093 H   0  0  0  0  0  0  0  0  0  0  0  0
   -5.9520   -3.8940   -7.3679 H   0  0  0  0  0  0  0  0  0  0  0  0
   -7.8966   -4.6390   -4.1738 H   0  0  0  0  0  0  0  0  0  0  0  0
   -9.8059   -5.9542   -4.9713 H   0  0  0  0  0  0  0  0  0  0  0  0
  -10.7581   -7.5485   -6.4618 H   0  0  0  0  0  0  0  0  0  0  0  0
   -9.8465   -7.9748   -7.9182 H   0  0  0  0  0  0  0  0  0  0  0  0
   -9.7085   -8.9688   -6.4739 H   0  0  0  0  0  0  0  0  0  0  0  0
   -7.2422   -8.0691   -7.6462 H   0  0  0  0  0  0  0  0  0  0  0  0
   -5.3221   -6.7752   -6.8344 H   0  0  0  0  0  0  0  0  0  0  0  0
   -5.4929    0.4581   -1.8342 H   0  0  0  0  0  0  0  0  0  0  0  0
   -5.8458    2.8341   -1.3538 H   0  0  0  0  0  0  0  0  0  0  0  0
   -6.0860    4.5053    0.7336 H   0  0  0  0  0  0  0  0  0  0  0  0
   -4.6599    4.5277    1.7784 H   0  0  0  0  0  0  0  0  0  0  0  0
   -4.5049    4.8632    0.0501 H   0  0  0  0  0  0  0  0  0  0  0  0
   -3.7425    2.4119    2.3315 H   0  0  0  0  0  0  0  0  0  0  0  0
   -3.3532    0.0405    1.8394 H   0  0  0  0  0  0  0  0  0  0  0  0
   -5.7860   -1.3816    1.7609 H   0  0  0  0  0  0  0  0  0  0  0  0
   -5.8293   -3.1468    3.4688 H   0  0  0  0  0  0  0  0  0  0  0  0
   -3.2626   -5.7770    3.8307 H   0  0  0  0  0  0  0  0  0  0  0  0
   -4.6488   -4.9895    4.6046 H   0  0  0  0  0  0  0  0  0  0  0  0
   -4.8990   -6.1130    3.2680 H   0  0  0  0  0  0  0  0  0  0  0  0
   -2.4690   -5.0222    1.6302 H   0  0  0  0  0  0  0  0  0  0  0  0
   -2.4153   -3.2494   -0.0754 H   0  0  0  0  0  0  0  0  0  0  0  0
   -0.8949    0.4658   -6.1376 H   0  0  0  0  0  0  0  0  0  0  0  0
   -1.9000    0.3118   -8.3833 H   0  0  0  0  0  0  0  0  0  0  0  0
   -4.3446    0.3798   -8.6531 H   0  0  0  0  0  0  0  0  0  0  0  0
   -6.6747    1.2903   -5.9574 H   0  0  0  0  0  0  0  0  0  0  0  0
   -6.5089    1.0158   -7.6975 H   0  0  0  0  0  0  0  0  0  0  0  0
   -6.3634   -1.4344   -7.3042 H   0  0  0  0  0  0  0  0  0  0  0  0
   -6.4963   -1.1796   -5.5682 H   0  0  0  0  0  0  0  0  0  0  0  0
   -7.8618   -0.7869   -6.6218 H   0  0  0  0  0  0  0  0  0  0  0  0
   -4.7902    0.8810   -4.4424 H   0  0  0  0  0  0  0  0  0  0  0  0
    8.3692    8.1283    0.7888 H   0  0  0  0  0  0  0  0  0  0  0  0
   10.6451    8.8735    0.2015 H   0  0  0  0  0  0  0  0  0  0  0  0
   12.6064    7.7164    1.1349 H   0  0  0  0  0  0  0  0  0  0  0  0
   13.4974    6.2289    2.8509 H   0  0  0  0  0  0  0  0  0  0  0  0
   12.4245    5.1603    3.7665 H   0  0  0  0  0  0  0  0  0  0  0  0
   13.2401    4.7637    0.8458 H   0  0  0  0  0  0  0  0  0  0  0  0
   13.8720    3.8535    2.2224 H   0  0  0  0  0  0  0  0  0  0  0  0
   12.1740    3.6974    1.7595 H   0  0  0  0  0  0  0  0  0  0  0  0
   10.0293    5.0283    3.2166 H   0  0  0  0  0  0  0  0  0  0  0  0
    1.8331    2.0397    1.0801 H   0  0  0  0  0  0  0  0  0  0  0  0
    0.8025    0.8967    0.2178 H   0  0  0  0  0  0  0  0  0  0  0  0
   -0.3529    3.4188    1.5071 H   0  0  0  0  0  0  0  0  0  0  0  0
   -0.3085    1.8288    2.2833 H   0  0  0  0  0  0  0  0  0  0  0  0
   -1.2287    2.0695    0.7998 H   0  0  0  0  0  0  0  0  0  0  0  0
    3.0505    3.9808    2.9143 H   0  0  0  0  0  0  0  0  0  0  0  0
    1.6116    3.8707    1.8784 H   0  0  0  0  0  0  0  0  0  0  0  0
    1.6913    6.3265    1.4882 H   0  0  0  0  0  0  0  0  0  0  0  0
    3.0775    6.4497    2.5766 H   0  0  0  0  0  0  0  0  0  0  0  0
    1.5130    5.9290    3.2027 H   0  0  0  0  0  0  0  0  0  0  0  0
   10.5308    7.8263    8.1462 H   0  0  0  0  0  0  0  0  0  0  0  0
   11.9866    9.7042    7.3352 H   0  0  0  0  0  0  0  0  0  0  0  0
   11.0068   10.7334    6.2836 H   0  0  0  0  0  0  0  0  0  0  0  0
   13.1567    8.7912    5.3116 H   0  0  0  0  0  0  0  0  0  0  0  0
   12.1579    9.8180    4.2769 H   0  0  0  0  0  0  0  0  0  0  0  0
   13.3168   10.5505    5.3967 H   0  0  0  0  0  0  0  0  0  0  0  0
    9.4410    6.1861    9.2088 H   0  0  0  0  0  0  0  0  0  0  0  0
    5.2611    1.2960   10.1237 H   0  0  0  0  0  0  0  0  0  0  0  0
    5.5991    0.7806   12.6767 H   0  0  0  0  0  0  0  0  0  0  0  0
  1  2  2  0  0  0  0
  2  3  1  0  0  0  0
  3  4  2  0  0  0  0
  3  5  1  0  0  0  0
  5  6  2  0  0  0  0
  6  7  1  0  0  0  0
  7  8  2  0  0  0  0
  8  9  1  0  0  0  0
  9 10  2  0  0  0  0
 10 11  1  0  0  0  0
 10 12  1  0  0  0  0
 12 13  2  0  0  0  0
 13 14  1  0  0  0  0
 14 15  2  0  0  0  0
 15 16  1  0  0  0  0
 16 17  2  0  0  0  0
 17 18  1  0  0  0  0
 18 19  3  0  0  0  0
 17 20  1  0  0  0  0
 20 21  3  0  0  0  0
  1 22  1  0  0  0  0
 22 23  2  0  0  0  0
 23 24  1  0  0  0  0
 24 25  1  0  0  0  0
 25 26  2  0  0  0  0
 26 27  1  0  0  0  0
 27 28  2  0  0  0  0
 28 29  1  0  0  0  0
 28 30  1  0  0  0  0
 30 31  2  0  0  0  0
 24 32  1  0  0  0  0
 32 33  2  0  0  0  0
 33 34  1  0  0  0  0
 34 35  2  0  0  0  0
 35 36  1  0  0  0  0
 35 37  1  0  0  0  0
 37 38  2  0  0  0  0
 23 39  1  0  0  0  0
 39 40  1  0  0  0  0
 40 41  1  0  0  0  0
 41 42  2  0  0  0  0
 42 43  1  0  0  0  0
 43 44  1  0  0  0  0
 44 45  2  0  0  0  0
 45 46  1  0  0  0  0
 46 47  2  0  0  0  0
 47 48  1  0  0  0  0
 47 49  1  0  0  0  0
 49 50  2  0  0  0  0
 43 51  1  0  0  0  0
 51 52  2  0  0  0  0
 52 53  1  0  0  0  0
 53 54  2  0  0  0  0
 54 55  1  0  0  0  0
 54 56  1  0  0  0  0
 56 57  2  0  0  0  0
 42 58  1  0  0  0  0
 58 59  1  0  0  0  0
 41 60  1  0  0  0  0
 60 61  2  0  0  0  0
 61 62  1  0  0  0  0
 62 63  2  0  0  0  0
 63 64  1  0  0  0  0
 64 65  2  0  0  0  0
 65 66  1  0  0  0  0
 66 67  1  0  0  0  0
 67 68  1  0  0  0  0
 66 69  2  0  0  0  0
 61 70  1  0  0  0  0
 70 71  1  0  0  0  0
 71 72  1  0  0  0  0
 72 73  1  0  0  0  0
 73 74  1  0  0  0  0
 74 75  1  0  0  0  0
 75 76  2  0  0  0  0
 76 77  1  0  0  0  0
 77 78  1  0  0  0  0
 75 79  1  0  0  0  0
 79 80  1  0  0  0  0
 80 81  1  0  0  0  0
 81 82  1  0  0  0  0
 82 83  1  0  0  0  0
 83 84  1  0  0  0  0
 84 85  2  0  0  0  0
 85 86  1  0  0  0  0
 86 87  2  0  0  0  0
 87 88  1  0  0  0  0
 88 89  1  0  0  0  0
 89 90  1  0  0  0  0
 88 91  2  0  0  0  0
 83 92  2  0  0  0  0
 92 93  1  0  0  0  0
 93 94  1  0  0  0  0
 94 95  1  0  0  0  0
 95 96  1  0  0  0  0
 96 97  1  0  0  0  0
 97 98  1  0  0  0  0
 98 99  1  0  0  0  0
 99100  1  0  0  0  0
100101  1  0  0  0  0
101102  1  0  0  0  0
 99103  1  0  0  0  0
103104  1  0  0  0  0
 96105  1  0  0  0  0
105106  1  0  0  0  0
 92107  1  0  0  0  0
107108  1  0  0  0  0
108109  1  0  0  0  0
109110  2  0  0  0  0
110111  1  0  0  0  0
111112  2  0  0  0  0
112113  1  0  0  0  0
113114  1  0  0  0  0
112115  1  0  0  0  0
115116  1  0  0  0  0
109117  1  0  0  0  0
117118  2  0  0  0  0
118119  1  0  0  0  0
119120  2  0  0  0  0
119121  1  0  0  0  0
121122  1  0  0  0  0
122123  2  0  0  0  0
123124  1  0  0  0  0
124125  1  0  0  0  0
125126  1  0  0  0  0
126127  2  0  0  0  0
127128  1  0  0  0  0
128129  3  0  0  0  0
127130  1  0  0  0  0
130131  3  0  0  0  0
 16  2  1  0  0  0  0
 59 22  1  0  0  0  0
102 60  1  0  0  0  0
116107  2  0  0  0  0
126118  1  0  0  0  0
 15  5  1  0  0  0  0
 31 25  1  0  0  0  0
 38 32  1  0  0  0  0
 58 39  2  0  0  0  0
 69 62  1  0  0  0  0
101 70  2  0  0  0  0
116110  1  0  0  0  0
125121  2  0  0  0  0
 13  7  1  0  0  0  0
 50 44  1  0  0  0  0
 57 51  1  0  0  0  0
100 72  2  0  0  0  0
 98 73  2  0  0  0  0
 78 74  2  0  0  0  0
 97 79  2  0  0  0  0
 95 80  2  0  0  0  0
 94 82  2  0  0  0  0
 91 84  1  0  0  0  0
  1132  1  0  0  0  0
  6133  1  0  0  0  0
  8134  1  0  0  0  0
  9135  1  0  0  0  0
 12136  1  0  0  0  0
 14137  1  0  0  0  0
 26138  1  0  0  0  0
 27139  1  0  0  0  0
 29140  1  0  0  0  0
 29141  1  0  0  0  0
 29142  1  0  0  0  0
 30143  1  0  0  0  0
 31144  1  0  0  0  0
 33145  1  0  0  0  0
 34146  1  0  0  0  0
 36147  1  0  0  0  0
 36148  1  0  0  0  0
 36149  1  0  0  0  0
 37150  1  0  0  0  0
 38151  1  0  0  0  0
 45152  1  0  0  0  0
 46153  1  0  0  0  0
 48154  1  0  0  0  0
 48155  1  0  0  0  0
 48156  1  0  0  0  0
 49157  1  0  0  0  0
 50158  1  0  0  0  0
 52159  1  0  0  0  0
 53160  1  0  0  0  0
 55161  1  0  0  0  0
 55162  1  0  0  0  0
 55163  1  0  0  0  0
 56164  1  0  0  0  0
 57165  1  0  0  0  0
 63166  1  0  0  0  0
 64167  1  0  0  0  0
 65168  1  0  0  0  0
 67169  1  0  0  0  0
 67170  1  0  0  0  0
 68171  1  0  0  0  0
 68172  1  0  0  0  0
 68173  1  0  0  0  0
 69174  1  0  0  0  0
 85175  1  0  0  0  0
 86176  1  0  0  0  0
 87177  1  0  0  0  0
 89178  1  0  0  0  0
 89179  1  0  0  0  0
 90180  1  0  0  0  0
 90181  1  0  0  0  0
 90182  1  0  0  0  0
 91183  1  0  0  0  0
103184  1  0  0  0  0
103185  1  0  0  0  0
104186  1  0  0  0  0
104187  1  0  0  0  0
104188  1  0  0  0  0
105189  1  0  0  0  0
105190  1  0  0  0  0
106191  1  0  0  0  0
106192  1  0  0  0  0
106193  1  0  0  0  0
111194  1  0  0  0  0
113195  1  0  0  0  0
113196  1  0  0  0  0
114197  1  0  0  0  0
114198  1  0  0  0  0
114199  1  0  0  0  0
117200  1  0  0  0  0
122201  1  0  0  0  0
123202  1  0  0  0  0
M  END
