
  xtb     02062223243D
 energy: -394.723588945507 gnorm: 0.000491283378 xtb: 6.4.1 (unknown)
235259  0     0  0            999 V2000
   -4.2306   -3.3527   10.8857 C   0  0  0  0  0  0  0  0  0  0  0  0
   -5.0720   -2.4771   11.5434 C   0  0  0  0  0  0  0  0  0  0  0  0
   -5.4011   -1.1168   11.1224 C   0  0  0  0  0  0  0  0  0  0  0  0
   -4.9117   -0.4734   10.2080 O   0  0  0  0  0  0  0  0  0  0  0  0
   -6.4781   -0.6602   12.0206 C   0  0  0  0  0  0  0  0  0  0  0  0
   -7.1426    0.5304   12.0240 C   0  0  0  0  0  0  0  0  0  0  0  0
   -8.1628    0.7460   12.9786 C   0  0  0  0  0  0  0  0  0  0  0  0
   -8.8856    1.9546   13.0260 C   0  0  0  0  0  0  0  0  0  0  0  0
   -9.8744    2.1491   13.9506 C   0  0  0  0  0  0  0  0  0  0  0  0
  -10.1619    1.1226   14.8591 C   0  0  0  0  0  0  0  0  0  0  0  0
  -11.1399    1.3309   15.7621 F   0  0  0  0  0  0  0  0  0  0  0  0
   -9.4899   -0.0681   14.8577 C   0  0  0  0  0  0  0  0  0  0  0  0
   -8.4689   -0.2852   13.9125 C   0  0  0  0  0  0  0  0  0  0  0  0
   -7.7553   -1.5076   13.8873 C   0  0  0  0  0  0  0  0  0  0  0  0
   -6.7727   -1.6937   12.9535 C   0  0  0  0  0  0  0  0  0  0  0  0
   -5.8740   -2.8175   12.6917 C   0  0  0  0  0  0  0  0  0  0  0  0
   -5.8126   -3.9696   13.4417 C   0  0  0  0  0  0  0  0  0  0  0  0
   -4.8585   -4.9929   13.2945 C   0  0  0  0  0  0  0  0  0  0  0  0
   -4.0952   -5.8534   13.2704 N   0  0  0  0  0  0  0  0  0  0  0  0
   -6.6894   -4.2677   14.5023 C   0  0  0  0  0  0  0  0  0  0  0  0
   -7.3847   -4.5865   15.3597 N   0  0  0  0  0  0  0  0  0  0  0  0
   -3.4347   -3.1707    9.7616 C   0  0  0  0  0  0  0  0  0  0  0  0
   -2.6698   -4.2174    9.1760 C   0  0  0  0  0  0  0  0  0  0  0  0
   -2.7508   -5.5458    9.4890 N   0  0  0  0  0  0  0  0  0  0  0  0
   -3.9565   -6.1796    9.8459 C   0  0  0  0  0  0  0  0  0  0  0  0
   -3.9389   -7.2279   10.7620 C   0  0  0  0  0  0  0  0  0  0  0  0
   -5.1171   -7.8549   11.1149 C   0  0  0  0  0  0  0  0  0  0  0  0
   -6.3346   -7.4520   10.5790 C   0  0  0  0  0  0  0  0  0  0  0  0
   -7.6077   -8.1111   11.0108 C   0  0  0  0  0  0  0  0  0  0  0  0
   -6.3377   -6.4182    9.6493 C   0  0  0  0  0  0  0  0  0  0  0  0
   -5.1660   -5.7924    9.2742 C   0  0  0  0  0  0  0  0  0  0  0  0
   -1.6131   -6.3511    9.2719 C   0  0  0  0  0  0  0  0  0  0  0  0
   -0.3686   -5.9367    9.7387 C   0  0  0  0  0  0  0  0  0  0  0  0
    0.7515   -6.7061    9.4967 C   0  0  0  0  0  0  0  0  0  0  0  0
    0.6611   -7.9017    8.7932 C   0  0  0  0  0  0  0  0  0  0  0  0
    1.8813   -8.7331    8.5448 C   0  0  0  0  0  0  0  0  0  0  0  0
   -0.5892   -8.3157    8.3496 C   0  0  0  0  0  0  0  0  0  0  0  0
   -1.7173   -7.5546    8.5827 C   0  0  0  0  0  0  0  0  0  0  0  0
   -1.8043   -3.7077    8.1966 C   0  0  0  0  0  0  0  0  0  0  0  0
   -0.6334   -4.4064    7.1310 S   0  0  0  0  0  0  0  0  0  0  0  0
   -0.2937   -2.8378    6.4050 C   0  0  0  0  0  0  0  0  0  0  0  0
   -1.1208   -1.8458    6.9311 C   0  0  0  0  0  0  0  0  0  0  0  0
   -1.1479   -0.4904    6.5918 N   0  0  0  0  0  0  0  0  0  0  0  0
   -1.5371   -0.0702    5.3206 C   0  0  0  0  0  0  0  0  0  0  0  0
   -2.2672   -0.9038    4.4739 C   0  0  0  0  0  0  0  0  0  0  0  0
   -2.5594   -0.5038    3.1849 C   0  0  0  0  0  0  0  0  0  0  0  0
   -2.1455    0.7317    2.7039 C   0  0  0  0  0  0  0  0  0  0  0  0
   -2.4607    1.1502    1.2992 C   0  0  0  0  0  0  0  0  0  0  0  0
   -1.4449    1.5707    3.5634 C   0  0  0  0  0  0  0  0  0  0  0  0
   -1.1429    1.1839    4.8516 C   0  0  0  0  0  0  0  0  0  0  0  0
   -1.1841    0.4025    7.6804 C   0  0  0  0  0  0  0  0  0  0  0  0
   -0.2958    0.2213    8.7365 C   0  0  0  0  0  0  0  0  0  0  0  0
   -0.3440    1.0549    9.8360 C   0  0  0  0  0  0  0  0  0  0  0  0
   -1.2675    2.0898    9.9095 C   0  0  0  0  0  0  0  0  0  0  0  0
   -1.3425    2.9710   11.1185 C   0  0  0  0  0  0  0  0  0  0  0  0
   -2.1442    2.2684    8.8460 C   0  0  0  0  0  0  0  0  0  0  0  0
   -2.1121    1.4375    7.7452 C   0  0  0  0  0  0  0  0  0  0  0  0
   -1.9391   -2.3456    7.9696 C   0  0  0  0  0  0  0  0  0  0  0  0
   -3.1385   -1.6136    8.9747 S   0  0  0  0  0  0  0  0  0  0  0  0
    0.7284   -2.7544    5.4150 C   0  0  0  0  0  0  0  0  0  0  0  0
    1.7919   -3.6153    5.1718 C   0  0  0  0  0  0  0  0  0  0  0  0
    2.1689   -4.8555    5.9186 C   0  0  0  0  0  0  0  0  0  0  0  0
    1.5892   -6.1056    5.2550 C   0  0  0  0  0  0  0  0  0  0  0  0
    2.5583   -3.1808    4.0765 C   0  0  0  0  0  0  0  0  0  0  0  0
    3.9726   -3.8349    3.2727 S   0  0  0  0  0  0  0  0  0  0  0  0
    3.9096   -2.5314    2.1306 C   0  0  0  0  0  0  0  0  0  0  0  0
    4.5809   -2.0688    0.9828 C   0  0  0  0  0  0  0  0  0  0  0  0
    5.7649   -2.5019    0.3387 C   0  0  0  0  0  0  0  0  0  0  0  0
    6.2457   -1.7566   -0.8016 C   0  0  0  0  0  0  0  0  0  0  0  0
    7.3758   -2.1992   -1.3172 N   0  0  0  0  0  0  0  0  0  0  0  0
    7.9127   -3.6005   -0.3886 Se  0  0  0  0  0  2  0  0  0  0  0  0
    6.5236   -3.5195    0.6951 N   0  0  0  0  0  0  0  0  0  0  0  0
    5.4422   -0.7119   -1.3189 C   0  0  0  0  0  0  0  0  0  0  0  0
    5.5181    0.0026   -2.5280 C   0  0  0  0  0  0  0  0  0  0  0  0
    6.5505    0.1282   -3.9117 S   0  0  0  0  0  0  0  0  0  0  0  0
    5.3360    1.1016   -4.7025 C   0  0  0  0  0  0  0  0  0  0  0  0
    5.2244    1.5832   -6.0207 C   0  0  0  0  0  0  0  0  0  0  0  0
    6.3488    1.5488   -7.0041 C   0  0  0  0  0  0  0  0  0  0  0  0
    7.2510    2.7694   -6.8082 C   0  0  0  0  0  0  0  0  0  0  0  0
    3.9987    2.1667   -6.2318 C   0  0  0  0  0  0  0  0  0  0  0  0
    3.0094    2.2141   -4.7740 S   0  0  0  0  0  0  0  0  0  0  0  0
    4.2157    1.3372   -3.9069 C   0  0  0  0  0  0  0  0  0  0  0  0
    4.3278    0.7234   -2.6532 C   0  0  0  0  0  0  0  0  0  0  0  0
    3.5404    0.5211   -1.5507 N   0  0  0  0  0  0  0  0  0  0  0  0
    4.2126   -0.3459   -0.7113 C   0  0  0  0  0  0  0  0  0  0  0  0
    3.8651   -0.9262    0.5330 C   0  0  0  0  0  0  0  0  0  0  0  0
    2.8369   -0.6609    1.4168 N   0  0  0  0  0  0  0  0  0  0  0  0
    2.8609   -1.6411    2.3728 C   0  0  0  0  0  0  0  0  0  0  0  0
    2.1008   -2.0042    3.4870 C   0  0  0  0  0  0  0  0  0  0  0  0
    0.7172   -1.3908    4.2995 S   0  0  0  0  0  0  0  0  0  0  0  0
    2.1938    0.6032    1.7022 C   0  0  0  0  0  0  0  0  0  0  0  0
    2.8016    1.2715    2.9349 C   0  0  0  0  0  0  0  0  0  0  0  0
    2.1357    0.8621   -1.5914 C   0  0  0  0  0  0  0  0  0  0  0  0
    1.8992    2.3632   -1.4288 C   0  0  0  0  0  0  0  0  0  0  0  0
    3.3788    2.5361   -7.4696 C   0  0  0  0  0  0  0  0  0  0  0  0
    3.2386    1.7321   -8.5928 C   0  0  0  0  0  0  0  0  0  0  0  0
    3.7144    0.4382   -8.7162 N   0  0  0  0  0  0  0  0  0  0  0  0
    3.7370   -0.4199   -7.6045 C   0  0  0  0  0  0  0  0  0  0  0  0
    2.6961   -0.4135   -6.6803 C   0  0  0  0  0  0  0  0  0  0  0  0
    2.7746   -1.1875   -5.5382 C   0  0  0  0  0  0  0  0  0  0  0  0
    3.8754   -1.9966   -5.2913 C   0  0  0  0  0  0  0  0  0  0  0  0
    3.9812   -2.8126   -4.0396 C   0  0  0  0  0  0  0  0  0  0  0  0
    4.8825   -2.0427   -6.2493 C   0  0  0  0  0  0  0  0  0  0  0  0
    4.8198   -1.2700   -7.3904 C   0  0  0  0  0  0  0  0  0  0  0  0
    4.1663   -0.0067   -9.9681 C   0  0  0  0  0  0  0  0  0  0  0  0
    3.9335   -1.3159  -10.3782 C   0  0  0  0  0  0  0  0  0  0  0  0
    4.3699   -1.7423  -11.6168 C   0  0  0  0  0  0  0  0  0  0  0  0
    5.0369   -0.8823  -12.4804 C   0  0  0  0  0  0  0  0  0  0  0  0
    5.4831   -1.3329  -13.8369 C   0  0  0  0  0  0  0  0  0  0  0  0
    5.2701    0.4220  -12.0610 C   0  0  0  0  0  0  0  0  0  0  0  0
    4.8493    0.8580  -10.8210 C   0  0  0  0  0  0  0  0  0  0  0  0
    2.4694    2.3902   -9.5824 C   0  0  0  0  0  0  0  0  0  0  0  0
    1.9803    1.9673  -11.1792 S   0  0  0  0  0  0  0  0  0  0  0  0
    1.0333    3.4612  -11.3107 C   0  0  0  0  0  0  0  0  0  0  0  0
    1.2026    4.2934  -10.1771 C   0  0  0  0  0  0  0  0  0  0  0  0
    0.7866    5.5829  -10.0387 N   0  0  0  0  0  0  0  0  0  0  0  0
    0.5431    6.4340  -11.1244 C   0  0  0  0  0  0  0  0  0  0  0  0
   -0.5183    7.3359  -11.0716 C   0  0  0  0  0  0  0  0  0  0  0  0
   -0.7970    8.1484  -12.1549 C   0  0  0  0  0  0  0  0  0  0  0  0
   -0.0318    8.0901  -13.3114 C   0  0  0  0  0  0  0  0  0  0  0  0
   -0.3603    8.9251  -14.5082 C   0  0  0  0  0  0  0  0  0  0  0  0
    1.0593    7.2232  -13.3356 C   0  0  0  0  0  0  0  0  0  0  0  0
    1.3485    6.4075  -12.2629 C   0  0  0  0  0  0  0  0  0  0  0  0
    0.5982    6.1091   -8.7389 C   0  0  0  0  0  0  0  0  0  0  0  0
   -0.1528    5.4097   -7.7995 C   0  0  0  0  0  0  0  0  0  0  0  0
   -0.3315    5.9355   -6.5362 C   0  0  0  0  0  0  0  0  0  0  0  0
    0.2255    7.1601   -6.1827 C   0  0  0  0  0  0  0  0  0  0  0  0
    0.0432    7.7039   -4.7996 C   0  0  0  0  0  0  0  0  0  0  0  0
    0.9600    7.8551   -7.1355 C   0  0  0  0  0  0  0  0  0  0  0  0
    1.1483    7.3406   -8.4039 C   0  0  0  0  0  0  0  0  0  0  0  0
    1.9876    3.6362   -9.2020 C   0  0  0  0  0  0  0  0  0  0  0  0
    2.5067    4.0511   -7.6023 S   0  0  0  0  0  0  0  0  0  0  0  0
    0.2823    3.6187  -12.4710 C   0  0  0  0  0  0  0  0  0  0  0  0
   -0.8178    4.4466  -12.6221 C   0  0  0  0  0  0  0  0  0  0  0  0
   -1.6928    4.8307  -11.5114 C   0  0  0  0  0  0  0  0  0  0  0  0
   -1.5998    4.4956  -10.3460 O   0  0  0  0  0  0  0  0  0  0  0  0
   -2.8014    5.5983  -12.1318 C   0  0  0  0  0  0  0  0  0  0  0  0
   -2.6134    5.6446  -13.5240 C   0  0  0  0  0  0  0  0  0  0  0  0
   -3.5295    6.3008  -14.3266 C   0  0  0  0  0  0  0  0  0  0  0  0
   -4.6160    6.9209  -13.7243 C   0  0  0  0  0  0  0  0  0  0  0  0
   -4.7855    6.8901  -12.3501 C   0  0  0  0  0  0  0  0  0  0  0  0
   -6.2659    7.7851  -11.5837 Br  0  0  0  0  0  0  0  0  0  0  0  0
   -3.8776    6.2178  -11.5251 C   0  0  0  0  0  0  0  0  0  0  0  0
   -4.0723    6.1906   -9.8218 Cl  0  0  0  0  0  0  0  0  0  0  0  0
   -1.3644    4.9521  -13.8435 C   0  0  0  0  0  0  0  0  0  0  0  0
   -0.7427    4.9499  -15.0705 C   0  0  0  0  0  0  0  0  0  0  0  0
    0.5346    4.4030  -15.2994 C   0  0  0  0  0  0  0  0  0  0  0  0
    1.5843    4.0075  -15.5474 N   0  0  0  0  0  0  0  0  0  0  0  0
   -1.2642    5.5688  -16.2198 C   0  0  0  0  0  0  0  0  0  0  0  0
   -1.6363    6.0762  -17.1815 N   0  0  0  0  0  0  0  0  0  0  0  0
   -4.1862   -4.3524   11.2982 H   0  0  0  0  0  0  0  0  0  0  0  0
   -6.8954    1.2987   11.3066 H   0  0  0  0  0  0  0  0  0  0  0  0
   -8.6455    2.7305   12.3144 H   0  0  0  0  0  0  0  0  0  0  0  0
  -10.4376    3.0676   13.9994 H   0  0  0  0  0  0  0  0  0  0  0  0
   -9.7382   -0.8362   15.5734 H   0  0  0  0  0  0  0  0  0  0  0  0
   -8.0106   -2.2663   14.6094 H   0  0  0  0  0  0  0  0  0  0  0  0
   -3.0041   -7.5356   11.2033 H   0  0  0  0  0  0  0  0  0  0  0  0
   -5.0926   -8.6573   11.8363 H   0  0  0  0  0  0  0  0  0  0  0  0
   -7.5031   -9.1943   10.9988 H   0  0  0  0  0  0  0  0  0  0  0  0
   -8.4341   -7.8291   10.3633 H   0  0  0  0  0  0  0  0  0  0  0  0
   -7.8525   -7.8132   12.0306 H   0  0  0  0  0  0  0  0  0  0  0  0
   -7.2703   -6.1015    9.2048 H   0  0  0  0  0  0  0  0  0  0  0  0
   -5.1844   -4.9958    8.5447 H   0  0  0  0  0  0  0  0  0  0  0  0
   -0.2891   -5.0119   10.2913 H   0  0  0  0  0  0  0  0  0  0  0  0
    1.7127   -6.3744    9.8615 H   0  0  0  0  0  0  0  0  0  0  0  0
    1.7341   -9.3965    7.6959 H   0  0  0  0  0  0  0  0  0  0  0  0
    2.0978   -9.3470    9.4196 H   0  0  0  0  0  0  0  0  0  0  0  0
    2.7480   -8.1027    8.3577 H   0  0  0  0  0  0  0  0  0  0  0  0
   -0.6808   -9.2434    7.8039 H   0  0  0  0  0  0  0  0  0  0  0  0
   -2.6820   -7.8808    8.2232 H   0  0  0  0  0  0  0  0  0  0  0  0
   -2.5937   -1.8706    4.8283 H   0  0  0  0  0  0  0  0  0  0  0  0
   -3.1177   -1.1664    2.5390 H   0  0  0  0  0  0  0  0  0  0  0  0
   -2.3000    0.3267    0.6055 H   0  0  0  0  0  0  0  0  0  0  0  0
   -3.5058    1.4507    1.2212 H   0  0  0  0  0  0  0  0  0  0  0  0
   -1.8426    1.9927    0.9968 H   0  0  0  0  0  0  0  0  0  0  0  0
   -1.1185    2.5399    3.2127 H   0  0  0  0  0  0  0  0  0  0  0  0
   -0.5766    1.8364    5.4989 H   0  0  0  0  0  0  0  0  0  0  0  0
    0.4271   -0.5810    8.6911 H   0  0  0  0  0  0  0  0  0  0  0  0
    0.3482    0.8982   10.6511 H   0  0  0  0  0  0  0  0  0  0  0  0
   -2.0816    2.5763   11.8167 H   0  0  0  0  0  0  0  0  0  0  0  0
   -0.3837    3.0145   11.6301 H   0  0  0  0  0  0  0  0  0  0  0  0
   -1.6446    3.9797   10.8459 H   0  0  0  0  0  0  0  0  0  0  0  0
   -2.8772    3.0607    8.8885 H   0  0  0  0  0  0  0  0  0  0  0  0
   -2.8179    1.5740    6.9397 H   0  0  0  0  0  0  0  0  0  0  0  0
    1.8357   -4.8014    6.9554 H   0  0  0  0  0  0  0  0  0  0  0  0
    3.2594   -4.9278    5.9099 H   0  0  0  0  0  0  0  0  0  0  0  0
    0.5031   -6.0632    5.2382 H   0  0  0  0  0  0  0  0  0  0  0  0
    1.9525   -6.1890    4.2336 H   0  0  0  0  0  0  0  0  0  0  0  0
    1.8888   -6.9918    5.8073 H   0  0  0  0  0  0  0  0  0  0  0  0
    5.9649    1.5421   -8.0235 H   0  0  0  0  0  0  0  0  0  0  0  0
    6.9301    0.6401   -6.8395 H   0  0  0  0  0  0  0  0  0  0  0  0
    7.6557    2.7824   -5.7990 H   0  0  0  0  0  0  0  0  0  0  0  0
    8.0778    2.7403   -7.5131 H   0  0  0  0  0  0  0  0  0  0  0  0
    6.6879    3.6866   -6.9681 H   0  0  0  0  0  0  0  0  0  0  0  0
    2.3234    1.2667    0.8546 H   0  0  0  0  0  0  0  0  0  0  0  0
    1.1267    0.4227    1.8724 H   0  0  0  0  0  0  0  0  0  0  0  0
    2.3253    2.2347    3.0950 H   0  0  0  0  0  0  0  0  0  0  0  0
    2.6504    0.6645    3.8225 H   0  0  0  0  0  0  0  0  0  0  0  0
    3.8694    1.4254    2.7927 H   0  0  0  0  0  0  0  0  0  0  0  0
    1.6067    0.2843   -0.8328 H   0  0  0  0  0  0  0  0  0  0  0  0
    1.7500    0.5597   -2.5722 H   0  0  0  0  0  0  0  0  0  0  0  0
    2.3010    2.8985   -2.2848 H   0  0  0  0  0  0  0  0  0  0  0  0
    2.3789    2.7533   -0.5338 H   0  0  0  0  0  0  0  0  0  0  0  0
    0.8326    2.5606   -1.3697 H   0  0  0  0  0  0  0  0  0  0  0  0
    1.8313    0.2105   -6.8536 H   0  0  0  0  0  0  0  0  0  0  0  0
    1.9630   -1.1574   -4.8243 H   0  0  0  0  0  0  0  0  0  0  0  0
    3.2765   -2.4684   -3.2856 H   0  0  0  0  0  0  0  0  0  0  0  0
    4.9878   -2.7560   -3.6288 H   0  0  0  0  0  0  0  0  0  0  0  0
    3.7680   -3.8603   -4.2530 H   0  0  0  0  0  0  0  0  0  0  0  0
    5.7406   -2.6775   -6.0843 H   0  0  0  0  0  0  0  0  0  0  0  0
    5.6185   -1.3049   -8.1161 H   0  0  0  0  0  0  0  0  0  0  0  0
    3.4055   -1.9923   -9.7224 H   0  0  0  0  0  0  0  0  0  0  0  0
    4.1780   -2.7611  -11.9211 H   0  0  0  0  0  0  0  0  0  0  0  0
    4.8495   -0.8878  -14.6042 H   0  0  0  0  0  0  0  0  0  0  0  0
    5.4235   -2.4143  -13.9283 H   0  0  0  0  0  0  0  0  0  0  0  0
    6.5074   -1.0188  -14.0294 H   0  0  0  0  0  0  0  0  0  0  0  0
    5.7935    1.1052  -12.7137 H   0  0  0  0  0  0  0  0  0  0  0  0
    5.0535    1.8718  -10.5066 H   0  0  0  0  0  0  0  0  0  0  0  0
   -1.1291    7.3850  -10.1827 H   0  0  0  0  0  0  0  0  0  0  0  0
   -1.6355    8.8276  -12.1023 H   0  0  0  0  0  0  0  0  0  0  0  0
   -0.6429    8.2891  -15.3473 H   0  0  0  0  0  0  0  0  0  0  0  0
   -1.1837    9.6022  -14.2970 H   0  0  0  0  0  0  0  0  0  0  0  0
    0.5055    9.5088  -14.8163 H   0  0  0  0  0  0  0  0  0  0  0  0
    1.6861    7.1826  -14.2145 H   0  0  0  0  0  0  0  0  0  0  0  0
    2.1980    5.7425  -12.3067 H   0  0  0  0  0  0  0  0  0  0  0  0
   -0.6124    4.4764   -8.0843 H   0  0  0  0  0  0  0  0  0  0  0  0
   -0.9196    5.3904   -5.8126 H   0  0  0  0  0  0  0  0  0  0  0  0
    0.2737    8.7655   -4.7635 H   0  0  0  0  0  0  0  0  0  0  0  0
   -0.9785    7.5522   -4.4574 H   0  0  0  0  0  0  0  0  0  0  0  0
    0.7075    7.1856   -4.1076 H   0  0  0  0  0  0  0  0  0  0  0  0
    1.3946    8.8112   -6.8827 H   0  0  0  0  0  0  0  0  0  0  0  0
    1.7224    7.8872   -9.1380 H   0  0  0  0  0  0  0  0  0  0  0  0
    0.5739    2.9946  -13.3072 H   0  0  0  0  0  0  0  0  0  0  0  0
   -3.4218    6.3397  -15.3977 H   0  0  0  0  0  0  0  0  0  0  0  0
   -5.3410    7.4416  -14.3306 H   0  0  0  0  0  0  0  0  0  0  0  0
  1  2  2  0  0  0  0
  2  3  1  0  0  0  0
  3  4  2  0  0  0  0
  3  5  1  0  0  0  0
  5  6  2  0  0  0  0
  6  7  1  0  0  0  0
  7  8  2  0  0  0  0
  8  9  1  0  0  0  0
  9 10  2  0  0  0  0
 10 11  1  0  0  0  0
 10 12  1  0  0  0  0
 12 13  2  0  0  0  0
 13 14  1  0  0  0  0
 14 15  2  0  0  0  0
 15 16  1  0  0  0  0
 16 17  2  0  0  0  0
 17 18  1  0  0  0  0
 18 19  3  0  0  0  0
 17 20  1  0  0  0  0
 20 21  3  0  0  0  0
  1 22  1  0  0  0  0
 22 23  2  0  0  0  0
 23 24  1  0  0  0  0
 24 25  1  0  0  0  0
 25 26  2  0  0  0  0
 26 27  1  0  0  0  0
 27 28  2  0  0  0  0
 28 29  1  0  0  0  0
 28 30  1  0  0  0  0
 30 31  2  0  0  0  0
 24 32  1  0  0  0  0
 32 33  2  0  0  0  0
 33 34  1  0  0  0  0
 34 35  2  0  0  0  0
 35 36  1  0  0  0  0
 35 37  1  0  0  0  0
 37 38  2  0  0  0  0
 23 39  1  0  0  0  0
 39 40  1  0  0  0  0
 40 41  1  0  0  0  0
 41 42  2  0  0  0  0
 42 43  1  0  0  0  0
 43 44  1  0  0  0  0
 44 45  2  0  0  0  0
 45 46  1  0  0  0  0
 46 47  2  0  0  0  0
 47 48  1  0  0  0  0
 47 49  1  0  0  0  0
 49 50  2  0  0  0  0
 43 51  1  0  0  0  0
 51 52  2  0  0  0  0
 52 53  1  0  0  0  0
 53 54  2  0  0  0  0
 54 55  1  0  0  0  0
 54 56  1  0  0  0  0
 56 57  2  0  0  0  0
 42 58  1  0  0  0  0
 58 59  1  0  0  0  0
 41 60  1  0  0  0  0
 60 61  2  0  0  0  0
 61 62  1  0  0  0  0
 62 63  1  0  0  0  0
 61 64  1  0  0  0  0
 64 65  1  0  0  0  0
 65 66  1  0  0  0  0
 66 67  1  0  0  0  0
 67 68  1  0  0  0  0
 68 69  1  0  0  0  0
 69 70  2  0  0  0  0
 70 71  1  0  0  0  0
 71 72  1  0  0  0  0
 69 73  1  0  0  0  0
 73 74  1  0  0  0  0
 74 75  1  0  0  0  0
 75 76  1  0  0  0  0
 76 77  1  0  0  0  0
 77 78  1  0  0  0  0
 78 79  1  0  0  0  0
 77 80  2  0  0  0  0
 80 81  1  0  0  0  0
 81 82  1  0  0  0  0
 82 83  1  0  0  0  0
 83 84  1  0  0  0  0
 84 85  1  0  0  0  0
 85 86  1  0  0  0  0
 86 87  1  0  0  0  0
 87 88  1  0  0  0  0
 88 89  1  0  0  0  0
 89 90  1  0  0  0  0
 87 91  1  0  0  0  0
 91 92  1  0  0  0  0
 84 93  1  0  0  0  0
 93 94  1  0  0  0  0
 80 95  1  0  0  0  0
 95 96  2  0  0  0  0
 96 97  1  0  0  0  0
 97 98  1  0  0  0  0
 98 99  2  0  0  0  0
 99100  1  0  0  0  0
100101  2  0  0  0  0
101102  1  0  0  0  0
101103  1  0  0  0  0
103104  2  0  0  0  0
 97105  1  0  0  0  0
105106  2  0  0  0  0
106107  1  0  0  0  0
107108  2  0  0  0  0
108109  1  0  0  0  0
108110  1  0  0  0  0
110111  2  0  0  0  0
 96112  1  0  0  0  0
112113  1  0  0  0  0
113114  1  0  0  0  0
114115  2  0  0  0  0
115116  1  0  0  0  0
116117  1  0  0  0  0
117118  2  0  0  0  0
118119  1  0  0  0  0
119120  2  0  0  0  0
120121  1  0  0  0  0
120122  1  0  0  0  0
122123  2  0  0  0  0
116124  1  0  0  0  0
124125  2  0  0  0  0
125126  1  0  0  0  0
126127  2  0  0  0  0
127128  1  0  0  0  0
127129  1  0  0  0  0
129130  2  0  0  0  0
115131  1  0  0  0  0
131132  1  0  0  0  0
114133  1  0  0  0  0
133134  2  0  0  0  0
134135  1  0  0  0  0
135136  2  0  0  0  0
135137  1  0  0  0  0
137138  2  0  0  0  0
138139  1  0  0  0  0
139140  2  0  0  0  0
140141  1  0  0  0  0
141142  1  0  0  0  0
141143  2  0  0  0  0
143144  1  0  0  0  0
138145  1  0  0  0  0
145146  2  0  0  0  0
146147  1  0  0  0  0
147148  3  0  0  0  0
146149  1  0  0  0  0
149150  3  0  0  0  0
 16  2  1  0  0  0  0
 59 22  1  0  0  0  0
 90 60  1  0  0  0  0
132 95  1  0  0  0  0
145134  1  0  0  0  0
 15  5  1  0  0  0  0
 31 25  1  0  0  0  0
 38 32  1  0  0  0  0
 58 39  2  0  0  0  0
 89 64  2  0  0  0  0
104 98  1  0  0  0  0
111105  1  0  0  0  0
131112  2  0  0  0  0
143137  1  0  0  0  0
 13  7  1  0  0  0  0
 50 44  1  0  0  0  0
 57 51  1  0  0  0  0
 88 66  2  0  0  0  0
123117  1  0  0  0  0
130124  1  0  0  0  0
 86 67  2  0  0  0  0
 72 68  2  0  0  0  0
 85 73  2  0  0  0  0
 83 74  2  0  0  0  0
 82 76  2  0  0  0  0
  1151  1  0  0  0  0
  6152  1  0  0  0  0
  8153  1  0  0  0  0
  9154  1  0  0  0  0
 12155  1  0  0  0  0
 14156  1  0  0  0  0
 26157  1  0  0  0  0
 27158  1  0  0  0  0
 29159  1  0  0  0  0
 29160  1  0  0  0  0
 29161  1  0  0  0  0
 30162  1  0  0  0  0
 31163  1  0  0  0  0
 33164  1  0  0  0  0
 34165  1  0  0  0  0
 36166  1  0  0  0  0
 36167  1  0  0  0  0
 36168  1  0  0  0  0
 37169  1  0  0  0  0
 38170  1  0  0  0  0
 45171  1  0  0  0  0
 46172  1  0  0  0  0
 48173  1  0  0  0  0
 48174  1  0  0  0  0
 48175  1  0  0  0  0
 49176  1  0  0  0  0
 50177  1  0  0  0  0
 52178  1  0  0  0  0
 53179  1  0  0  0  0
 55180  1  0  0  0  0
 55181  1  0  0  0  0
 55182  1  0  0  0  0
 56183  1  0  0  0  0
 57184  1  0  0  0  0
 62185  1  0  0  0  0
 62186  1  0  0  0  0
 63187  1  0  0  0  0
 63188  1  0  0  0  0
 63189  1  0  0  0  0
 78190  1  0  0  0  0
 78191  1  0  0  0  0
 79192  1  0  0  0  0
 79193  1  0  0  0  0
 79194  1  0  0  0  0
 91195  1  0  0  0  0
 91196  1  0  0  0  0
 92197  1  0  0  0  0
 92198  1  0  0  0  0
 92199  1  0  0  0  0
 93200  1  0  0  0  0
 93201  1  0  0  0  0
 94202  1  0  0  0  0
 94203  1  0  0  0  0
 94204  1  0  0  0  0
 99205  1  0  0  0  0
100206  1  0  0  0  0
102207  1  0  0  0  0
102208  1  0  0  0  0
102209  1  0  0  0  0
103210  1  0  0  0  0
104211  1  0  0  0  0
106212  1  0  0  0  0
107213  1  0  0  0  0
109214  1  0  0  0  0
109215  1  0  0  0  0
109216  1  0  0  0  0
110217  1  0  0  0  0
111218  1  0  0  0  0
118219  1  0  0  0  0
119220  1  0  0  0  0
121221  1  0  0  0  0
121222  1  0  0  0  0
121223  1  0  0  0  0
122224  1  0  0  0  0
123225  1  0  0  0  0
125226  1  0  0  0  0
126227  1  0  0  0  0
128228  1  0  0  0  0
128229  1  0  0  0  0
128230  1  0  0  0  0
129231  1  0  0  0  0
130232  1  0  0  0  0
133233  1  0  0  0  0
139234  1  0  0  0  0
140235  1  0  0  0  0
M  END
