
  xtb     02072212303D
 energy: -445.677138612574 gnorm: 0.000376033454 xtb: 6.4.1 (unknown)
276303  0     0  0            999 V2000
   -3.0620    7.6019  -11.0153 C   0  0  0  0  0  0  0  0  0  0  0  0
   -3.0897    8.9335  -11.3819 C   0  0  0  0  0  0  0  0  0  0  0  0
   -3.3502   10.0651  -10.4949 C   0  0  0  0  0  0  0  0  0  0  0  0
   -3.5041   10.0516   -9.2841 O   0  0  0  0  0  0  0  0  0  0  0  0
   -3.4195   11.2565  -11.3621 C   0  0  0  0  0  0  0  0  0  0  0  0
   -3.6498   12.5553  -11.0170 C   0  0  0  0  0  0  0  0  0  0  0  0
   -3.6730   13.5425  -12.0288 C   0  0  0  0  0  0  0  0  0  0  0  0
   -3.9065   14.8998  -11.7311 C   0  0  0  0  0  0  0  0  0  0  0  0
   -3.9263   15.8453  -12.7191 C   0  0  0  0  0  0  0  0  0  0  0  0
   -3.7089   15.4443  -14.0434 C   0  0  0  0  0  0  0  0  0  0  0  0
   -3.7311   16.3892  -15.0037 F   0  0  0  0  0  0  0  0  0  0  0  0
   -3.4779   14.1412  -14.3866 C   0  0  0  0  0  0  0  0  0  0  0  0
   -3.4547   13.1550  -13.3819 C   0  0  0  0  0  0  0  0  0  0  0  0
   -3.2168   11.7980  -13.7074 C   0  0  0  0  0  0  0  0  0  0  0  0
   -3.2000   10.8603  -12.7113 C   0  0  0  0  0  0  0  0  0  0  0  0
   -2.9674    9.4166  -12.7338 C   0  0  0  0  0  0  0  0  0  0  0  0
   -2.6548    8.6866  -13.8580 C   0  0  0  0  0  0  0  0  0  0  0  0
   -2.2926    7.3275  -13.8799 C   0  0  0  0  0  0  0  0  0  0  0  0
   -1.9518    6.2337  -13.9860 N   0  0  0  0  0  0  0  0  0  0  0  0
   -2.6192    9.2209  -15.1602 C   0  0  0  0  0  0  0  0  0  0  0  0
   -2.5885    9.5850  -16.2497 N   0  0  0  0  0  0  0  0  0  0  0  0
   -3.1161    7.0109   -9.7598 C   0  0  0  0  0  0  0  0  0  0  0  0
   -3.0483    5.6028   -9.5671 C   0  0  0  0  0  0  0  0  0  0  0  0
   -3.1812    4.6603  -10.5464 N   0  0  0  0  0  0  0  0  0  0  0  0
   -4.0483    4.8169  -11.6446 C   0  0  0  0  0  0  0  0  0  0  0  0
   -3.7029    4.2741  -12.8797 C   0  0  0  0  0  0  0  0  0  0  0  0
   -4.5542    4.4160  -13.9569 C   0  0  0  0  0  0  0  0  0  0  0  0
   -5.7570    5.1024  -13.8379 C   0  0  0  0  0  0  0  0  0  0  0  0
   -6.6496    5.2758  -15.0276 C   0  0  0  0  0  0  0  0  0  0  0  0
   -6.0993    5.6253  -12.5961 C   0  0  0  0  0  0  0  0  0  0  0  0
   -5.2648    5.4803  -11.5060 C   0  0  0  0  0  0  0  0  0  0  0  0
   -2.5321    3.4185  -10.3845 C   0  0  0  0  0  0  0  0  0  0  0  0
   -1.1901    3.3772  -10.0183 C   0  0  0  0  0  0  0  0  0  0  0  0
   -0.5584    2.1618   -9.8470 C   0  0  0  0  0  0  0  0  0  0  0  0
   -1.2405    0.9664  -10.0404 C   0  0  0  0  0  0  0  0  0  0  0  0
   -0.5596   -0.3483   -9.8180 C   0  0  0  0  0  0  0  0  0  0  0  0
   -2.5761    1.0200  -10.4223 C   0  0  0  0  0  0  0  0  0  0  0  0
   -3.2208    2.2284  -10.5941 C   0  0  0  0  0  0  0  0  0  0  0  0
   -2.8219    5.2977   -8.2154 C   0  0  0  0  0  0  0  0  0  0  0  0
   -2.6260    3.8148   -7.3358 S   0  0  0  0  0  0  0  0  0  0  0  0
   -2.4640    4.7175   -5.8409 C   0  0  0  0  0  0  0  0  0  0  0  0
   -2.6453    6.0849   -6.0083 C   0  0  0  0  0  0  0  0  0  0  0  0
   -2.7283    7.0020   -4.9800 N   0  0  0  0  0  0  0  0  0  0  0  0
   -2.3375    8.3317   -5.2085 C   0  0  0  0  0  0  0  0  0  0  0  0
   -1.2057    8.6160   -5.9682 C   0  0  0  0  0  0  0  0  0  0  0  0
   -0.8601    9.9256   -6.2322 C   0  0  0  0  0  0  0  0  0  0  0  0
   -1.6188   10.9803   -5.7397 C   0  0  0  0  0  0  0  0  0  0  0  0
   -1.2562   12.3942   -6.0750 C   0  0  0  0  0  0  0  0  0  0  0  0
   -2.7256   10.6871   -4.9536 C   0  0  0  0  0  0  0  0  0  0  0  0
   -3.0875    9.3815   -4.6888 C   0  0  0  0  0  0  0  0  0  0  0  0
   -3.2197    6.6192   -3.7214 C   0  0  0  0  0  0  0  0  0  0  0  0
   -2.6000    7.0775   -2.5613 C   0  0  0  0  0  0  0  0  0  0  0  0
   -2.9976    6.6028   -1.3279 C   0  0  0  0  0  0  0  0  0  0  0  0
   -4.0113    5.6582   -1.2131 C   0  0  0  0  0  0  0  0  0  0  0  0
   -4.3885    5.1031    0.1254 C   0  0  0  0  0  0  0  0  0  0  0  0
   -4.6639    5.2498   -2.3692 C   0  0  0  0  0  0  0  0  0  0  0  0
   -4.2860    5.7302   -3.6075 C   0  0  0  0  0  0  0  0  0  0  0  0
   -2.8100    6.4079   -7.3782 C   0  0  0  0  0  0  0  0  0  0  0  0
   -3.0657    7.8906   -8.2273 S   0  0  0  0  0  0  0  0  0  0  0  0
   -2.2018    4.0395   -4.6109 C   0  0  0  0  0  0  0  0  0  0  0  0
   -1.3380    4.4332   -3.6193 C   0  0  0  0  0  0  0  0  0  0  0  0
   -1.4262    3.6069   -2.4953 C   0  0  0  0  0  0  0  0  0  0  0  0
   -0.6062    3.5738   -0.9648 S   0  0  0  0  0  0  0  0  0  0  0  0
   -1.5256    2.1717   -0.5210 C   0  0  0  0  0  0  0  0  0  0  0  0
   -1.5248    1.2551    0.5802 C   0  0  0  0  0  0  0  0  0  0  0  0
   -0.6878    1.1569    1.6878 C   0  0  0  0  0  0  0  0  0  0  0  0
   -0.8065    0.0283    2.4674 C   0  0  0  0  0  0  0  0  0  0  0  0
    0.0318   -0.3912    3.6668 C   0  0  0  0  0  0  0  0  0  0  0  0
   -0.3653    0.5432    4.8047 C   0  0  0  0  0  0  0  0  0  0  0  0
    0.2160    1.8034    4.8835 C   0  0  0  0  0  0  0  0  0  0  0  0
   -0.1603    2.6918    5.8719 C   0  0  0  0  0  0  0  0  0  0  0  0
   -1.1305    2.3517    6.8061 C   0  0  0  0  0  0  0  0  0  0  0  0
   -1.5052    3.3011    7.9073 C   0  0  0  0  0  0  0  0  0  0  0  0
   -0.6065    3.0863    9.1268 C   0  0  0  0  0  0  0  0  0  0  0  0
   -1.7090    1.0933    6.7230 C   0  0  0  0  0  0  0  0  0  0  0  0
   -1.3370    0.2007    5.7337 C   0  0  0  0  0  0  0  0  0  0  0  0
    1.5296   -0.3634    3.4547 C   0  0  0  0  0  0  0  0  0  0  0  0
    2.0998   -0.2956    2.1921 C   0  0  0  0  0  0  0  0  0  0  0  0
    3.4758   -0.2937    2.0428 C   0  0  0  0  0  0  0  0  0  0  0  0
    4.3169   -0.3742    3.1442 C   0  0  0  0  0  0  0  0  0  0  0  0
    5.8079   -0.3318    2.9827 C   0  0  0  0  0  0  0  0  0  0  0  0
    6.3098    1.1128    3.0266 C   0  0  0  0  0  0  0  0  0  0  0  0
    3.7421   -0.4439    4.4076 C   0  0  0  0  0  0  0  0  0  0  0  0
    2.3694   -0.4323    4.5613 C   0  0  0  0  0  0  0  0  0  0  0  0
   -0.4758   -1.7954    3.8901 C   0  0  0  0  0  0  0  0  0  0  0  0
   -1.5727   -2.0293    3.0945 C   0  0  0  0  0  0  0  0  0  0  0  0
   -1.7891   -0.9454    2.1842 C   0  0  0  0  0  0  0  0  0  0  0  0
   -2.6651   -0.8203    1.1125 C   0  0  0  0  0  0  0  0  0  0  0  0
   -2.5104    0.2810    0.3031 C   0  0  0  0  0  0  0  0  0  0  0  0
   -3.2219    0.5843   -1.0049 C   0  0  0  0  0  0  0  0  0  0  0  0
   -4.6447    1.0837   -0.8297 C   0  0  0  0  0  0  0  0  0  0  0  0
   -5.1632    1.4142    0.4135 C   0  0  0  0  0  0  0  0  0  0  0  0
   -6.4385    1.9416    0.5199 C   0  0  0  0  0  0  0  0  0  0  0  0
   -7.2196    2.1607   -0.6067 C   0  0  0  0  0  0  0  0  0  0  0  0
   -8.5750    2.7964   -0.4890 C   0  0  0  0  0  0  0  0  0  0  0  0
   -8.4547    4.3218   -0.5175 C   0  0  0  0  0  0  0  0  0  0  0  0
   -6.6935    1.8270   -1.8490 C   0  0  0  0  0  0  0  0  0  0  0  0
   -5.4248    1.2927   -1.9609 C   0  0  0  0  0  0  0  0  0  0  0  0
   -3.1460   -0.6390   -1.8913 C   0  0  0  0  0  0  0  0  0  0  0  0
   -2.0580   -0.8474   -2.7270 C   0  0  0  0  0  0  0  0  0  0  0  0
   -1.9581   -2.0083   -3.4707 C   0  0  0  0  0  0  0  0  0  0  0  0
   -2.9343   -2.9924   -3.3919 C   0  0  0  0  0  0  0  0  0  0  0  0
   -2.7853   -4.2829   -4.1447 C   0  0  0  0  0  0  0  0  0  0  0  0
   -1.9709   -5.2824   -3.3206 C   0  0  0  0  0  0  0  0  0  0  0  0
   -4.0209   -2.7789   -2.5542 C   0  0  0  0  0  0  0  0  0  0  0  0
   -4.1284   -1.6176   -1.8130 C   0  0  0  0  0  0  0  0  0  0  0  0
   -2.4236    1.7656   -1.4878 C   0  0  0  0  0  0  0  0  0  0  0  0
   -2.3684    2.5795   -2.6199 C   0  0  0  0  0  0  0  0  0  0  0  0
   -3.1219    2.6105   -4.1696 S   0  0  0  0  0  0  0  0  0  0  0  0
   -2.3055   -3.5860    3.3269 S   0  0  0  0  0  0  0  0  0  0  0  0
   -1.0688   -3.9458    4.4770 C   0  0  0  0  0  0  0  0  0  0  0  0
   -0.6878   -5.3931    5.3225 S   0  0  0  0  0  0  0  0  0  0  0  0
    0.8235   -4.6636    5.8591 C   0  0  0  0  0  0  0  0  0  0  0  0
    0.9429   -3.3618    5.4685 C   0  0  0  0  0  0  0  0  0  0  0  0
   -0.1370   -2.9210    4.6723 C   0  0  0  0  0  0  0  0  0  0  0  0
    1.8802   -5.4668    6.4033 C   0  0  0  0  0  0  0  0  0  0  0  0
    3.1572   -5.5115    5.8632 C   0  0  0  0  0  0  0  0  0  0  0  0
    3.5497   -4.8679    4.7006 N   0  0  0  0  0  0  0  0  0  0  0  0
    4.8235   -4.2896    4.6422 C   0  0  0  0  0  0  0  0  0  0  0  0
    5.3804   -3.7075    5.7788 C   0  0  0  0  0  0  0  0  0  0  0  0
    6.6505   -3.1685    5.7342 C   0  0  0  0  0  0  0  0  0  0  0  0
    7.3942   -3.1816    4.5606 C   0  0  0  0  0  0  0  0  0  0  0  0
    8.7791   -2.6111    4.5268 C   0  0  0  0  0  0  0  0  0  0  0  0
    6.8252   -3.7519    3.4275 C   0  0  0  0  0  0  0  0  0  0  0  0
    5.5602   -4.3021    3.4609 C   0  0  0  0  0  0  0  0  0  0  0  0
    2.6740   -4.8202    3.6036 C   0  0  0  0  0  0  0  0  0  0  0  0
    1.8462   -5.9020    3.3101 C   0  0  0  0  0  0  0  0  0  0  0  0
    0.9278   -5.8182    2.2827 C   0  0  0  0  0  0  0  0  0  0  0  0
    0.8126   -4.6663    1.5133 C   0  0  0  0  0  0  0  0  0  0  0  0
   -0.2060   -4.5730    0.4181 C   0  0  0  0  0  0  0  0  0  0  0  0
    1.6763   -3.6127    1.7813 C   0  0  0  0  0  0  0  0  0  0  0  0
    2.5939   -3.6799    2.8106 C   0  0  0  0  0  0  0  0  0  0  0  0
    3.9847   -6.3822    6.6086 C   0  0  0  0  0  0  0  0  0  0  0  0
    5.6495   -6.8035    6.5063 S   0  0  0  0  0  0  0  0  0  0  0  0
    5.4588   -7.9592    7.8372 C   0  0  0  0  0  0  0  0  0  0  0  0
    4.1566   -7.9149    8.3935 C   0  0  0  0  0  0  0  0  0  0  0  0
    3.7389   -8.5203    9.5392 N   0  0  0  0  0  0  0  0  0  0  0  0
    4.6110   -8.8857   10.5734 C   0  0  0  0  0  0  0  0  0  0  0  0
    4.4043  -10.0767   11.2670 C   0  0  0  0  0  0  0  0  0  0  0  0
    5.2884  -10.4700   12.2548 C   0  0  0  0  0  0  0  0  0  0  0  0
    6.3921   -9.6942   12.5806 C   0  0  0  0  0  0  0  0  0  0  0  0
    7.3846  -10.1398   13.6073 C   0  0  0  0  0  0  0  0  0  0  0  0
    6.5611   -8.4791   11.9190 C   0  0  0  0  0  0  0  0  0  0  0  0
    5.6878   -8.0750   10.9323 C   0  0  0  0  0  0  0  0  0  0  0  0
    2.3621   -8.7957    9.7112 C   0  0  0  0  0  0  0  0  0  0  0  0
    1.6391   -9.4207    8.6999 C   0  0  0  0  0  0  0  0  0  0  0  0
    0.2992   -9.6931    8.8836 C   0  0  0  0  0  0  0  0  0  0  0  0
   -0.3468   -9.3553   10.0688 C   0  0  0  0  0  0  0  0  0  0  0  0
   -1.8053   -9.6449   10.2417 C   0  0  0  0  0  0  0  0  0  0  0  0
    0.3900   -8.7429   11.0747 C   0  0  0  0  0  0  0  0  0  0  0  0
    1.7326   -8.4628   10.9044 C   0  0  0  0  0  0  0  0  0  0  0  0
    3.3357   -7.0359    7.6482 C   0  0  0  0  0  0  0  0  0  0  0  0
    1.6700   -6.5594    7.7525 S   0  0  0  0  0  0  0  0  0  0  0  0
    6.5777   -8.7234    8.1533 C   0  0  0  0  0  0  0  0  0  0  0  0
    6.5743   -9.9373    8.8186 C   0  0  0  0  0  0  0  0  0  0  0  0
    5.4389  -10.8634    8.7942 C   0  0  0  0  0  0  0  0  0  0  0  0
    4.3779  -10.7175    8.2183 O   0  0  0  0  0  0  0  0  0  0  0  0
    5.9116  -12.0819    9.4976 C   0  0  0  0  0  0  0  0  0  0  0  0
    7.2479  -11.9016    9.8949 C   0  0  0  0  0  0  0  0  0  0  0  0
    7.9160  -12.9122   10.5629 C   0  0  0  0  0  0  0  0  0  0  0  0
    7.2332  -14.0888   10.8406 C   0  0  0  0  0  0  0  0  0  0  0  0
    5.9108  -14.2543   10.4635 C   0  0  0  0  0  0  0  0  0  0  0  0
    5.0235  -15.8674   10.8989 Br  0  0  0  0  0  0  0  0  0  0  0  0
    5.2240  -13.2480    9.7757 C   0  0  0  0  0  0  0  0  0  0  0  0
    3.5817  -13.4393    9.3218 Cl  0  0  0  0  0  0  0  0  0  0  0  0
    7.6676  -10.5559    9.5028 C   0  0  0  0  0  0  0  0  0  0  0  0
    8.8364   -9.9385    9.8829 C   0  0  0  0  0  0  0  0  0  0  0  0
    9.1299   -8.5876    9.6141 C   0  0  0  0  0  0  0  0  0  0  0  0
    9.4159   -7.4858    9.4588 N   0  0  0  0  0  0  0  0  0  0  0  0
    9.8361  -10.5512   10.6584 C   0  0  0  0  0  0  0  0  0  0  0  0
   10.6738  -10.9987   11.3055 N   0  0  0  0  0  0  0  0  0  0  0  0
   -2.9678    6.8964  -11.8307 H   0  0  0  0  0  0  0  0  0  0  0  0
   -3.8125   12.8282   -9.9849 H   0  0  0  0  0  0  0  0  0  0  0  0
   -4.0717   15.1842  -10.7025 H   0  0  0  0  0  0  0  0  0  0  0  0
   -4.1042   16.8878  -12.5080 H   0  0  0  0  0  0  0  0  0  0  0  0
   -3.3140   13.8685  -15.4175 H   0  0  0  0  0  0  0  0  0  0  0  0
   -3.0551   11.5387  -14.7412 H   0  0  0  0  0  0  0  0  0  0  0  0
   -2.7640    3.7558  -12.9920 H   0  0  0  0  0  0  0  0  0  0  0  0
   -4.2700    4.0016  -14.9122 H   0  0  0  0  0  0  0  0  0  0  0  0
   -6.8231    4.3197  -15.5185 H   0  0  0  0  0  0  0  0  0  0  0  0
   -6.1797    5.9397  -15.7530 H   0  0  0  0  0  0  0  0  0  0  0  0
   -7.6073    5.7021  -14.7399 H   0  0  0  0  0  0  0  0  0  0  0  0
   -7.0376    6.1476  -12.4758 H   0  0  0  0  0  0  0  0  0  0  0  0
   -5.5496    5.8847  -10.5457 H   0  0  0  0  0  0  0  0  0  0  0  0
   -0.6487    4.3010   -9.8763 H   0  0  0  0  0  0  0  0  0  0  0  0
    0.4834    2.1413   -9.5626 H   0  0  0  0  0  0  0  0  0  0  0  0
   -0.6677   -0.6468   -8.7746 H   0  0  0  0  0  0  0  0  0  0  0  0
    0.5028   -0.2785  -10.0394 H   0  0  0  0  0  0  0  0  0  0  0  0
   -1.0009   -1.1250  -10.4377 H   0  0  0  0  0  0  0  0  0  0  0  0
   -3.1223    0.1016  -10.5802 H   0  0  0  0  0  0  0  0  0  0  0  0
   -4.2607    2.2583  -10.8838 H   0  0  0  0  0  0  0  0  0  0  0  0
   -0.6021    7.8053   -6.3509 H   0  0  0  0  0  0  0  0  0  0  0  0
    0.0134   10.1336   -6.8332 H   0  0  0  0  0  0  0  0  0  0  0  0
   -1.7965   13.0964   -5.4452 H   0  0  0  0  0  0  0  0  0  0  0  0
   -0.1873   12.5602   -5.9528 H   0  0  0  0  0  0  0  0  0  0  0  0
   -1.5092   12.5996   -7.1153 H   0  0  0  0  0  0  0  0  0  0  0  0
   -3.3256   11.4923   -4.5546 H   0  0  0  0  0  0  0  0  0  0  0  0
   -3.9597    9.1649   -4.0895 H   0  0  0  0  0  0  0  0  0  0  0  0
   -1.7885    7.7866   -2.6382 H   0  0  0  0  0  0  0  0  0  0  0  0
   -2.4903    6.9475   -0.4383 H   0  0  0  0  0  0  0  0  0  0  0  0
   -3.4982    4.8500    0.6989 H   0  0  0  0  0  0  0  0  0  0  0  0
   -4.9987    4.2101    0.0158 H   0  0  0  0  0  0  0  0  0  0  0  0
   -4.9530    5.8414    0.6957 H   0  0  0  0  0  0  0  0  0  0  0  0
   -5.4664    4.5291   -2.3001 H   0  0  0  0  0  0  0  0  0  0  0  0
   -4.7999    5.3961   -4.4971 H   0  0  0  0  0  0  0  0  0  0  0  0
   -0.6670    5.2665   -3.7138 H   0  0  0  0  0  0  0  0  0  0  0  0
    0.0577    1.9129    1.8805 H   0  0  0  0  0  0  0  0  0  0  0  0
    0.9775    2.0875    4.1721 H   0  0  0  0  0  0  0  0  0  0  0  0
    0.3042    3.6667    5.9165 H   0  0  0  0  0  0  0  0  0  0  0  0
   -1.4002    4.3309    7.5600 H   0  0  0  0  0  0  0  0  0  0  0  0
   -2.5464    3.1418    8.1954 H   0  0  0  0  0  0  0  0  0  0  0  0
   -0.8745    3.7756    9.9241 H   0  0  0  0  0  0  0  0  0  0  0  0
    0.4357    3.2494    8.8615 H   0  0  0  0  0  0  0  0  0  0  0  0
   -0.7095    2.0688    9.4976 H   0  0  0  0  0  0  0  0  0  0  0  0
   -2.4655    0.8055    7.4393 H   0  0  0  0  0  0  0  0  0  0  0  0
   -1.8098   -0.7693    5.6929 H   0  0  0  0  0  0  0  0  0  0  0  0
    1.4690   -0.2349    1.3173 H   0  0  0  0  0  0  0  0  0  0  0  0
    3.9025   -0.2357    1.0514 H   0  0  0  0  0  0  0  0  0  0  0  0
    6.2796   -0.9034    3.7833 H   0  0  0  0  0  0  0  0  0  0  0  0
    6.0898   -0.7841    2.0298 H   0  0  0  0  0  0  0  0  0  0  0  0
    6.0505    1.5739    3.9771 H   0  0  0  0  0  0  0  0  0  0  0  0
    5.8566    1.6970    2.2286 H   0  0  0  0  0  0  0  0  0  0  0  0
    7.3904    1.1433    2.9091 H   0  0  0  0  0  0  0  0  0  0  0  0
    4.3798   -0.5097    5.2779 H   0  0  0  0  0  0  0  0  0  0  0  0
    1.9388   -0.4573    5.5523 H   0  0  0  0  0  0  0  0  0  0  0  0
   -3.3994   -1.5834    0.9044 H   0  0  0  0  0  0  0  0  0  0  0  0
   -4.5710    1.2638    1.3042 H   0  0  0  0  0  0  0  0  0  0  0  0
   -6.8293    2.1916    1.4962 H   0  0  0  0  0  0  0  0  0  0  0  0
   -9.2106    2.4698   -1.3144 H   0  0  0  0  0  0  0  0  0  0  0  0
   -9.0467    2.4912    0.4474 H   0  0  0  0  0  0  0  0  0  0  0  0
   -9.4359    4.7824   -0.4297 H   0  0  0  0  0  0  0  0  0  0  0  0
   -7.8335    4.6685    0.3054 H   0  0  0  0  0  0  0  0  0  0  0  0
   -8.0005    4.6508   -1.4496 H   0  0  0  0  0  0  0  0  0  0  0  0
   -7.2842    1.9875   -2.7398 H   0  0  0  0  0  0  0  0  0  0  0  0
   -5.0328    1.0342   -2.9339 H   0  0  0  0  0  0  0  0  0  0  0  0
   -1.2814   -0.0992   -2.7956 H   0  0  0  0  0  0  0  0  0  0  0  0
   -1.1061   -2.1533   -4.1198 H   0  0  0  0  0  0  0  0  0  0  0  0
   -2.2795   -4.1032   -5.0956 H   0  0  0  0  0  0  0  0  0  0  0  0
   -3.7693   -4.7063   -4.3554 H   0  0  0  0  0  0  0  0  0  0  0  0
   -0.9788   -4.8845   -3.1191 H   0  0  0  0  0  0  0  0  0  0  0  0
   -1.8670   -6.2238   -3.8551 H   0  0  0  0  0  0  0  0  0  0  0  0
   -2.4607   -5.4741   -2.3684 H   0  0  0  0  0  0  0  0  0  0  0  0
   -4.7929   -3.5318   -2.4797 H   0  0  0  0  0  0  0  0  0  0  0  0
   -4.9846   -1.4666   -1.1711 H   0  0  0  0  0  0  0  0  0  0  0  0
    1.7992   -2.7592    5.7063 H   0  0  0  0  0  0  0  0  0  0  0  0
    4.8101   -3.6761    6.6964 H   0  0  0  0  0  0  0  0  0  0  0  0
    7.0702   -2.7249    6.6257 H   0  0  0  0  0  0  0  0  0  0  0  0
    8.8527   -1.7311    5.1628 H   0  0  0  0  0  0  0  0  0  0  0  0
    9.0635   -2.3396    3.5129 H   0  0  0  0  0  0  0  0  0  0  0  0
    9.4935   -3.3485    4.8942 H   0  0  0  0  0  0  0  0  0  0  0  0
    7.3862   -3.7735    2.5044 H   0  0  0  0  0  0  0  0  0  0  0  0
    5.1372   -4.7523    2.5754 H   0  0  0  0  0  0  0  0  0  0  0  0
    1.9160   -6.8050    3.8993 H   0  0  0  0  0  0  0  0  0  0  0  0
    0.2812   -6.6603    2.0817 H   0  0  0  0  0  0  0  0  0  0  0  0
    0.1540   -5.0820   -0.4765 H   0  0  0  0  0  0  0  0  0  0  0  0
   -0.4080   -3.5352    0.1612 H   0  0  0  0  0  0  0  0  0  0  0  0
   -1.1382   -5.0470    0.7183 H   0  0  0  0  0  0  0  0  0  0  0  0
    1.6165   -2.7118    1.1897 H   0  0  0  0  0  0  0  0  0  0  0  0
    3.2397   -2.8414    3.0172 H   0  0  0  0  0  0  0  0  0  0  0  0
    3.5557  -10.6958   11.0176 H   0  0  0  0  0  0  0  0  0  0  0  0
    5.1225  -11.4060   12.7682 H   0  0  0  0  0  0  0  0  0  0  0  0
    7.0601  -11.0573   14.0910 H   0  0  0  0  0  0  0  0  0  0  0  0
    8.3545  -10.3193   13.1429 H   0  0  0  0  0  0  0  0  0  0  0  0
    7.5217   -9.3709   14.3657 H   0  0  0  0  0  0  0  0  0  0  0  0
    7.3967   -7.8451   12.1773 H   0  0  0  0  0  0  0  0  0  0  0  0
    5.8414   -7.1308   10.4318 H   0  0  0  0  0  0  0  0  0  0  0  0
    2.1475   -9.7147    7.7951 H   0  0  0  0  0  0  0  0  0  0  0  0
   -0.2559  -10.1843    8.0980 H   0  0  0  0  0  0  0  0  0  0  0  0
   -2.3940   -8.9759    9.6141 H   0  0  0  0  0  0  0  0  0  0  0  0
   -2.0316  -10.6662    9.9413 H   0  0  0  0  0  0  0  0  0  0  0  0
   -2.1123   -9.5058   11.2749 H   0  0  0  0  0  0  0  0  0  0  0  0
   -0.0914   -8.4779   12.0047 H   0  0  0  0  0  0  0  0  0  0  0  0
    2.2972   -7.9853   11.6921 H   0  0  0  0  0  0  0  0  0  0  0  0
    7.5245   -8.3378    7.7943 H   0  0  0  0  0  0  0  0  0  0  0  0
    8.9445  -12.8095   10.8665 H   0  0  0  0  0  0  0  0  0  0  0  0
    7.7338  -14.8899   11.3623 H   0  0  0  0  0  0  0  0  0  0  0  0
  1  2  2  0  0  0  0
  2  3  1  0  0  0  0
  3  4  2  0  0  0  0
  3  5  1  0  0  0  0
  5  6  2  0  0  0  0
  6  7  1  0  0  0  0
  7  8  2  0  0  0  0
  8  9  1  0  0  0  0
  9 10  2  0  0  0  0
 10 11  1  0  0  0  0
 10 12  1  0  0  0  0
 12 13  2  0  0  0  0
 13 14  1  0  0  0  0
 14 15  2  0  0  0  0
 15 16  1  0  0  0  0
 16 17  2  0  0  0  0
 17 18  1  0  0  0  0
 18 19  3  0  0  0  0
 17 20  1  0  0  0  0
 20 21  3  0  0  0  0
  1 22  1  0  0  0  0
 22 23  2  0  0  0  0
 23 24  1  0  0  0  0
 24 25  1  0  0  0  0
 25 26  2  0  0  0  0
 26 27  1  0  0  0  0
 27 28  2  0  0  0  0
 28 29  1  0  0  0  0
 28 30  1  0  0  0  0
 30 31  2  0  0  0  0
 24 32  1  0  0  0  0
 32 33  2  0  0  0  0
 33 34  1  0  0  0  0
 34 35  2  0  0  0  0
 35 36  1  0  0  0  0
 35 37  1  0  0  0  0
 37 38  2  0  0  0  0
 23 39  1  0  0  0  0
 39 40  1  0  0  0  0
 40 41  1  0  0  0  0
 41 42  2  0  0  0  0
 42 43  1  0  0  0  0
 43 44  1  0  0  0  0
 44 45  2  0  0  0  0
 45 46  1  0  0  0  0
 46 47  2  0  0  0  0
 47 48  1  0  0  0  0
 47 49  1  0  0  0  0
 49 50  2  0  0  0  0
 43 51  1  0  0  0  0
 51 52  2  0  0  0  0
 52 53  1  0  0  0  0
 53 54  2  0  0  0  0
 54 55  1  0  0  0  0
 54 56  1  0  0  0  0
 56 57  2  0  0  0  0
 42 58  1  0  0  0  0
 58 59  1  0  0  0  0
 41 60  1  0  0  0  0
 60 61  2  0  0  0  0
 61 62  1  0  0  0  0
 62 63  1  0  0  0  0
 63 64  1  0  0  0  0
 64 65  1  0  0  0  0
 65 66  2  0  0  0  0
 66 67  1  0  0  0  0
 67 68  1  0  0  0  0
 68 69  1  0  0  0  0
 69 70  2  0  0  0  0
 70 71  1  0  0  0  0
 71 72  2  0  0  0  0
 72 73  1  0  0  0  0
 73 74  1  0  0  0  0
 72 75  1  0  0  0  0
 75 76  2  0  0  0  0
 68 77  1  0  0  0  0
 77 78  2  0  0  0  0
 78 79  1  0  0  0  0
 79 80  2  0  0  0  0
 80 81  1  0  0  0  0
 81 82  1  0  0  0  0
 80 83  1  0  0  0  0
 83 84  2  0  0  0  0
 68 85  1  0  0  0  0
 85 86  2  0  0  0  0
 86 87  1  0  0  0  0
 87 88  1  0  0  0  0
 88 89  2  0  0  0  0
 89 90  1  0  0  0  0
 90 91  1  0  0  0  0
 91 92  2  0  0  0  0
 92 93  1  0  0  0  0
 93 94  2  0  0  0  0
 94 95  1  0  0  0  0
 95 96  1  0  0  0  0
 94 97  1  0  0  0  0
 97 98  2  0  0  0  0
 90 99  1  0  0  0  0
 99100  2  0  0  0  0
100101  1  0  0  0  0
101102  2  0  0  0  0
102103  1  0  0  0  0
103104  1  0  0  0  0
102105  1  0  0  0  0
105106  2  0  0  0  0
 90107  1  0  0  0  0
107108  1  0  0  0  0
108109  1  0  0  0  0
 86110  1  0  0  0  0
110111  1  0  0  0  0
111112  1  0  0  0  0
112113  1  0  0  0  0
113114  2  0  0  0  0
114115  1  0  0  0  0
113116  1  0  0  0  0
116117  2  0  0  0  0
117118  1  0  0  0  0
118119  1  0  0  0  0
119120  2  0  0  0  0
120121  1  0  0  0  0
121122  2  0  0  0  0
122123  1  0  0  0  0
122124  1  0  0  0  0
124125  2  0  0  0  0
118126  1  0  0  0  0
126127  2  0  0  0  0
127128  1  0  0  0  0
128129  2  0  0  0  0
129130  1  0  0  0  0
129131  1  0  0  0  0
131132  2  0  0  0  0
117133  1  0  0  0  0
133134  1  0  0  0  0
134135  1  0  0  0  0
135136  2  0  0  0  0
136137  1  0  0  0  0
137138  1  0  0  0  0
138139  2  0  0  0  0
139140  1  0  0  0  0
140141  2  0  0  0  0
141142  1  0  0  0  0
141143  1  0  0  0  0
143144  2  0  0  0  0
137145  1  0  0  0  0
145146  2  0  0  0  0
146147  1  0  0  0  0
147148  2  0  0  0  0
148149  1  0  0  0  0
148150  1  0  0  0  0
150151  2  0  0  0  0
136152  1  0  0  0  0
152153  1  0  0  0  0
135154  1  0  0  0  0
154155  2  0  0  0  0
155156  1  0  0  0  0
156157  2  0  0  0  0
156158  1  0  0  0  0
158159  2  0  0  0  0
159160  1  0  0  0  0
160161  2  0  0  0  0
161162  1  0  0  0  0
162163  1  0  0  0  0
162164  2  0  0  0  0
164165  1  0  0  0  0
159166  1  0  0  0  0
166167  2  0  0  0  0
167168  1  0  0  0  0
168169  3  0  0  0  0
167170  1  0  0  0  0
170171  3  0  0  0  0
 16  2  1  0  0  0  0
 59 22  1  0  0  0  0
109 60  1  0  0  0  0
115111  2  0  0  0  0
153116  1  0  0  0  0
166155  1  0  0  0  0
 15  5  1  0  0  0  0
 31 25  1  0  0  0  0
 38 32  1  0  0  0  0
 58 39  2  0  0  0  0
108 62  2  0  0  0  0
125119  1  0  0  0  0
132126  1  0  0  0  0
152133  2  0  0  0  0
164158  1  0  0  0  0
 13  7  1  0  0  0  0
 50 44  1  0  0  0  0
 57 51  1  0  0  0  0
107 64  2  0  0  0  0
144138  1  0  0  0  0
151145  1  0  0  0  0
 89 65  1  0  0  0  0
 98 91  1  0  0  0  0
106 99  1  0  0  0  0
 87 67  2  0  0  0  0
 76 69  1  0  0  0  0
 84 77  1  0  0  0  0
115 85  1  0  0  0  0
  1172  1  0  0  0  0
  6173  1  0  0  0  0
  8174  1  0  0  0  0
  9175  1  0  0  0  0
 12176  1  0  0  0  0
 14177  1  0  0  0  0
 26178  1  0  0  0  0
 27179  1  0  0  0  0
 29180  1  0  0  0  0
 29181  1  0  0  0  0
 29182  1  0  0  0  0
 30183  1  0  0  0  0
 31184  1  0  0  0  0
 33185  1  0  0  0  0
 34186  1  0  0  0  0
 36187  1  0  0  0  0
 36188  1  0  0  0  0
 36189  1  0  0  0  0
 37190  1  0  0  0  0
 38191  1  0  0  0  0
 45192  1  0  0  0  0
 46193  1  0  0  0  0
 48194  1  0  0  0  0
 48195  1  0  0  0  0
 48196  1  0  0  0  0
 49197  1  0  0  0  0
 50198  1  0  0  0  0
 52199  1  0  0  0  0
 53200  1  0  0  0  0
 55201  1  0  0  0  0
 55202  1  0  0  0  0
 55203  1  0  0  0  0
 56204  1  0  0  0  0
 57205  1  0  0  0  0
 61206  1  0  0  0  0
 66207  1  0  0  0  0
 70208  1  0  0  0  0
 71209  1  0  0  0  0
 73210  1  0  0  0  0
 73211  1  0  0  0  0
 74212  1  0  0  0  0
 74213  1  0  0  0  0
 74214  1  0  0  0  0
 75215  1  0  0  0  0
 76216  1  0  0  0  0
 78217  1  0  0  0  0
 79218  1  0  0  0  0
 81219  1  0  0  0  0
 81220  1  0  0  0  0
 82221  1  0  0  0  0
 82222  1  0  0  0  0
 82223  1  0  0  0  0
 83224  1  0  0  0  0
 84225  1  0  0  0  0
 88226  1  0  0  0  0
 92227  1  0  0  0  0
 93228  1  0  0  0  0
 95229  1  0  0  0  0
 95230  1  0  0  0  0
 96231  1  0  0  0  0
 96232  1  0  0  0  0
 96233  1  0  0  0  0
 97234  1  0  0  0  0
 98235  1  0  0  0  0
100236  1  0  0  0  0
101237  1  0  0  0  0
103238  1  0  0  0  0
103239  1  0  0  0  0
104240  1  0  0  0  0
104241  1  0  0  0  0
104242  1  0  0  0  0
105243  1  0  0  0  0
106244  1  0  0  0  0
114245  1  0  0  0  0
120246  1  0  0  0  0
121247  1  0  0  0  0
123248  1  0  0  0  0
123249  1  0  0  0  0
123250  1  0  0  0  0
124251  1  0  0  0  0
125252  1  0  0  0  0
127253  1  0  0  0  0
128254  1  0  0  0  0
130255  1  0  0  0  0
130256  1  0  0  0  0
130257  1  0  0  0  0
131258  1  0  0  0  0
132259  1  0  0  0  0
139260  1  0  0  0  0
140261  1  0  0  0  0
142262  1  0  0  0  0
142263  1  0  0  0  0
142264  1  0  0  0  0
143265  1  0  0  0  0
144266  1  0  0  0  0
146267  1  0  0  0  0
147268  1  0  0  0  0
149269  1  0  0  0  0
149270  1  0  0  0  0
149271  1  0  0  0  0
150272  1  0  0  0  0
151273  1  0  0  0  0
154274  1  0  0  0  0
160275  1  0  0  0  0
161276  1  0  0  0  0
M  END
