243

C         -0.87160        8.56490       -5.95750
C         -0.69830        8.27570       -7.30050
C         -0.07880        7.03640       -7.78600
O          0.40470        6.13580       -7.12230
C         -0.27510        7.04160       -9.25090
C          0.10300        6.10860      -10.16860
C         -0.18600        6.32990      -11.53550
C          0.18480        5.40070      -12.52730
C         -0.10560        5.62150      -13.84570
C         -0.78040        6.79570      -14.20130
F         -1.05750        6.99840      -15.50480
C         -1.16120        7.73060      -13.27900
C         -0.87150        7.51800      -11.91780
C         -1.25540        8.46640      -10.93870
C         -0.95820        8.23190       -9.62540
C         -1.20720        9.01380       -8.41650
C         -1.69830       10.29880       -8.37730
C         -1.80030       11.06440       -7.20090
N         -1.88070       11.75380       -6.28480
C         -2.08010       11.02960       -9.51510
N         -2.38850       11.67920      -10.41220
C         -0.08550        8.07960       -4.91780
C          1.24350        7.58960       -4.90200
N          2.16610        7.71490       -5.89400
C          3.30370        6.87460       -5.89580
C          3.16570        5.49460       -5.78790
C          4.29030        4.69470       -5.75970
C          5.56540        5.24430       -5.83970
C          6.77230        4.35960       -5.80450
C          5.68670        6.62070       -5.98100
C          4.57010        7.43380       -6.01470
C          2.07190        8.66750       -6.92030
C          2.40900        8.30670       -8.22260
C          2.27540        9.21780       -9.25400
C          1.81710       10.50650       -9.01730
C          1.62320       11.48240      -10.13440
C          1.53310       10.87410       -7.70330
C          1.65630        9.97370       -6.66650
C          1.54300        7.03490       -3.63800
S          2.93490        6.23920       -2.97590
C          2.11360        6.03630       -1.43680
C          0.86010        6.64080       -1.42010
N          0.03860        6.72970       -0.30820
C          0.57550        7.03250        0.94850
C          1.72100        7.81720        1.06670
C          2.27180        8.06350        2.30690
C          1.69720        7.55040        3.46500
C          2.31870        7.81980        4.80110
C          0.54420        6.78660        3.34200
C         -0.01170        6.52390        2.10520
C         -1.34960        6.62460       -0.49220
C         -2.22630        7.46740        0.18470
C         -3.58680        7.35680       -0.01880
C         -4.10880        6.41830       -0.90160
C         -5.58460        6.32890       -1.14120
C         -3.22570        5.58290       -1.57420
C         -1.86320        5.67640       -1.37260
C          0.54230        7.18180       -2.68500
S         -0.82970        8.01840       -3.30920
C          2.66970        5.17640       -0.44940
C          3.98870        4.78210       -0.29510
C          5.11250        5.41360       -0.98610
C          6.09560        4.63980       -1.59440
C          7.13590        5.25440       -2.26470
C          7.20480        6.63420       -2.33680
C          6.24520        7.42240       -1.71410
C          6.28560        8.92000       -1.81520
C          5.45160        9.38540       -3.01000
C          5.20880        6.80090       -1.03740
C          4.10330        3.71670        0.61790
S          5.46220        2.77630        1.19150
C          4.37460        1.81890        2.14370
C          4.38270        0.64590        2.91880
C          5.39020       -0.31510        3.16020
C          5.02280       -1.58620        3.72680
N          6.04650       -2.42220        3.79510
S          7.36170       -1.67500        3.21480
N          6.67310       -0.25760        2.84120
C          3.69140       -1.79120        4.15000
C          3.02370       -2.90260        4.69840
S          3.29090       -4.59270        4.97650
C          1.60550       -4.77090        5.40180
C          0.78610       -5.90470        5.59440
C          1.30220       -7.27430        5.63940
C          1.00210       -8.10550        6.71400
C          1.52340       -9.38430        6.76300
C          2.35080       -9.83770        5.75120
C          2.67150       -9.01660        4.67740
C          3.62540       -9.47300        3.61130
C          5.04400       -9.00310        3.93950
C          2.14240       -7.73600        4.63350
C         -0.54400       -5.54830        5.66860
S         -0.77040       -3.80090        5.69360
C          0.91030       -3.56470        5.38790
C          1.71690       -2.49850        4.97690
N          1.54390       -1.18470        4.62960
C          2.73020       -0.74870        4.06630
C          3.03820        0.41480        3.32070
N          2.23760        1.39940        2.77460
C          3.04470        2.23810        2.05420
C          2.88780        3.31360        1.17300
S          1.57050        4.24040        0.55660
C          0.80370        1.45660        2.60300
C          0.18020        2.62750        3.36210
C          0.51850       -0.38890        5.26720
C          0.58830       -0.50730        6.78940
C         -1.70750       -6.35770        5.45030
C         -2.67840       -6.09270        4.49550
N         -2.67500       -5.04220        3.58550
C         -1.50090       -4.61820        2.95360
C         -1.33080       -3.27340        2.62270
C         -0.14680       -2.83440        2.06590
C          0.90310       -3.71050        1.82240
C          2.19840       -3.23550        1.23880
C          0.71510       -5.05360        2.12560
C         -0.46460       -5.50930        2.67960
C         -3.90970       -4.45570        3.26570
C         -4.85950       -4.24240        4.26180
C         -6.08810       -3.69790        3.94580
C         -6.39960       -3.34080        2.63980
C         -7.74370       -2.77420        2.29960
C         -5.44110       -3.54560        1.65410
C         -4.21340       -4.10000        1.95440
C         -3.68330       -7.09070        4.50650
S         -5.15090       -7.32000        3.62550
C         -5.41890       -8.85040        4.44720
C         -4.44670       -9.12930        5.39470
N         -4.46560      -10.20640        6.26360
C         -5.69200      -10.66930        6.76540
C         -6.69690       -9.76610        7.10680
C         -7.93400      -10.22190        7.51070
C         -8.20450      -11.58360        7.60140
C         -9.56870      -12.05850        7.99540
C         -7.18460      -12.47640        7.30220
C         -5.94390      -12.03240        6.88620
C         -3.26330      -10.84530        6.59420
C         -2.23420      -10.94580        5.66130
C         -1.05220      -11.57970        5.99190
C         -0.86890      -12.14270        7.24720
C          0.39150      -12.87410        7.59630
C         -1.89990      -12.03520        8.17500
C         -3.07900      -11.39140        7.86280
C         -3.45650       -8.11480        5.40940
S         -1.99600       -7.86800        6.29890
C         -6.57280       -9.63630        4.13200
C         -6.65650      -11.00460        4.01680
C         -7.95360      -11.46100        3.77100
C         -8.87100      -10.44070        3.68710
C        -10.24250      -10.55530        3.47000
N        -11.37490      -10.66030        3.30710
S         -8.12350       -8.88740        3.90950
H         -1.72090        9.17090       -5.66550
H          0.62010        5.21160       -9.86120
H          0.70340        4.50190      -12.22800
H          0.16850        4.91820      -14.61600
H         -1.67980        8.62430      -13.58960
H         -1.78290        9.35150      -11.25690
H          2.17500        5.06930       -5.75070
H          4.17870        3.62380       -5.67460
H          6.67950        3.62270       -5.00970
H          6.87250        3.82300       -6.74830
H          7.67620        4.94110       -5.64390
H          6.66860        7.06420       -6.06110
H          4.67000        8.50390       -6.12550
H          2.75870        7.30460       -8.42100
H          2.51810        8.91290      -10.26180
H          2.15170       12.41140       -9.92690
H          1.98340       11.07430      -11.07520
H          0.56620       11.72410      -10.24660
H          1.20070       11.88010       -7.49310
H          1.42400       10.27940       -5.65750
H          2.17180        8.23890        0.18010
H          3.16230        8.67130        2.38120
H          1.69810        7.43210        5.60490
H          2.45470        8.89000        4.95000
H          3.29990        7.34930        4.86340
H          0.07640        6.37870        4.22690
H         -0.89850        5.91310        2.02460
H         -1.83460        8.21060        0.86330
H         -4.25610        8.01990        0.50990
H         -5.86930        6.99850       -1.95350
H         -5.87250        5.31850       -1.42230
H         -6.14110        6.62220       -0.25410
H         -3.60980        4.84400       -2.26250
H         -1.18820        5.01250       -1.89320
H          6.03360        3.56310       -1.54950
H          7.89950        4.65230       -2.73450
H          8.01740        7.10640       -2.86990
H          5.88650        9.36390       -0.90080
H          7.31550        9.25980       -1.93880
H          4.42360        9.04290       -2.91050
H          5.85580        8.97260       -3.93080
H          5.45370       10.47090       -3.07980
H          4.46480        7.39910       -0.53040
H          0.38710       -7.73750        7.52170
H          1.28570      -10.02430        7.59850
H          2.76370      -10.83570        5.79790
H          3.32600       -9.06250        2.64470
H          3.61210      -10.56250        3.53910
H          5.36580       -9.41310        4.89420
H          5.07670       -7.91800        4.00630
H          5.74040       -9.32680        3.16950
H          2.38090       -7.08650        3.80440
H          0.60400        1.59560        1.53380
H          0.36840        0.50390        2.90330
H         -0.90080        2.59510        3.25920
H          0.43240        2.60130        4.41990
H          0.53720        3.57030        2.95580
H          0.67120        0.65230        4.99920
H         -0.46430       -0.72440        4.91770
H          1.57830       -0.22770        7.14380
H         -0.14510        0.15730        7.23820
H          0.37520       -1.52190        7.11280
H         -2.12760       -2.57390        2.82930
H         -0.03110       -1.78650        1.82540
H          2.30110       -3.58560        0.21140
H          2.25220       -2.14900        1.23830
H          3.04160       -3.62350        1.80770
H          1.51030       -5.75610        1.92190
H         -0.58530       -6.55850        2.90700
H         -4.62550       -4.50260        5.28410
H         -6.81630       -3.54300        4.72870
H         -8.14570       -2.20120        3.13220
H         -7.68520       -2.13250        1.42360
H         -8.44210       -3.58240        2.07990
H         -5.66380       -3.27750        0.63130
H         -3.48420       -4.26670        1.17510
H         -6.50460       -8.70500        7.04160
H         -8.70790       -9.50970        7.75790
H        -10.28470      -11.83640        7.20350
H         -9.90620      -11.55290        8.89860
H         -9.57310      -13.13110        8.17110
H         -7.36640      -13.53890        7.37650
H         -5.16820      -12.74190        6.63720
H         -2.36710      -10.53620        4.67040
H         -0.26490      -11.64320        5.25500
H          0.75300      -12.57610        8.57910
H          1.16770      -12.68260        6.86030
H          0.20500      -13.94820        7.62510
H         -1.77320      -12.45890        9.16100
H         -3.86640      -11.30750        8.59720
H         -5.79990      -11.64930        4.08740
H         -8.22010      -12.49600        3.65340
