212

C         -7.93320        4.12500        4.87900
C         -7.86980        4.89590        6.02090
C         -6.68870        5.09970        6.85910
O         -5.61480        4.52470        6.79240
C         -7.04370        6.16880        7.81100
C         -6.27660        6.74110        8.78240
C         -6.82840        7.77210        9.57670
C         -6.08100        8.40200       10.59180
C         -6.62500        9.40040       11.35190
C         -7.94730        9.79280       11.10730
F         -8.46660       10.77800       11.86500
C         -8.71620        9.21460       10.13580
C         -8.17170        8.18530        9.34400
C         -8.94400        7.56740        8.33140
C         -8.38780        6.57300        7.57370
C         -8.92810        5.75740        6.48740
C        -10.22330        5.81140        6.02700
C        -10.79500        4.93110        5.09020
N        -11.34950        4.23260        4.36370
C        -11.17800        6.74920        6.46510
N        -11.99550        7.50270        6.75580
C         -6.97900        3.30930        4.27990
C         -7.18870        2.66850        3.02890
N         -8.23980        2.88480        2.18200
C         -8.64790        1.82340        1.34800
C         -8.82660        0.55120        1.88420
C         -9.21080       -0.49340        1.06960
C         -9.42320       -0.30090       -0.29030
C         -9.79650       -1.45220       -1.17030
C         -9.25780        0.97650       -0.81220
C         -8.87580        2.03180       -0.00790
C         -8.83490        4.14740        2.00220
C        -10.19990        4.23920        1.74350
C        -10.78710        5.47680        1.57030
C        -10.04140        6.64600        1.66100
C        -10.70460        7.98130        1.52580
C         -8.67490        6.54130        1.89670
C         -8.07040        5.31080        2.05510
C         -6.14330        1.77260        2.74650
S         -5.76470        0.73630        1.40790
C         -4.24260        0.27950        2.16930
C         -4.03780        0.93630        3.36990
N         -2.95100        0.75750        4.22350
C         -3.22680        0.53850        5.58020
C         -4.33050       -0.22870        5.94540
C         -4.62730       -0.43760        7.27700
C         -3.83200        0.10000        8.28040
C         -4.16780       -0.10770        9.72540
C         -2.72950        0.86030        7.90830
C         -2.42780        1.08510        6.58070
C         -1.65930        1.04530        3.77550
C         -0.57040        0.30490        4.23040
C          0.69490        0.56360        3.74350
C          0.91340        1.56250        2.80250
C          2.28510        1.84300        2.26630
C         -0.17410        2.31240        2.37020
C         -1.44530        2.06360        2.84650
C         -5.13630        1.76690        3.70080
S         -5.43290        2.85470        5.00810
C         -3.43480       -0.68870        1.48400
C         -3.88570       -1.86310        0.90860
C         -5.21660       -2.43300        1.11630
C         -5.87180       -3.09960        0.08490
C         -7.10450       -3.68020        0.31360
C         -7.69710       -3.60000        1.56150
C         -7.06300       -2.93060        2.60090
C         -7.67450       -2.86270        3.97140
C         -7.10250       -3.96030        4.87040
C         -5.82250       -2.36120        2.36700
C         -2.86070       -2.50540        0.17990
S         -2.78830       -4.00270       -0.72090
C         -1.11630       -3.69670       -1.05630
C         -0.03330       -4.28710       -1.72630
C          0.07330       -5.52850       -2.38920
C          1.34350       -5.92040       -2.92520
N          1.31070       -7.12130       -3.48130
S         -0.19270       -7.70690       -3.34490
N         -0.85920       -6.45090       -2.57110
C          2.42210       -5.01290       -2.85220
C          3.71370       -5.08430       -3.39470
S          4.69660       -6.17960       -4.30460
C          5.96730       -4.97950       -4.32990
C          7.23930       -4.95480       -4.92780
C          7.75490       -6.00350       -5.80330
C          7.62480       -7.34300       -5.45190
C          8.14120       -8.32270       -6.27830
C          8.78280       -7.97940       -7.45430
C          8.90150       -6.64680       -7.83240
C          9.55280       -6.27160       -9.13290
C          8.52200       -6.25480      -10.26330
C          8.37210       -5.66960       -7.00600
C          7.88640       -3.75230       -4.67140
S          6.89500       -2.63200       -3.74890
C          5.62530       -3.79900       -3.65970
C          4.33510       -3.86250       -3.12340
N          3.48990       -3.05160       -2.41380
C          2.29830       -3.73600       -2.23130
C          1.07890       -3.40800       -1.57980
N          0.67400       -2.32680       -0.80930
C         -0.64500       -2.50900       -0.49740
C         -1.64330       -1.82830        0.21180
S         -1.74330       -0.37420        1.13430
C          1.44600       -1.36290       -0.05700
C          2.38790       -2.04560        0.93110
C          3.78480       -1.64000       -2.31820
C          2.89210       -0.81880       -3.24580
C          9.18500       -3.34130       -5.05740
S          9.52370       -1.64520       -5.33700
C         11.17430       -1.97620       -5.84750
C         11.40490       -3.34000       -5.74290
C         12.55660       -4.23660       -5.95600
O         13.67170       -3.98830       -6.34000
N         12.09040       -5.49190       -5.59450
C         12.91910       -6.67830       -5.60740
C         13.63990       -6.87170       -4.27800
C         10.78500       -5.48800       -5.10300
O         10.24720       -6.44060       -4.59790
C         10.32320       -4.10030       -5.28310
C         12.13310       -1.06900       -6.33200
C         12.07910        0.29700       -6.38430
C         11.02270        1.12980       -5.78930
O          9.95540        0.76000       -5.33270
C         11.52240        2.51300       -5.83390
C         10.93710        3.64920       -5.35400
C         11.61230        4.88170       -5.49300
C         11.05430        6.08600       -5.01740
C         11.71900        7.27270       -5.15450
C         12.97380        7.27840       -5.77870
F         13.61290        8.45530       -5.90350
C         13.55990        6.13970       -6.25810
C         12.88870        4.90860       -6.12710
C         13.46720        3.71500       -6.61970
C         12.79170        2.53250       -6.47970
C         13.11510        1.17210       -6.90180
C         14.15320        0.81550       -7.71980
C         15.13340        1.71920       -8.18080
N         15.96050        2.40960       -8.57680
C         14.34370       -0.46790       -8.27880
N         14.52910       -1.45930       -8.82600
H         -8.86810        4.17540        4.33610
H         -5.26060        6.41290        8.94360
H         -5.06360        8.08200       10.76100
H         -6.06640        9.89280       12.13190
H         -9.73150        9.54240        9.97540
H         -9.95760        7.90270        8.18160
H         -8.67050        0.39120        2.94090
H         -9.34710       -1.47530        1.49520
H        -10.30560       -1.11000       -2.06790
H        -10.43970       -2.15130       -0.64100
H         -8.89550       -1.98770       -1.47060
H         -9.42280        1.14780       -1.86590
H         -8.74370        3.01900       -0.42530
H        -10.79570        3.34160        1.69480
H        -11.84860        5.53550        1.38410
H        -11.39750        7.98400        0.68680
H        -11.27530        8.20480        2.42760
H         -9.97090        8.77040        1.38090
H         -8.07170        7.43630        1.94990
H         -7.00630        5.24580        2.23000
H         -4.95860       -0.66140        5.17990
H         -5.48960       -1.03370        7.53990
H         -4.75770        0.73250       10.09350
H         -3.26480       -0.17250       10.32850
H         -4.75070       -1.01550        9.86330
H         -2.10250        1.29580        8.67280
H         -1.57880        1.69600        6.31280
H         -0.72880       -0.48100        4.95380
H          1.52750       -0.02800        4.09710
H          2.59070        2.85710        2.52130
H          3.01470        1.15130        2.68030
H          2.29600        1.75770        1.18010
H         -0.02170        3.10360        1.65040
H         -2.28210        2.65370        2.50250
H         -5.41730       -3.15550       -0.89230
H         -7.60510       -4.20600       -0.48630
H         -8.65760       -4.06580        1.73250
H         -7.46730       -1.88780        4.41950
H         -8.75780       -2.98160        3.90280
H         -7.30430       -4.94050        4.44420
H         -7.54980       -3.91310        5.86060
H         -6.02520       -3.84660        4.96990
H         -5.30280       -1.86840        3.17630
H          7.15520       -7.60930       -4.51810
H          8.05300       -9.36100       -5.99610
H          9.19830       -8.75000       -8.08800
H         10.01090       -5.28350       -9.04770
H         10.33830       -6.99090       -9.37320
H          8.99410       -5.98250      -11.20420
H          7.73560       -5.53490      -10.04720
H          8.06570       -7.23590      -10.37340
H          8.43590       -4.63170       -7.30280
H          1.98210       -0.69090       -0.72710
H          0.72820       -0.75440        0.49930
H          2.96870       -1.29790        1.46380
H          3.06700       -2.72720        0.42370
H          1.81180       -2.61660        1.65520
H          4.82690       -1.51910       -2.62410
H          3.71430       -1.30210       -1.28460
H          3.06420       -1.11180       -4.27880
H          1.83970       -0.97560       -3.02040
H          3.12240        0.23830       -3.14400
H         12.26370       -7.52850       -5.81210
H         13.64080       -6.55860       -6.41880
H         12.91640       -6.97360       -3.47250
H         14.28410       -6.01980       -4.07290
H         14.24950       -7.76990       -4.31760
H         13.03520       -1.56090       -6.68120
H          9.97090        3.60720       -4.87380
H         10.08630        6.05580       -4.54000
H         11.30630        8.20270       -4.79680
H         14.52670        6.18220       -6.73480
H         14.43470        3.76850       -7.09240
