234

C          9.00600        6.95870       -4.22620
C          8.59170        8.26740       -4.17670
C          9.51450        9.29300       -3.64630
O         10.71100        9.18740       -3.47260
C          8.65040       10.44410       -3.30050
C          8.97330       11.60380       -2.65980
C          7.95660       12.54860       -2.38740
C          8.23620       13.76050       -1.72450
C          7.24450       14.66270       -1.45450
C          5.93380       14.36490       -1.84830
F          4.96800       15.26310       -1.57100
C          5.60820       13.20590       -2.49560
C          6.61760       12.26770       -2.78500
C          6.31490       11.06360       -3.46390
C          7.31660       10.16970       -3.72010
C          7.31150        8.88170       -4.40860
C          6.36760        8.47450       -5.32280
C          5.14260        9.13060       -5.52490
N          4.11890        9.62140       -5.70460
C          6.58340        7.39170       -6.19800
N          6.77260        6.55110       -6.95830
C          8.21980        5.80210       -4.19150
C          8.61600        4.46950       -4.42330
N          9.86510        4.05320       -4.80050
C         11.01790        4.63740       -4.24830
C         12.10970        4.95800       -5.04920
C         13.22310        5.55330       -4.48940
C         13.27740        5.84480       -3.13140
C         14.46040        6.54410       -2.54080
C         12.18880        5.50180       -2.33660
C         11.07260        4.90060       -2.88080
C          9.98800        3.06940       -5.79710
C         11.02140        2.13950       -5.74800
C         11.17070        1.21810       -6.76640
C         10.29230        1.18850       -7.84210
C         10.48380        0.23300       -8.97880
C          9.24440        2.10230       -7.86510
C          9.09330        3.04000       -6.86530
C          7.52290        3.58720       -4.28190
S          7.34700        1.86780       -4.37660
C          5.64600        1.99790       -3.94920
C          5.22860        3.32110       -3.83350
N          3.91660        3.74030       -3.73210
C          3.68430        5.05410       -3.26810
C          3.00970        5.97380       -4.06510
C          2.85410        7.27600       -3.63640
C          3.36460        7.69260       -2.41190
C          3.21380        9.11500       -1.96800
C          4.00740        6.75900       -1.60840
C          4.16810        5.45090       -2.02550
C          2.87900        3.07840       -4.40690
C          1.58360        3.17180       -3.90390
C          0.54380        2.50980       -4.52680
C          0.76380        1.72400       -5.65100
C         -0.35010        0.95360       -6.29050
C          2.05480        1.65790       -6.16170
C          3.09970        2.33110       -5.56220
C          6.32490        4.20330       -3.95480
S          6.51460        5.90170       -3.74760
C          4.84280        0.84240       -3.71040
C          4.82070       -0.36750       -4.37010
C          5.70860       -0.76140       -5.47290
C          5.19750       -0.94750       -6.75170
C          6.03600       -1.36100       -7.76940
C          7.37550       -1.60250       -7.51630
C          7.89850       -1.42900       -6.24260
C          9.33340       -1.74310       -5.93600
C          9.45470       -3.12530       -5.29160
C          7.05210       -1.00880       -5.22680
C          3.81620       -1.21360       -3.86250
S          3.29050       -2.81850       -4.30630
C          2.12570       -2.76800       -3.02360
C          1.11080       -3.57000       -2.46570
C          0.50520       -4.78730       -2.85450
C         -0.65780       -5.25740       -2.14200
N         -1.16000       -6.36030       -2.67350
S         -0.25300       -6.78110       -3.94650
N          0.81690       -5.56910       -3.87570
C         -1.07700       -4.57710       -0.97540
C         -2.05950       -4.83330        0.00040
S         -3.37450       -5.92360        0.28810
C         -3.69440       -5.10450        1.79840
C         -4.66230       -5.29650        2.79770
C         -5.68740       -6.34780        2.73680
C         -5.74390       -7.34960        3.70210
C         -6.74330       -8.30260        3.64350
C         -7.68350       -8.26580        2.62750
C         -7.62940       -7.28390        1.64680
C         -8.61520       -7.26720        0.51640
C         -8.06060       -8.04290       -0.67980
C         -6.61900       -6.33410        1.70700
C         -4.52000       -4.36880        3.81810
S         -3.16700       -3.27940        3.55570
C         -2.80800       -4.05390        2.05580
C         -1.88000       -3.89410        1.02320
N         -0.84410       -3.04710        0.71340
C         -0.36930       -3.43350       -0.52610
C          0.60040       -2.84260       -1.36110
N          1.22770       -1.61220       -1.28250
C          2.15270       -1.57300       -2.29610
C          3.10700       -0.67610       -2.78860
S          3.65400        0.91490       -2.40740
C          0.63820       -0.38270       -0.79270
C         -0.08380        0.36020       -1.91510
C         -0.06870       -2.41560        1.76240
C          0.47950       -3.44960        2.74570
C         -5.36680       -4.16450        4.94160
C         -6.59590       -4.71810        5.16710
C         -7.20230       -4.29610        6.36590
C         -8.42940       -4.72880        6.89820
C         -9.23490       -5.70440        6.18270
S         -9.81560       -7.14590        6.95770
C        -10.53080       -7.74600        5.50220
C        -11.21230       -9.06920        5.44430
C        -10.20870      -10.21530        5.58360
C        -10.32560       -6.86370        4.48500
F        -10.77770       -7.06260        3.23620
C         -9.59550       -5.71280        4.86330
F         -9.33230       -4.71360        4.00760
C         -8.80690       -4.20780        8.12890
C         -8.00500       -3.27050        8.83530
C         -6.74930       -2.86560        8.31800
C         -5.87750       -1.98110        9.06620
S         -5.04760       -0.64990        8.31670
C         -4.27560       -0.18370        9.79280
C         -3.37350        0.99850        9.87290
C         -4.13430        2.30070        9.61940
C         -4.64860       -1.02450       10.79830
C         -5.55050       -2.03730       10.39450
F         -5.98860       -2.98820       11.23100
F         -4.19520       -0.91420       12.05520
C         -6.39210       -3.37510        7.08200
S         -4.90300       -3.06510        6.22920
C         -8.65010       -2.82990        9.99810
C         -9.88720       -3.41190       10.21630
S        -10.29890       -4.55130        8.95050
C        -10.67660       -3.06100       11.32940
C        -11.90140       -3.51750       11.73160
C        -12.68500       -4.58350       11.08540
O        -12.42310       -5.18800       10.06360
C        -13.87220       -4.78770       11.93500
C        -14.89170       -5.69110       11.75880
C        -15.92120       -5.70420       12.70530
C        -17.07710       -6.53080       12.74960
C        -17.85610       -6.25640       13.82290
Br       -19.46920       -7.10190       14.26980
S        -17.23980       -4.98440       14.84390
C        -15.86940       -4.79900       13.79200
C        -14.83820       -3.88470       13.96850
C        -13.82920       -3.88190       13.02310
C        -12.62880       -3.06090       12.90310
C        -12.29480       -2.02490       13.73720
C        -13.05870       -1.63440       14.85720
N        -13.62970       -1.27120       15.78460
C        -11.17480       -1.17800       13.59960
N        -10.30410       -0.42980       13.55770
H         10.08140        6.82830       -4.18410
H          9.99170       11.80100       -2.35990
H          9.25420       13.96710       -1.42980
H          7.44280       15.59410       -0.94830
H          4.58800       13.01170       -2.78800
H          5.29480       10.87200       -3.75610
H         12.07100        4.75360       -6.10880
H         14.05910        5.81070       -5.12290
H         14.26660        7.61670       -2.50990
H         14.64470        6.20690       -1.52310
H         15.35310        6.37760       -3.13880
H         12.21600        5.71090       -1.27740
H         10.23020        4.64030       -2.25620
H         11.71030        2.15030       -4.91610
H         11.98700        0.51150       -6.72270
H          9.53160       -0.19630       -9.28280
H         10.89930        0.76000       -9.83850
H         11.16970       -0.56690       -8.71040
H          8.54950        2.09410       -8.69160
H          8.30060        3.77140       -6.92190
H          2.63120        5.66650       -5.02890
H          2.35490        7.98810       -4.27610
H          4.10640        9.45420       -1.44550
H          2.36850        9.20950       -1.28570
H          3.03300        9.76130       -2.82320
H          4.39790        7.06160       -0.64730
H          4.67910        4.73250       -1.40070
H          1.40180        3.76450       -3.01970
H         -0.45560        2.59900       -4.12600
H         -0.29320       -0.09630       -5.99940
H         -1.31820        1.34020       -5.98210
H         -0.28000        1.00170       -7.37520
H          2.24320        1.07890       -7.05430
H          4.08590        2.28490       -5.99910
H          4.14990       -0.76570       -6.93930
H          5.64140       -1.50330       -8.76490
H          8.01960       -1.94160       -8.31490
H          9.73420       -0.98680       -5.25760
H          9.92010       -1.72220       -6.85460
H          8.88080       -3.16730       -4.36890
H         10.49450       -3.34920       -5.06430
H          9.07360       -3.89040       -5.96460
H          7.43800       -0.89370       -4.22380
H         -5.01430       -7.36710        4.49830
H         -6.79130       -9.07410        4.39850
H         -8.47080       -9.00520        2.59240
H         -9.55590       -7.71580        0.83930
H         -8.81440       -6.23640        0.21800
H         -7.87210       -9.07870       -0.40560
H         -8.76900       -8.02520       -1.50440
H         -7.12380       -7.60330       -1.01530
H         -6.56970       -5.55600        0.95910
H         -0.08100       -0.61050       -0.00900
H          1.43850        0.24350       -0.38660
H         -0.53550        1.26610       -1.52090
H         -0.86610       -0.26750       -2.33690
H          0.60830        0.63580       -2.70610
H          0.77300       -1.89120        1.31300
H         -0.70820       -1.70240        2.29280
H          1.10360       -2.95310        3.48350
H         -0.32570       -3.96160        3.26440
H          1.08050       -4.18690        2.21750
H         -7.05240       -5.40520        4.48480
H        -11.94770       -9.13460        6.24900
H        -11.73530       -9.14650        4.48900
H         -9.69270      -10.14810        6.53840
H         -9.47050      -10.17220        4.78650
H        -10.72320      -11.17090        5.52990
H         -2.57670        0.89700        9.13190
H         -2.92180        1.01830       10.86660
H         -3.45530        3.14650        9.68230
H         -4.92070        2.43120       10.35860
H         -4.58540        2.28640        8.62990
H         -8.25040       -2.08980       10.66770
H        -10.20820       -2.30810       11.95190
H        -14.89450       -6.36560       10.91700
H        -17.30670       -7.28420       12.01840
H        -14.84600       -3.21820       14.81440
