
  xtb     02062223403D
 energy: -375.861301756040 gnorm: 0.001268776710 xtb: 6.4.1 (unknown)
217239  0     0  0            999 V2000
    4.9387  -11.2229    0.5124 C   0  0  0  0  0  0  0  0  0  0  0  0
    4.3441  -12.0050    1.4865 C   0  0  0  0  0  0  0  0  0  0  0  0
    2.9014  -11.9955    1.7636 C   0  0  0  0  0  0  0  0  0  0  0  0
    2.0485  -11.3038    1.2361 O   0  0  0  0  0  0  0  0  0  0  0  0
    2.6746  -13.0888    2.7314 C   0  0  0  0  0  0  0  0  0  0  0  0
    1.5073  -13.4955    3.3041 C   0  0  0  0  0  0  0  0  0  0  0  0
    1.5302  -14.5634    4.2312 C   0  0  0  0  0  0  0  0  0  0  0  0
    0.3551  -15.0175    4.8619 C   0  0  0  0  0  0  0  0  0  0  0  0
    0.3884  -16.0531    5.7550 C   0  0  0  0  0  0  0  0  0  0  0  0
    1.6174  -16.6611    6.0390 C   0  0  0  0  0  0  0  0  0  0  0  0
    1.6329  -17.6784    6.9227 F   0  0  0  0  0  0  0  0  0  0  0  0
    2.7868  -16.2589    5.4554 C   0  0  0  0  0  0  0  0  0  0  0  0
    2.7702  -15.1950    4.5334 C   0  0  0  0  0  0  0  0  0  0  0  0
    3.9651  -14.7539    3.9146 C   0  0  0  0  0  0  0  0  0  0  0  0
    3.9180  -13.7115    3.0315 C   0  0  0  0  0  0  0  0  0  0  0  0
    4.9645  -13.0277    2.2750 C   0  0  0  0  0  0  0  0  0  0  0  0
    6.3189  -13.2146    2.4285 C   0  0  0  0  0  0  0  0  0  0  0  0
    6.8862  -14.1504    3.3102 C   0  0  0  0  0  0  0  0  0  0  0  0
    7.3999  -14.8860    4.0289 N   0  0  0  0  0  0  0  0  0  0  0  0
    7.2960  -12.4311    1.7863 C   0  0  0  0  0  0  0  0  0  0  0  0
    8.1421  -11.8082    1.3209 N   0  0  0  0  0  0  0  0  0  0  0  0
    4.4615   -9.9979    0.0520 C   0  0  0  0  0  0  0  0  0  0  0  0
    3.6082   -9.0455    0.6556 C   0  0  0  0  0  0  0  0  0  0  0  0
    3.2026   -9.0212    1.9557 N   0  0  0  0  0  0  0  0  0  0  0  0
    3.9072   -9.6575    2.9881 C   0  0  0  0  0  0  0  0  0  0  0  0
    3.2076  -10.3058    4.0038 C   0  0  0  0  0  0  0  0  0  0  0  0
    3.8910  -10.9677    5.0065 C   0  0  0  0  0  0  0  0  0  0  0  0
    5.2793  -10.9952    5.0316 C   0  0  0  0  0  0  0  0  0  0  0  0
    6.0204  -11.7570    6.0841 C   0  0  0  0  0  0  0  0  0  0  0  0
    5.9698  -10.3050    4.0379 C   0  0  0  0  0  0  0  0  0  0  0  0
    5.3005   -9.6445    3.0294 C   0  0  0  0  0  0  0  0  0  0  0  0
    2.0399   -8.2997    2.3066 C   0  0  0  0  0  0  0  0  0  0  0  0
    2.0690   -7.4245    3.3865 C   0  0  0  0  0  0  0  0  0  0  0  0
    0.9335   -6.7157    3.7279 C   0  0  0  0  0  0  0  0  0  0  0  0
   -0.2463   -6.8634    3.0087 C   0  0  0  0  0  0  0  0  0  0  0  0
   -1.4669   -6.0699    3.3594 C   0  0  0  0  0  0  0  0  0  0  0  0
   -0.2665   -7.7558    1.9421 C   0  0  0  0  0  0  0  0  0  0  0  0
    0.8600   -8.4710    1.5895 C   0  0  0  0  0  0  0  0  0  0  0  0
    3.3218   -7.9997   -0.2516 C   0  0  0  0  0  0  0  0  0  0  0  0
    2.3877   -6.5473   -0.1352 S   0  0  0  0  0  0  0  0  0  0  0  0
    2.8673   -6.0875   -1.7579 C   0  0  0  0  0  0  0  0  0  0  0  0
    3.7626   -6.9804   -2.3296 C   0  0  0  0  0  0  0  0  0  0  0  0
    4.4018   -6.7886   -3.5401 N   0  0  0  0  0  0  0  0  0  0  0  0
    4.7349   -7.8889   -4.3431 C   0  0  0  0  0  0  0  0  0  0  0  0
    3.8980   -8.9998   -4.4129 C   0  0  0  0  0  0  0  0  0  0  0  0
    4.2485  -10.0847   -5.1924 C   0  0  0  0  0  0  0  0  0  0  0  0
    5.4250  -10.0885   -5.9300 C   0  0  0  0  0  0  0  0  0  0  0  0
    5.8152  -11.2777   -6.7525 C   0  0  0  0  0  0  0  0  0  0  0  0
    6.2451   -8.9672   -5.8686 C   0  0  0  0  0  0  0  0  0  0  0  0
    5.9130   -7.8812   -5.0853 C   0  0  0  0  0  0  0  0  0  0  0  0
    4.6982   -5.4824   -3.9684 C   0  0  0  0  0  0  0  0  0  0  0  0
    4.4665   -5.1017   -5.2877 C   0  0  0  0  0  0  0  0  0  0  0  0
    4.6470   -3.7892   -5.6726 C   0  0  0  0  0  0  0  0  0  0  0  0
    5.0764   -2.8260   -4.7663 C   0  0  0  0  0  0  0  0  0  0  0  0
    5.1855   -1.3900   -5.1777 C   0  0  0  0  0  0  0  0  0  0  0  0
    5.3741   -3.2301   -3.4716 C   0  0  0  0  0  0  0  0  0  0  0  0
    5.1883   -4.5388   -3.0712 C   0  0  0  0  0  0  0  0  0  0  0  0
    3.9892   -8.0804   -1.4667 C   0  0  0  0  0  0  0  0  0  0  0  0
    5.0025   -9.4735   -1.5528 S   0  0  0  0  0  0  0  0  0  0  0  0
    2.3828   -4.8571   -2.3102 C   0  0  0  0  0  0  0  0  0  0  0  0
    1.8427   -4.6262   -3.5528 C   0  0  0  0  0  0  0  0  0  0  0  0
    1.4145   -5.6786   -4.5244 C   0  0  0  0  0  0  0  0  0  0  0  0
   -0.0281   -6.0989   -4.2331 C   0  0  0  0  0  0  0  0  0  0  0  0
    1.5815   -3.2561   -3.7436 C   0  0  0  0  0  0  0  0  0  0  0  0
    0.9354   -2.3572   -5.0948 S   0  0  0  0  0  0  0  0  0  0  0  0
    1.0630   -0.9036   -4.1624 C   0  0  0  0  0  0  0  0  0  0  0  0
    0.7772    0.4699   -4.2764 C   0  0  0  0  0  0  0  0  0  0  0  0
    0.3222    1.2471   -5.3680 C   0  0  0  0  0  0  0  0  0  0  0  0
    0.1433    2.6666   -5.1788 C   0  0  0  0  0  0  0  0  0  0  0  0
   -0.2378    3.3262   -6.2548 N   0  0  0  0  0  0  0  0  0  0  0  0
   -0.4027    2.1857   -7.5900 Se  0  0  0  0  0  2  0  0  0  0  0  0
    0.0721    0.8140   -6.5881 N   0  0  0  0  0  0  0  0  0  0  0  0
    0.3087    3.2015   -3.8784 C   0  0  0  0  0  0  0  0  0  0  0  0
   -0.0221    4.4612   -3.3512 C   0  0  0  0  0  0  0  0  0  0  0  0
   -0.6766    5.9713   -3.8847 S   0  0  0  0  0  0  0  0  0  0  0  0
   -0.7415    6.5056   -2.2202 C   0  0  0  0  0  0  0  0  0  0  0  0
   -1.2269    7.6861   -1.6267 C   0  0  0  0  0  0  0  0  0  0  0  0
   -1.7070    8.8506   -2.4316 C   0  0  0  0  0  0  0  0  0  0  0  0
   -0.7687   10.0485   -2.2892 C   0  0  0  0  0  0  0  0  0  0  0  0
   -1.0965    7.6404   -0.2571 C   0  0  0  0  0  0  0  0  0  0  0  0
   -0.3427    6.1488    0.2983 S   0  0  0  0  0  0  0  0  0  0  0  0
   -0.2505    5.5584   -1.3194 C   0  0  0  0  0  0  0  0  0  0  0  0
    0.1632    4.3880   -1.9673 C   0  0  0  0  0  0  0  0  0  0  0  0
    0.6204    3.1436   -1.6235 N   0  0  0  0  0  0  0  0  0  0  0  0
    0.7288    2.4006   -2.7820 C   0  0  0  0  0  0  0  0  0  0  0  0
    1.0959    1.0529   -3.0211 C   0  0  0  0  0  0  0  0  0  0  0  0
    1.6246    0.0765   -2.1934 N   0  0  0  0  0  0  0  0  0  0  0  0
    1.5845   -1.1084   -2.8836 C   0  0  0  0  0  0  0  0  0  0  0  0
    1.8947   -2.4535   -2.6480 C   0  0  0  0  0  0  0  0  0  0  0  0
    2.5259   -3.3911   -1.3452 S   0  0  0  0  0  0  0  0  0  0  0  0
    2.5968    0.2325   -1.1330 C   0  0  0  0  0  0  0  0  0  0  0  0
    4.0181    0.0544   -1.6653 C   0  0  0  0  0  0  0  0  0  0  0  0
    0.5891    2.7161   -0.2428 C   0  0  0  0  0  0  0  0  0  0  0  0
    1.7533    3.2931    0.5628 C   0  0  0  0  0  0  0  0  0  0  0  0
   -1.4697    8.5782    0.7775 C   0  0  0  0  0  0  0  0  0  0  0  0
   -0.6059    8.8330    1.8327 C   0  0  0  0  0  0  0  0  0  0  0  0
   -0.9557    9.6466    2.9042 C   0  0  0  0  0  0  0  0  0  0  0  0
   -2.2287   10.1760    3.0170 C   0  0  0  0  0  0  0  0  0  0  0  0
   -3.1467    9.9308    1.9515 C   0  0  0  0  0  0  0  0  0  0  0  0
   -4.3967   10.4054    2.0296 N   0  0  0  0  0  0  0  0  0  0  0  0
   -5.2698   10.1789    1.0802 C   0  0  0  0  0  0  0  0  0  0  0  0
   -6.6173   10.6935    1.3543 C   0  0  0  0  0  0  0  0  0  0  0  0
   -7.7687    9.9486    1.1007 C   0  0  0  0  0  0  0  0  0  0  0  0
   -8.9982   10.4668    1.4564 C   0  0  0  0  0  0  0  0  0  0  0  0
   -9.1104   11.7059    2.0702 C   0  0  0  0  0  0  0  0  0  0  0  0
   -7.9631   12.4441    2.3497 C   0  0  0  0  0  0  0  0  0  0  0  0
   -7.9283   13.6407    2.9840 O   0  0  0  0  0  0  0  0  0  0  0  0
   -9.1426   14.2614    3.3751 C   0  0  0  0  0  0  0  0  0  0  0  0
   -8.7879   15.5712    4.0602 C   0  0  0  0  0  0  0  0  0  0  0  0
   -6.7223   11.9271    1.9810 C   0  0  0  0  0  0  0  0  0  0  0  0
   -4.8633    9.4614   -0.0892 C   0  0  0  0  0  0  0  0  0  0  0  0
   -3.6485    8.9718   -0.1685 N   0  0  0  0  0  0  0  0  0  0  0  0
   -2.7644    9.1704    0.8191 C   0  0  0  0  0  0  0  0  0  0  0  0
   -5.7197    9.2724   -1.2635 C   0  0  0  0  0  0  0  0  0  0  0  0
   -5.5992    8.1038   -2.0085 C   0  0  0  0  0  0  0  0  0  0  0  0
   -6.3984    7.9170   -3.1231 C   0  0  0  0  0  0  0  0  0  0  0  0
   -7.3146    8.8782   -3.4965 C   0  0  0  0  0  0  0  0  0  0  0  0
   -7.4313   10.0639   -2.7646 C   0  0  0  0  0  0  0  0  0  0  0  0
   -8.3597   10.9474   -3.2070 O   0  0  0  0  0  0  0  0  0  0  0  0
   -8.5916   12.1300   -2.4662 C   0  0  0  0  0  0  0  0  0  0  0  0
   -9.7446   12.8684   -3.1272 C   0  0  0  0  0  0  0  0  0  0  0  0
   -6.6173   10.2640   -1.6581 C   0  0  0  0  0  0  0  0  0  0  0  0
   -2.6673   11.0225    4.0942 C   0  0  0  0  0  0  0  0  0  0  0  0
   -3.9582   10.9781    4.5191 C   0  0  0  0  0  0  0  0  0  0  0  0
   -4.8298    9.7977    4.2356 C   0  0  0  0  0  0  0  0  0  0  0  0
   -4.4833    8.6555    4.0379 O   0  0  0  0  0  0  0  0  0  0  0  0
   -6.2031   10.2521    4.5752 C   0  0  0  0  0  0  0  0  0  0  0  0
   -6.1367   11.5038    5.2108 C   0  0  0  0  0  0  0  0  0  0  0  0
   -7.2828   12.0912    5.7232 C   0  0  0  0  0  0  0  0  0  0  0  0
   -8.4849   11.4230    5.5601 C   0  0  0  0  0  0  0  0  0  0  0  0
   -9.6086   11.9759    6.0368 F   0  0  0  0  0  0  0  0  0  0  0  0
   -8.5711   10.1977    4.9042 C   0  0  0  0  0  0  0  0  0  0  0  0
   -9.7592    9.6058    4.7397 F   0  0  0  0  0  0  0  0  0  0  0  0
   -7.4090    9.5946    4.4240 C   0  0  0  0  0  0  0  0  0  0  0  0
   -7.4913    8.4158    3.8108 F   0  0  0  0  0  0  0  0  0  0  0  0
   -4.7510   11.9753    5.2005 C   0  0  0  0  0  0  0  0  0  0  0  0
   -4.3266   13.1998    5.6485 C   0  0  0  0  0  0  0  0  0  0  0  0
   -2.9815   13.6231    5.6311 C   0  0  0  0  0  0  0  0  0  0  0  0
   -1.9044   14.0192    5.6491 N   0  0  0  0  0  0  0  0  0  0  0  0
   -5.1824   14.1945    6.1629 C   0  0  0  0  0  0  0  0  0  0  0  0
   -5.8392   15.0435    6.5707 N   0  0  0  0  0  0  0  0  0  0  0  0
    5.8291  -11.5971    0.0214 H   0  0  0  0  0  0  0  0  0  0  0  0
    0.5755  -13.0065    3.0611 H   0  0  0  0  0  0  0  0  0  0  0  0
   -0.5805  -14.5327    4.6259 H   0  0  0  0  0  0  0  0  0  0  0  0
   -0.5026  -16.4138    6.2440 H   0  0  0  0  0  0  0  0  0  0  0  0
    3.7154  -16.7510    5.6992 H   0  0  0  0  0  0  0  0  0  0  0  0
    4.8865  -15.2602    4.1547 H   0  0  0  0  0  0  0  0  0  0  0  0
    2.1279  -10.2968    3.9931 H   0  0  0  0  0  0  0  0  0  0  0  0
    3.3326  -11.4829    5.7746 H   0  0  0  0  0  0  0  0  0  0  0  0
    6.9137  -11.2189    6.3938 H   0  0  0  0  0  0  0  0  0  0  0  0
    6.3378  -12.7239    5.6917 H   0  0  0  0  0  0  0  0  0  0  0  0
    5.3916  -11.9347    6.9531 H   0  0  0  0  0  0  0  0  0  0  0  0
    7.0498  -10.2908    4.0517 H   0  0  0  0  0  0  0  0  0  0  0  0
    5.8580   -9.1190    2.2687 H   0  0  0  0  0  0  0  0  0  0  0  0
    2.9826   -7.3008    3.9497 H   0  0  0  0  0  0  0  0  0  0  0  0
    0.9672   -6.0332    4.5646 H   0  0  0  0  0  0  0  0  0  0  0  0
   -2.3672   -6.6663    3.2289 H   0  0  0  0  0  0  0  0  0  0  0  0
   -1.4218   -5.7168    4.3865 H   0  0  0  0  0  0  0  0  0  0  0  0
   -1.5436   -5.2015    2.7044 H   0  0  0  0  0  0  0  0  0  0  0  0
   -1.1808   -7.8966    1.3844 H   0  0  0  0  0  0  0  0  0  0  0  0
    0.8360   -9.1873    0.7834 H   0  0  0  0  0  0  0  0  0  0  0  0
    2.9694   -9.0096   -3.8602 H   0  0  0  0  0  0  0  0  0  0  0  0
    3.5906  -10.9407   -5.2320 H   0  0  0  0  0  0  0  0  0  0  0  0
    6.4623  -11.9346   -6.1703 H   0  0  0  0  0  0  0  0  0  0  0  0
    6.3616  -10.9723   -7.6420 H   0  0  0  0  0  0  0  0  0  0  0  0
    4.9392  -11.8477   -7.0530 H   0  0  0  0  0  0  0  0  0  0  0  0
    7.1643   -8.9485   -6.4360 H   0  0  0  0  0  0  0  0  0  0  0  0
    6.5646   -7.0211   -5.0387 H   0  0  0  0  0  0  0  0  0  0  0  0
    4.1250   -5.8367   -6.0010 H   0  0  0  0  0  0  0  0  0  0  0  0
    4.4321   -3.5007   -6.6909 H   0  0  0  0  0  0  0  0  0  0  0  0
    4.1950   -0.9319   -5.1868 H   0  0  0  0  0  0  0  0  0  0  0  0
    5.8145   -0.8315   -4.4885 H   0  0  0  0  0  0  0  0  0  0  0  0
    5.5975   -1.3050   -6.1807 H   0  0  0  0  0  0  0  0  0  0  0  0
    5.7571   -2.5124   -2.7598 H   0  0  0  0  0  0  0  0  0  0  0  0
    5.4108   -4.8312   -2.0552 H   0  0  0  0  0  0  0  0  0  0  0  0
    2.0621   -6.5513   -4.4598 H   0  0  0  0  0  0  0  0  0  0  0  0
    1.4761   -5.2683   -5.5337 H   0  0  0  0  0  0  0  0  0  0  0  0
   -0.6958   -5.2444   -4.3136 H   0  0  0  0  0  0  0  0  0  0  0  0
   -0.1068   -6.5071   -3.2275 H   0  0  0  0  0  0  0  0  0  0  0  0
   -0.3475   -6.8572   -4.9434 H   0  0  0  0  0  0  0  0  0  0  0  0
   -1.7546    8.5449   -3.4781 H   0  0  0  0  0  0  0  0  0  0  0  0
   -2.7081    9.1300   -2.1023 H   0  0  0  0  0  0  0  0  0  0  0  0
   -0.7270   10.3810   -1.2536 H   0  0  0  0  0  0  0  0  0  0  0  0
    0.2379    9.7862   -2.6080 H   0  0  0  0  0  0  0  0  0  0  0  0
   -1.1216   10.8725   -2.9042 H   0  0  0  0  0  0  0  0  0  0  0  0
    2.3913   -0.5216   -0.3665 H   0  0  0  0  0  0  0  0  0  0  0  0
    2.5103    1.2225   -0.7013 H   0  0  0  0  0  0  0  0  0  0  0  0
    4.7311    0.1962   -0.8575 H   0  0  0  0  0  0  0  0  0  0  0  0
    4.2210    0.7849   -2.4462 H   0  0  0  0  0  0  0  0  0  0  0  0
    4.1500   -0.9420   -2.0767 H   0  0  0  0  0  0  0  0  0  0  0  0
   -0.3471    3.0795    0.1960 H   0  0  0  0  0  0  0  0  0  0  0  0
    0.5681    1.6266   -0.2080 H   0  0  0  0  0  0  0  0  0  0  0  0
    1.7587    2.8628    1.5603 H   0  0  0  0  0  0  0  0  0  0  0  0
    2.7111    3.0932    0.0873 H   0  0  0  0  0  0  0  0  0  0  0  0
    1.6441    4.3702    0.6537 H   0  0  0  0  0  0  0  0  0  0  0  0
    0.3756    8.3810    1.8177 H   0  0  0  0  0  0  0  0  0  0  0  0
   -0.2413    9.8182    3.6955 H   0  0  0  0  0  0  0  0  0  0  0  0
   -7.6958    8.9704    0.6528 H   0  0  0  0  0  0  0  0  0  0  0  0
   -9.8930    9.8937    1.2663 H   0  0  0  0  0  0  0  0  0  0  0  0
  -10.0878   12.0762    2.3361 H   0  0  0  0  0  0  0  0  0  0  0  0
   -9.7675   14.4479    2.4910 H   0  0  0  0  0  0  0  0  0  0  0  0
   -9.6973   13.6123    4.0637 H   0  0  0  0  0  0  0  0  0  0  0  0
   -8.1455   15.3869    4.9170 H   0  0  0  0  0  0  0  0  0  0  0  0
   -8.2591   16.2220    3.3695 H   0  0  0  0  0  0  0  0  0  0  0  0
   -9.6948   16.0661    4.3946 H   0  0  0  0  0  0  0  0  0  0  0  0
   -5.8363   12.5058    2.1908 H   0  0  0  0  0  0  0  0  0  0  0  0
   -4.8883    7.3538   -1.7002 H   0  0  0  0  0  0  0  0  0  0  0  0
   -6.3088    7.0104   -3.7021 H   0  0  0  0  0  0  0  0  0  0  0  0
   -7.9528    8.7430   -4.3550 H   0  0  0  0  0  0  0  0  0  0  0  0
   -8.8436   11.8795   -1.4256 H   0  0  0  0  0  0  0  0  0  0  0  0
   -7.6901   12.7586   -2.4661 H   0  0  0  0  0  0  0  0  0  0  0  0
   -9.4903   13.1071   -4.1560 H   0  0  0  0  0  0  0  0  0  0  0  0
   -9.9521   13.7877   -2.5874 H   0  0  0  0  0  0  0  0  0  0  0  0
  -10.6338   12.2443   -3.1266 H   0  0  0  0  0  0  0  0  0  0  0  0
   -6.6576   11.1882   -1.1050 H   0  0  0  0  0  0  0  0  0  0  0  0
   -1.9683   11.7562    4.4709 H   0  0  0  0  0  0  0  0  0  0  0  0
   -7.2790   13.0370    6.2381 H   0  0  0  0  0  0  0  0  0  0  0  0
  1  2  2  0  0  0  0
  2  3  1  0  0  0  0
  3  4  2  0  0  0  0
  3  5  1  0  0  0  0
  5  6  2  0  0  0  0
  6  7  1  0  0  0  0
  7  8  2  0  0  0  0
  8  9  1  0  0  0  0
  9 10  2  0  0  0  0
 10 11  1  0  0  0  0
 10 12  1  0  0  0  0
 12 13  2  0  0  0  0
 13 14  1  0  0  0  0
 14 15  2  0  0  0  0
 15 16  1  0  0  0  0
 16 17  2  0  0  0  0
 17 18  1  0  0  0  0
 18 19  3  0  0  0  0
 17 20  1  0  0  0  0
 20 21  3  0  0  0  0
  1 22  1  0  0  0  0
 22 23  2  0  0  0  0
 23 24  1  0  0  0  0
 24 25  1  0  0  0  0
 25 26  2  0  0  0  0
 26 27  1  0  0  0  0
 27 28  2  0  0  0  0
 28 29  1  0  0  0  0
 28 30  1  0  0  0  0
 30 31  2  0  0  0  0
 24 32  1  0  0  0  0
 32 33  2  0  0  0  0
 33 34  1  0  0  0  0
 34 35  2  0  0  0  0
 35 36  1  0  0  0  0
 35 37  1  0  0  0  0
 37 38  2  0  0  0  0
 23 39  1  0  0  0  0
 39 40  1  0  0  0  0
 40 41  1  0  0  0  0
 41 42  2  0  0  0  0
 42 43  1  0  0  0  0
 43 44  1  0  0  0  0
 44 45  2  0  0  0  0
 45 46  1  0  0  0  0
 46 47  2  0  0  0  0
 47 48  1  0  0  0  0
 47 49  1  0  0  0  0
 49 50  2  0  0  0  0
 43 51  1  0  0  0  0
 51 52  2  0  0  0  0
 52 53  1  0  0  0  0
 53 54  2  0  0  0  0
 54 55  1  0  0  0  0
 54 56  1  0  0  0  0
 56 57  2  0  0  0  0
 42 58  1  0  0  0  0
 58 59  1  0  0  0  0
 41 60  1  0  0  0  0
 60 61  2  0  0  0  0
 61 62  1  0  0  0  0
 62 63  1  0  0  0  0
 61 64  1  0  0  0  0
 64 65  1  0  0  0  0
 65 66  1  0  0  0  0
 66 67  1  0  0  0  0
 67 68  1  0  0  0  0
 68 69  1  0  0  0  0
 69 70  2  0  0  0  0
 70 71  1  0  0  0  0
 71 72  1  0  0  0  0
 69 73  1  0  0  0  0
 73 74  1  0  0  0  0
 74 75  1  0  0  0  0
 75 76  1  0  0  0  0
 76 77  1  0  0  0  0
 77 78  1  0  0  0  0
 78 79  1  0  0  0  0
 77 80  2  0  0  0  0
 80 81  1  0  0  0  0
 81 82  1  0  0  0  0
 82 83  1  0  0  0  0
 83 84  1  0  0  0  0
 84 85  1  0  0  0  0
 85 86  1  0  0  0  0
 86 87  1  0  0  0  0
 87 88  1  0  0  0  0
 88 89  1  0  0  0  0
 89 90  1  0  0  0  0
 87 91  1  0  0  0  0
 91 92  1  0  0  0  0
 84 93  1  0  0  0  0
 93 94  1  0  0  0  0
 80 95  1  0  0  0  0
 95 96  2  0  0  0  0
 96 97  1  0  0  0  0
 97 98  2  0  0  0  0
 98 99  1  0  0  0  0
 99100  2  0  0  0  0
100101  1  0  0  0  0
101102  1  0  0  0  0
102103  2  0  0  0  0
103104  1  0  0  0  0
104105  2  0  0  0  0
105106  1  0  0  0  0
106107  1  0  0  0  0
107108  1  0  0  0  0
108109  1  0  0  0  0
106110  2  0  0  0  0
101111  2  0  0  0  0
111112  1  0  0  0  0
112113  2  0  0  0  0
111114  1  0  0  0  0
114115  2  0  0  0  0
115116  1  0  0  0  0
116117  2  0  0  0  0
117118  1  0  0  0  0
118119  1  0  0  0  0
119120  1  0  0  0  0
120121  1  0  0  0  0
118122  2  0  0  0  0
 98123  1  0  0  0  0
123124  2  0  0  0  0
124125  1  0  0  0  0
125126  2  0  0  0  0
125127  1  0  0  0  0
127128  2  0  0  0  0
128129  1  0  0  0  0
129130  2  0  0  0  0
130131  1  0  0  0  0
130132  1  0  0  0  0
132133  1  0  0  0  0
132134  2  0  0  0  0
134135  1  0  0  0  0
128136  1  0  0  0  0
136137  2  0  0  0  0
137138  1  0  0  0  0
138139  3  0  0  0  0
137140  1  0  0  0  0
140141  3  0  0  0  0
 16  2  1  0  0  0  0
 59 22  1  0  0  0  0
 90 60  1  0  0  0  0
113 95  1  0  0  0  0
122114  1  0  0  0  0
136124  1  0  0  0  0
 15  5  1  0  0  0  0
 31 25  1  0  0  0  0
 38 32  1  0  0  0  0
 58 39  2  0  0  0  0
 89 64  2  0  0  0  0
113 99  1  0  0  0  0
134127  1  0  0  0  0
 13  7  1  0  0  0  0
 50 44  1  0  0  0  0
 57 51  1  0  0  0  0
 88 66  2  0  0  0  0
110102  1  0  0  0  0
 86 67  2  0  0  0  0
 72 68  2  0  0  0  0
 85 73  2  0  0  0  0
 83 74  2  0  0  0  0
 82 76  2  0  0  0  0
  1142  1  0  0  0  0
  6143  1  0  0  0  0
  8144  1  0  0  0  0
  9145  1  0  0  0  0
 12146  1  0  0  0  0
 14147  1  0  0  0  0
 26148  1  0  0  0  0
 27149  1  0  0  0  0
 29150  1  0  0  0  0
 29151  1  0  0  0  0
 29152  1  0  0  0  0
 30153  1  0  0  0  0
 31154  1  0  0  0  0
 33155  1  0  0  0  0
 34156  1  0  0  0  0
 36157  1  0  0  0  0
 36158  1  0  0  0  0
 36159  1  0  0  0  0
 37160  1  0  0  0  0
 38161  1  0  0  0  0
 45162  1  0  0  0  0
 46163  1  0  0  0  0
 48164  1  0  0  0  0
 48165  1  0  0  0  0
 48166  1  0  0  0  0
 49167  1  0  0  0  0
 50168  1  0  0  0  0
 52169  1  0  0  0  0
 53170  1  0  0  0  0
 55171  1  0  0  0  0
 55172  1  0  0  0  0
 55173  1  0  0  0  0
 56174  1  0  0  0  0
 57175  1  0  0  0  0
 62176  1  0  0  0  0
 62177  1  0  0  0  0
 63178  1  0  0  0  0
 63179  1  0  0  0  0
 63180  1  0  0  0  0
 78181  1  0  0  0  0
 78182  1  0  0  0  0
 79183  1  0  0  0  0
 79184  1  0  0  0  0
 79185  1  0  0  0  0
 91186  1  0  0  0  0
 91187  1  0  0  0  0
 92188  1  0  0  0  0
 92189  1  0  0  0  0
 92190  1  0  0  0  0
 93191  1  0  0  0  0
 93192  1  0  0  0  0
 94193  1  0  0  0  0
 94194  1  0  0  0  0
 94195  1  0  0  0  0
 96196  1  0  0  0  0
 97197  1  0  0  0  0
103198  1  0  0  0  0
104199  1  0  0  0  0
105200  1  0  0  0  0
108201  1  0  0  0  0
108202  1  0  0  0  0
109203  1  0  0  0  0
109204  1  0  0  0  0
109205  1  0  0  0  0
110206  1  0  0  0  0
115207  1  0  0  0  0
116208  1  0  0  0  0
117209  1  0  0  0  0
120210  1  0  0  0  0
120211  1  0  0  0  0
121212  1  0  0  0  0
121213  1  0  0  0  0
121214  1  0  0  0  0
122215  1  0  0  0  0
123216  1  0  0  0  0
129217  1  0  0  0  0
M  END
