209

C         -6.90790        4.46630        5.23980
C         -6.84780        4.39580        6.61810
C         -5.68820        4.72610        7.44410
O         -4.57390        5.06060        7.07420
C         -6.13680        4.61020        8.84420
C         -5.42430        4.80280        9.99060
C         -6.06360        4.61680       11.23760
C         -5.37490        4.79340       12.45420
C         -6.00340        4.60540       13.65420
C         -7.35350        4.23240       13.65940
F         -7.95640        4.05100       14.85050
C         -8.06820        4.04870       12.50840
C         -7.43610        4.23670       11.26430
C         -8.14860        4.04570       10.05590
C         -7.50770        4.22830        8.86100
C         -7.95910        4.07670        7.47800
C         -9.21540        3.66040        7.10070
C        -10.27090        3.42280        8.00210
N        -11.17860        3.22700        8.67900
C         -9.62670        3.38010        5.78500
N        -10.03710        3.09450        4.74880
C         -5.89720        4.66180        4.30700
C         -6.13210        4.66120        2.90310
N         -7.35750        4.74920        2.30810
C         -7.54630        4.15450        1.04390
C         -7.10820        2.85360        0.81290
C         -7.28240        2.27680       -0.42880
C         -7.89970        2.97250       -1.46200
C         -8.05580        2.34840       -2.81390
C         -8.34840        4.26450       -1.21500
C         -8.17610        4.85530        0.02090
C         -8.41000        5.51340        2.84890
C         -9.72530        5.07870        2.70690
C        -10.75800        5.82730        3.23420
C        -10.51210        7.01450        3.91440
C        -11.64440        7.79390        4.50820
C         -9.19680        7.44870        4.03200
C         -8.15380        6.71660        3.50110
C         -4.92110        4.55230        2.19930
S         -4.50130        4.38890        0.52230
C         -2.79740        4.34000        0.94160
C         -2.57610        4.41090        2.30980
N         -1.34770        4.28770        2.93690
C         -0.39620        3.36630        2.48610
C          0.96420        3.65730        2.57440
C          1.89810        2.78240        2.05980
C          1.51420        1.59360        1.44820
C          2.54380        0.67160        0.86960
C          0.16150        1.28520        1.41120
C         -0.78380        2.14920        1.93030
C         -1.11470        5.05300        4.09140
C         -0.44280        4.51070        5.18230
C         -0.24780        5.26700        6.32050
C         -0.71910        6.57070        6.40740
C         -0.54820        7.37290        7.66050
C         -1.38290        7.10580        5.31080
C         -1.57830        6.36350        4.16460
C         -3.79540        4.55370        3.01430
S         -4.17220        4.70260        4.69120
C         -1.79380        4.08380       -0.04850
C         -0.55500        4.68420       -0.16130
C         -0.23030        5.96890        0.45250
C         -1.21780        6.93940        0.61980
C         -0.90810        8.15020        1.20700
C          0.38200        8.41080        1.63590
C          1.38360        7.46620        1.45880
C          2.80110        7.75390        1.86150
C          3.61130        8.22820        0.65370
C          1.06880        6.25760        0.85670
C          0.31170        3.90320       -0.96080
S          2.01750        4.00060       -1.32740
C          1.92570        2.45880       -2.10970
C          2.77350        1.49230       -2.67550
C          4.16080        1.51090       -2.93440
C          4.77550        0.35160       -3.51390
N          6.07160        0.51810       -3.72500
S          6.48460        2.00490       -3.23410
N          5.02520        2.49250       -2.72860
C          3.99170       -0.80500       -3.71830
C          4.35870       -2.11000       -4.07740
S          5.78050       -3.00930       -4.49130
C          4.81650       -4.47030       -4.50220
C          5.13610       -5.81410       -4.70130
C          6.47580       -6.32500       -5.02630
C          6.76050       -6.74770       -6.32060
C          8.01330       -7.24840       -6.61620
C          8.97500       -7.34350       -5.62690
C          8.70690       -6.91970       -4.33290
C          9.72280       -7.09170       -3.24150
C          9.46460       -8.40710       -2.50340
C          7.45430       -6.39840       -4.04480
C          4.01540       -6.62940       -4.56780
S          2.54770       -5.71290       -4.23990
C          3.45890       -4.24850       -4.22300
C          3.20500       -2.89550       -3.98140
N          2.13850       -2.12180       -3.61150
C          2.59450       -0.82820       -3.43190
C          1.96300        0.36640       -2.99730
N          0.64620        0.67550       -2.68250
C          0.63700        1.92820       -2.13200
C         -0.28550        2.75550       -1.48000
S         -1.94620        2.63450       -1.03030
C         -0.58970        0.12830       -3.20020
C         -0.58690        0.08580       -4.72590
C          0.92180       -2.76110       -3.16490
C          0.78380       -2.70100       -1.64550
C          3.97520       -8.03750       -4.57330
C          2.85570       -8.85680       -4.51280
C          1.39750       -8.70690       -4.46910
O          0.71060       -7.71150       -4.44640
N          0.90440      -10.00640       -4.44490
C         -0.50290      -10.31740       -4.41310
C          1.89830      -10.98160       -4.45320
O          1.70130      -12.16970       -4.46280
C          3.16010      -10.22120       -4.47540
C          4.51450      -10.52070       -4.47490
S          5.42950       -9.01780       -4.59210
C          5.01150      -11.82560       -4.31520
C          6.30970      -12.25990       -4.29460
C          7.48900      -11.44140       -4.61540
O          7.53090      -10.23960       -4.81140
C          8.62730      -12.37170       -4.67440
C          9.93270      -12.10570       -4.97250
C         10.86710      -13.16460       -4.97380
C         12.22830      -12.94770       -5.26990
C         13.12280      -13.98160       -5.26830
C         12.66670      -15.27200       -4.96640
F         13.56160      -16.27610       -4.96920
C         11.35790      -15.53730       -4.67300
C         10.42290      -14.48420       -4.66890
C          9.06330      -14.72810       -4.36260
C          8.17640      -13.68520       -4.36050
C          6.74850      -13.62290       -4.05780
C          5.99990      -14.65020       -3.54840
C          4.67150      -14.54490       -3.07960
N          3.61950      -14.54030       -2.62100
C          6.49270      -15.95730       -3.35050
N          6.83170      -17.04010       -3.17590
H         -7.88870        4.31950        4.80640
H         -4.38330        5.08690        9.94820
H         -4.33430        5.08040       12.42390
H         -5.49030        4.73530       14.59380
H         -9.10690        3.76010       12.55050
H         -9.18550        3.75620       10.11190
H         -6.64080        2.29930        1.61360
H         -6.93780        1.26710       -0.59780
H         -8.26430        1.28440       -2.72790
H         -8.85920        2.82270       -3.37180
H         -7.13270        2.46430       -3.38300
H         -8.83400        4.82040       -2.00360
H         -8.52230        5.86250        0.19940
H         -9.92970        4.14980        2.19860
H        -11.77250        5.47320        3.13120
H        -11.30050        8.74820        4.89890
H        -12.09930        7.23020        5.32250
H        -12.41560        7.97680        3.76190
H         -8.98360        8.37800        4.54050
H         -7.13750        7.07020        3.59530
H          1.27500        4.58330        3.03380
H          2.94780        3.03250        2.11530
H          3.06580        0.14080        1.66620
H          2.08510       -0.06510        0.21390
H          3.28450        1.23130        0.30130
H         -0.16370        0.35360        0.96880
H         -1.83080        1.88400        1.90170
H         -0.08590        3.49230        5.13680
H          0.26850        4.82920        7.16280
H         -1.46060        7.31980        8.25500
H         -0.35980        8.41930        7.42940
H          0.27290        6.98960        8.26170
H         -1.75290        8.11990        5.35470
H         -2.08720        6.79530        3.31590
H         -2.22250        6.74870        0.27260
H         -1.67790        8.89840        1.33020
H          0.61380        9.35660        2.10380
H          3.26010        6.84980        2.26720
H          2.81790        8.52320        2.63590
H          3.61940        7.46330       -0.11940
H          3.17320        9.13240        0.23660
H          4.63740        8.44130        0.94370
H          1.84500        5.52120        0.71740
H          5.99860       -6.68320       -7.08370
H          8.23690       -7.57490       -7.62100
H          9.94730       -7.75180       -5.86210
H          9.66140       -6.26080       -2.53590
H         10.72790       -7.10560       -3.66740
H          9.45710       -9.23560       -3.20750
H         10.23240       -8.58550       -1.75380
H          8.49500       -8.37940       -2.01170
H          7.22660       -6.06340       -3.04280
H         -0.79330       -0.85380       -2.77260
H         -1.38630        0.79460       -2.85960
H          0.23140       -0.52370       -5.10240
H         -1.52620       -0.32440       -5.08670
H         -0.47120        1.09100       -5.12520
H          0.05690       -2.32900       -3.66750
H          0.98460       -3.80620       -3.47740
H          1.61600       -3.22200       -1.17790
H          0.78330       -1.67300       -1.29020
H         -0.14080       -3.18160       -1.33790
H         -0.97910       -9.79040       -3.58600
H         -0.97950      -10.01370       -5.34670
H         -0.60110      -11.39340       -4.28100
H          4.22440      -12.56170       -4.18850
H         10.24790      -11.09940       -5.20530
H         12.55590      -11.94480       -5.49920
H         14.16730      -13.83300       -5.49220
H         11.04250      -16.54320       -4.44380
H          8.75970      -15.73810       -4.13960
