256

C         10.01600       -1.92120        8.65940
C         10.57820       -0.73110        9.08200
C         10.38540        0.57990        8.46670
O          9.79510        0.84820        7.43240
C         11.03780        1.55330        9.36260
C         11.12280        2.90810        9.23720
C         11.79810        3.65000       10.23310
C         11.91660        5.05200       10.15650
C         12.57060        5.75870       11.12770
C         13.12660        5.06490       12.20980
F         13.76720        5.77720       13.15770
C         13.04080        3.70590       12.33230
C         12.37140        2.96270       11.34120
C         12.26890        1.55400       11.44000
C         11.61080        0.85730       10.46340
C         11.35950       -0.57240       10.28220
C         11.82670       -1.56450       11.11430
C         11.71640       -2.94770       10.88440
N         11.70470       -4.09130       10.75910
C         12.52360       -1.32400       12.31360
N         13.08000       -1.20110       13.31170
C          9.25140       -2.20920        7.53650
C          8.71750       -3.50210        7.26940
N          8.68000       -4.54020        8.15820
C          8.46510       -4.34640        9.53630
C          7.62060       -3.33590        9.98970
C          7.43430       -3.14800       11.34440
C          8.06210       -3.96670       12.27620
C          7.88560       -3.74710       13.74690
C          8.87340       -4.99510       11.81140
C          9.08130       -5.18670       10.46010
C          8.71260       -5.85840        7.66200
C          9.64130       -6.21120        6.68700
C          9.67180       -7.50090        6.19670
C          8.78920       -8.46700        6.66530
C          8.81110       -9.85650        6.10830
C          7.87340       -8.10640        7.64680
C          7.82920       -6.81910        8.14320
C          8.20240       -3.57060        5.96550
S          7.40480       -4.80640        5.03710
C          7.16380       -3.67530        3.71980
C          7.61790       -2.39620        4.01920
N          7.41490       -1.27240        3.23180
C          6.19620       -1.08230        2.56700
C          6.16240       -0.46760        1.31770
C          4.96790       -0.33920        0.63480
C          3.78020       -0.82750        1.16220
C          2.49120       -0.74150        0.40400
C          3.81710       -1.41410        2.42220
C          4.99890       -1.53120        3.12290
C          8.39830       -0.27150        3.23250
C          8.04770        1.07540        3.25460
C          9.02870        2.04460        3.29530
C         10.37630        1.70540        3.32200
C         11.43110        2.76380        3.42300
C         10.71780        0.36010        3.28520
C          9.74660       -0.61970        3.23470
C          8.24600       -2.35950        5.28400
S          8.95370       -1.08410        6.20590
C          6.48020       -4.01790        2.51250
S          4.92200       -4.83370        2.54980
C          4.65690       -4.41570        0.89820
C          3.61190       -4.37570       -0.04940
C          4.15170       -3.67450       -1.16680
N          5.46640       -3.35330       -0.92320
C          5.76200       -3.75410        0.35000
C          6.79920       -3.53800        1.26380
C          6.31810       -2.61020       -1.80610
C          3.36980       -3.32610       -2.25710
C          2.01770       -3.62230       -2.18860
C          0.91660       -3.29970       -3.06170
C         -0.22550       -3.85630       -2.56960
C         -0.01250       -4.54880       -1.25370
C         -0.40850       -6.03110       -1.27540
C          0.21710       -6.77100       -2.45200
C         -0.81950       -3.74570       -0.20450
C         -0.65160       -4.16630        1.24940
C          1.48200       -4.35750       -1.08790
C          2.27010       -4.76920       -0.04600
C         -1.36620       -3.46440       -3.34370
C         -0.88890       -2.57510       -4.34430
C          0.62920       -2.43600       -4.26690
C          0.90130       -0.93680       -4.00930
C          2.34230       -0.49900       -3.79190
C          1.21300       -2.96630       -5.59580
C          2.62600       -3.53310       -5.54760
C         -1.74940       -1.90830       -5.17340
C         -3.11840       -2.11420       -4.98090
C         -4.27830       -1.48410       -5.47500
S         -4.71330       -0.12270       -6.43480
C         -6.36930       -0.24010       -5.85510
C         -6.58380       -1.34780       -5.07090
C         -5.38770       -2.03830       -4.82890
N         -4.96630       -3.02980       -3.98320
C         -5.79010       -3.78840       -3.08620
C         -3.59110       -3.05430       -4.01670
C         -2.71430       -3.75030       -3.19750
C         -7.26800        0.85330       -6.06680
C         -6.99830        2.19040       -5.80030
N         -5.83840        2.69820       -5.24900
C         -5.08720        1.97920       -4.30300
C         -5.68950        1.14250       -3.36940
C         -4.91050        0.40410       -2.49810
C         -3.52570        0.48820       -2.52160
C         -2.67860       -0.33870       -1.60400
C         -2.93460        1.36070       -3.42980
C         -3.69880        2.10010       -4.30730
C         -5.58200        4.07640       -5.39640
C         -5.34520        4.87000       -4.27800
C         -5.17960        6.23320       -4.41920
C         -5.23940        6.83620       -5.66980
C         -5.08970        8.31950       -5.81880
C         -5.43510        6.03070       -6.78560
C         -5.60390        4.66550       -6.65790
C         -8.13500        2.98540       -6.07020
S         -8.44520        4.66640       -5.87760
C        -10.14280        4.42880       -6.29470
C        -10.42730        3.07760       -6.57520
N        -11.66480        2.58820       -6.87350
C        -12.84020        3.17510       -6.35550
C        -13.96300        3.30030       -7.16630
C        -15.11750        3.86730       -6.66280
C        -15.17980        4.31970       -5.35040
C        -16.42100        4.96920       -4.82250
C        -14.05400        4.17570       -4.54670
C        -12.89550        3.60460       -5.03280
C        -11.78200        1.41940       -7.64750
C        -12.70760        0.43790       -7.30900
C        -12.82320       -0.69910       -8.08450
C        -12.02570       -0.88800       -9.20640
C        -12.13390       -2.12930      -10.03650
C        -11.10870        0.10270       -9.54040
C        -10.98680        1.24600       -8.77810
C         -9.26430        2.28140       -6.45890
S         -8.93510        0.58060       -6.55050
C        -10.98140        5.53570       -6.47130
C        -10.71330        6.83560       -6.11780
C        -11.34910        7.95350       -6.84500
O        -12.31270        7.90050       -7.58040
C        -10.51610        9.13850       -6.53370
C        -10.58340       10.40170       -7.04310
C         -9.63280       11.36490       -6.63040
C         -9.65470       12.68240       -7.13010
C         -8.72430       13.60350       -6.73450
C         -7.73810       13.21820       -5.81770
F         -6.82670       14.13740       -5.44140
C         -7.67210       11.95480       -5.30030
C         -8.62500       10.99540       -5.69350
C         -8.59130        9.68300       -5.16630
C         -9.52440        8.77320       -5.57830
C         -9.74890        7.38200       -5.19860
C         -9.32450        6.80690       -4.02270
C         -8.39030        7.39500       -3.15410
N         -7.60700        7.82210       -2.42950
C         -9.84710        5.58960       -3.54610
N        -10.30620        4.63040       -3.10990
H         10.19290       -2.77290        9.30350
H         10.68000        3.40930        8.38930
H         11.47870        5.56390        9.31250
H         12.66970        6.83170       11.08400
H         13.48180        3.20500       13.18000
H         12.71510        1.06550       12.29110
H          7.11920       -2.69600        9.27840
H          6.78300       -2.35460       11.68210
H          7.10160       -3.02010       13.94290
H          7.63370       -4.68060       14.24690
H          8.81450       -3.37850       14.18250
H          9.36790       -5.64390       12.51830
H          9.73150       -5.97490       10.11530
H         10.34120       -5.47170        6.32630
H         10.39800       -7.76410        5.44160
H          8.18820       -9.90610        5.21450
H          9.82130      -10.14700        5.82940
H          8.42310      -10.57140        6.82980
H          7.17900       -8.84280        8.02420
H          7.10840       -6.54900        8.90060
H          7.08000       -0.09760        0.88340
H          4.96220        0.14230       -0.33320
H          1.68360       -0.41410        1.05640
H          2.22370       -1.72200        0.00880
H          2.57290       -0.04670       -0.42840
H          2.90210       -1.78410        2.86180
H          5.00190       -1.97970        4.10540
H          7.00420        1.35380        3.25490
H          8.74160        3.08590        3.32390
H         11.61460        2.99720        4.47230
H         11.11600        3.67790        2.92440
H         12.36730        2.42540        2.98470
H         11.75960        0.07320        3.29730
H         10.02780       -1.66280        3.20260
H          7.72640       -3.03590        1.05580
H          7.26890       -2.42650       -1.31170
H          6.49950       -3.17000       -2.72800
H          5.86300       -1.65040       -2.06220
H          3.80410       -2.82400       -3.10360
H         -1.49630       -6.10860       -1.33450
H         -0.08530       -6.50170       -0.34580
H          1.30180       -6.69800       -2.41190
H         -0.05940       -7.82280       -2.42740
H         -0.12070       -6.34630       -3.39480
H         -0.53520       -2.69420       -0.29990
H         -1.87490       -3.82220       -0.47410
H         -1.33390       -3.58810        1.86990
H          0.35950       -3.97630        1.59680
H         -0.88180       -5.21940        1.38740
H          1.88770       -5.35370        0.77550
H          0.31890       -0.65180       -3.12820
H          0.49580       -0.38380       -4.85940
H          2.75180       -0.94830       -2.89290
H          2.36950        0.58340       -3.67280
H          2.96700       -0.75520       -4.64290
H          1.16680       -2.16280       -6.33410
H          0.55090       -3.76440       -5.94310
H          3.36110       -2.76870       -5.31540
H          2.69660       -4.32590       -4.80760
H          2.87690       -3.95150       -6.52090
H         -1.41360       -1.20960       -5.92400
H         -7.54190       -1.57080       -4.63680
H         -5.53580       -4.84870       -3.14600
H         -5.65790       -3.45390       -2.05250
H         -6.83350       -3.66140       -3.36660
H         -3.06890       -4.44330       -2.45090
H         -6.76650        1.07630       -3.32470
H         -5.39420       -0.24620       -1.78290
H         -1.88830        0.26550       -1.16190
H         -2.20940       -1.15020       -2.16060
H         -3.27600       -0.77200       -0.80550
H         -1.85830        1.44830       -3.45620
H         -3.23130        2.76470       -5.01860
H         -5.31930        4.41500       -3.29890
H         -5.03020        6.84020       -3.53870
H         -5.86960        8.72130       -6.46410
H         -5.14560        8.80920       -4.85020
H         -4.12660        8.55980       -6.26980
H         -5.46660        6.48050       -7.76760
H         -5.76690        4.04840       -7.52980
H        -13.92240        2.96010       -8.19090
H        -15.98110        3.96780       -7.30380
H        -16.38570        6.04190       -5.01600
H        -16.50880        4.82420       -3.74840
H        -17.30740        4.56930       -5.30940
H        -14.08330        4.50930       -3.52000
H        -12.03270        3.50260       -4.39200
H        -13.32900        0.57040       -6.43590
H        -13.54360       -1.45530       -7.80830
H        -12.14460       -1.88340      -11.09660
H        -13.03690       -2.68360       -9.79440
H        -11.27520       -2.77550       -9.85380
H        -10.48750       -0.02060      -10.41540
H        -10.28390        2.01650       -9.05980
H        -11.87980        5.38820       -7.06000
H        -11.34940       10.66700       -7.75650
H        -10.42380       12.95590       -7.83700
H         -8.72840       14.61520       -7.10800
H         -6.90100       11.69370       -4.59240
H         -7.82140        9.42410       -4.45720
