242

C         -7.23270       -8.60430       -4.69820
C         -6.98880       -9.73940       -3.94810
C         -5.68970      -10.17650       -3.44290
O         -4.61340       -9.60810       -3.54070
C         -5.91980      -11.48150       -2.79500
C         -5.02550      -12.29390       -2.16290
C         -5.47670      -13.51250       -1.60590
C         -4.59930      -14.38860       -0.93650
C         -5.04870      -15.56440       -0.40180
C         -6.40480      -15.89070       -0.52920
F         -6.82990      -17.05280        0.00360
C         -7.29810      -15.07680       -1.16850
C         -6.85250      -13.86190       -1.72370
C         -7.75610      -12.99580       -2.38520
C         -7.29710      -11.81960       -2.91210
C         -7.97960      -10.72860       -3.60750
C         -9.33510      -10.67150       -3.84090
C        -10.03320       -9.56970       -4.36740
N        -10.68720       -8.70350       -4.74920
C        -10.23010      -11.71670       -3.54200
N        -11.01440      -12.53080       -3.33480
C         -6.39380       -7.55220       -5.04010
C         -6.84030       -6.41760       -5.77440
N         -8.02980       -6.30990       -6.43800
C         -8.62540       -7.38560       -7.12260
C         -7.84600       -8.35550       -7.74820
C         -8.45100       -9.39690       -8.42280
C         -9.83550       -9.49070       -8.50720
C        -10.49390      -10.62940       -9.22260
C        -10.60270       -8.50390       -7.89940
C        -10.01290       -7.46370       -7.20990
C         -8.59220       -5.02500       -6.59240
C         -8.71730       -4.18620       -5.48780
C         -9.23600       -2.91710       -5.64020
C         -9.64580       -2.45450       -6.88660
C        -10.19120       -1.06810       -7.03330
C         -9.53620       -3.30750       -7.97720
C         -9.01620       -4.57990       -7.83930
C         -5.88840       -5.38880       -5.72050
S         -5.82400       -3.77550       -6.34980
C         -4.20830       -3.55620       -5.69100
C         -3.72980       -4.71680       -5.08720
N         -2.45300       -4.88950       -4.57760
C         -1.32390       -4.45320       -5.27760
C         -0.15400       -4.14980       -4.58320
C          0.95670       -3.68370       -5.25780
C          0.93700       -3.49820       -6.63410
C          2.12990       -2.96630       -7.36840
C         -0.23070       -3.81020       -7.32130
C         -1.34470       -4.28540       -6.66110
C         -2.31930       -5.75850       -3.47730
C         -1.37230       -6.77680       -3.47370
C         -1.31440       -7.66050       -2.41500
C         -2.19300       -7.55810       -1.34380
C         -2.17400       -8.56300       -0.23390
C         -3.11830       -6.52190       -1.34410
C         -3.18220       -5.62730       -2.39310
C         -4.70770       -5.73760       -5.07680
S         -4.73410       -7.35260       -4.46200
C         -3.59590       -2.27180       -5.71430
C         -3.82250       -1.20000       -6.55640
C         -4.72250       -1.16840       -7.74920
C         -6.07440       -0.54130       -7.40250
C         -3.08150       -0.07390       -6.15790
S         -2.96790        1.54600       -6.80670
C         -1.85850        1.95210       -5.54090
C         -1.16640        3.07080       -5.04700
C         -1.22950        4.44310       -5.37970
C         -0.59920        5.40450       -4.51390
N         -0.82390        6.65130       -4.89630
S         -1.73720        6.62310       -6.23350
N         -1.88840        5.01730       -6.37340
C          0.19290        4.94120       -3.44040
C          0.97330        5.59890       -2.47210
S          1.30310        7.20180       -1.91580
C          2.35530        6.55040       -0.66490
C          3.11240        7.11580        0.39080
O          3.28380        8.41430        0.69150
C          2.42470        9.38270        0.11400
C          1.04000        9.37390        0.74800
C          3.78580        6.14110        1.11850
S          3.48880        4.52620        0.48170
C          2.44690        5.15890       -0.73340
C          1.65450        4.61670       -1.75050
N          1.31420        3.37120       -2.21600
C          0.38240        3.55110       -3.22330
C         -0.42610        2.62230       -3.92010
N         -0.70160        1.28080       -3.70480
C         -1.57860        0.88630       -4.68120
C         -2.28980       -0.26920       -5.02680
S         -2.46190       -1.87420       -4.42010
C         -0.60100        0.51140       -2.48080
C         -1.21060        1.24610       -1.29130
C          2.21680        2.25030       -2.07350
C          3.61720        2.58660       -2.58480
C          4.62490        6.16890        2.27320
C          4.69360        6.97350        3.40480
N          4.04610        8.18780        3.65390
C          3.56860        8.30990        4.97950
C          2.70160        7.33670        5.47080
C          2.30070        7.36450        6.79150
C          2.74630        8.35860        7.65570
C          2.34850        8.34590        9.10030
C          3.58910        9.34090        7.15150
C          3.99980        9.32230        5.83290
C          4.41890        9.34670        2.96100
C          5.57300        9.40140        2.18440
C          5.90570       10.56100        1.51480
C          5.11590       11.70110        1.60830
C          5.50520       12.96070        0.89530
C          3.97130       11.64240        2.39330
C          3.62000       10.48350        3.05720
C          5.50250        6.36900        4.39700
S          5.86820        6.81030        6.02210
C          6.84200        5.35260        6.23030
C          6.92390        4.60710        5.03400
N          7.68750        3.49060        4.86260
C          8.91490        3.31600        5.53660
C          9.76060        4.39560        5.77560
C         10.95780        4.19640        6.43190
C         11.34870        2.92920        6.85150
C         12.63660        2.73060        7.58830
C         10.50430        1.85730        6.59020
C          9.29880        2.04180        5.94140
C          7.31600        2.55700        3.87540
C          8.25520        2.06220        2.97610
C          7.86610        1.17500        1.99310
C          6.54340        0.76100        1.87990
C          6.12160       -0.15770        0.77510
C          5.61880        1.24040        2.79890
C          5.99550        2.12430        3.79050
C          6.11320        5.17950        4.03240
S          5.68390        4.76220        2.41020
C          7.22190        4.91060        7.49960
C          7.04060        5.55470        8.70020
C          6.85860        4.77150        9.93810
O          7.12520        3.60130       10.11780
C          6.21050        5.70460       10.88930
C          5.70830        5.45850       12.13280
C          5.07590        6.50640       12.84220
C          4.53750        6.30370       14.12870
C          3.91990        7.32000       14.80410
C          3.82670        8.57770       14.19510
F          3.21250        9.56750       14.87340
C          4.33200        8.82870       12.95000
C          4.97510        7.79500       12.24270
C          5.52020        8.02600       10.95700
C          6.13050        6.99740       10.29540
C          6.79160        6.93950        8.99500
C          7.32060        8.01470        8.31850
C          8.24780        7.84770        7.27160
N          9.05480        7.72160        6.46350
C          7.05670        9.35340        8.65000
N          6.84090       10.46000        8.87220
H         -8.24540       -8.49650       -5.06510
H         -3.98590      -12.01150       -2.08660
H         -3.55810      -14.11510       -0.85140
H         -4.39030      -16.24560        0.11370
H         -8.33620      -15.36000       -1.24710
H         -8.79080      -13.29010       -2.45480
H         -6.76870       -8.29120       -7.70190
H         -7.83420      -10.14450       -8.90050
H        -11.28570      -10.26630       -9.87500
H         -9.77450      -11.18660       -9.81740
H        -10.94520      -11.31090       -8.50130
H        -11.67940       -8.55890       -7.95160
H        -10.62140       -6.71470       -6.72850
H         -8.40720       -4.53910       -4.51500
H         -9.32750       -2.27250       -4.77810
H        -11.07260       -0.93880       -6.40660
H        -10.46570       -0.86380       -8.06470
H         -9.44940       -0.33510       -6.71870
H         -9.85350       -2.97010       -8.95300
H         -8.92630       -5.23070       -8.69640
H         -0.12910       -4.27360       -3.51080
H          1.85310       -3.45120       -4.70050
H          2.33350       -3.56540       -8.25410
H          1.94500       -1.94260       -7.69540
H          3.01200       -2.96930       -6.73300
H         -0.26560       -3.68460       -8.39400
H         -2.23540       -4.53290       -7.21950
H         -0.69990       -6.88310       -4.31230
H         -0.58650       -8.45850       -2.43260
H         -1.19580       -9.02940       -0.14460
H         -2.43600       -8.10190        0.71610
H         -2.90610       -9.34400       -0.44220
H         -3.80370       -6.41860       -0.51510
H         -3.90900       -4.82740       -2.38790
H         -4.87360       -2.17540       -8.13930
H         -4.24020       -0.56500       -8.52210
H         -6.70890       -0.51580       -8.28430
H         -6.57850       -1.12150       -6.63310
H         -5.93390        0.47510       -7.04240
H          2.92790       10.33050        0.31780
H          2.35820        9.24340       -0.97040
H          0.53870        8.42530        0.57210
H          1.12740        9.53050        1.81990
H          0.43940       10.16970        0.31820
H          0.43300        0.23400       -2.26470
H         -1.15120       -0.41600       -2.65830
H         -0.66060        2.15620       -1.06820
H         -1.18900        0.60240       -0.41640
H         -2.24400        1.50960       -1.50430
H          2.26550        1.95990       -1.01900
H          1.82950        1.42700       -2.66840
H          4.23750        1.69500       -2.55100
H          3.56670        2.93740       -3.61350
H          4.08470        3.35350       -1.97470
H          2.36340        6.54980        4.81130
H          1.63710        6.59600        7.16200
H          2.53350        9.31210        9.56230
H          2.92620        7.59430        9.64070
H          1.29440        8.09860        9.21000
H          3.95540       10.12080        7.80280
H          4.68190       10.07630        5.46990
H          6.21040        8.53320        2.10610
H          6.80510       10.58660        0.91610
H          4.66440       13.64720        0.83040
H          5.86000       12.74140       -0.11000
H          6.31210       13.46090        1.43170
H          3.33890       12.51460        2.48250
H          2.72420       10.45480        3.66020
H          9.48090        5.38880        5.45880
H         11.60140        5.04370        6.61500
H         13.37790        3.46340        7.27830
H         12.47110        2.85240        8.65930
H         13.03190        1.73150        7.42060
H         10.78840        0.86400        6.90570
H          8.64620        1.20210        5.75130
H          9.28270        2.38670        3.04700
H          8.60100        0.80570        1.29270
H          5.88150        0.42570       -0.11460
H          5.23740       -0.72480        1.05610
H          6.92000       -0.84980        0.51810
H          4.58940        0.91900        2.73920
H          5.27040        2.48330        4.50630
H          7.54600        3.87820        7.57490
H          5.78780        4.47580       12.57330
H          4.62120        5.32490       14.57700
H          3.50450        7.18050       15.78950
H          4.24640        9.81170       12.51390
H          5.43280        9.00860       10.52100
