
  xtb     02062221173D
 energy: -408.922071053684 gnorm: 0.000810553624 xtb: 6.4.1 (unknown)
249274  0     0  0            999 V2000
    9.1639   -2.0034   -7.6637 C   0  0  0  0  0  0  0  0  0  0  0  0
    9.2779   -3.3135   -8.0911 C   0  0  0  0  0  0  0  0  0  0  0  0
    8.3680   -4.3877   -7.6713 C   0  0  0  0  0  0  0  0  0  0  0  0
    7.4395   -4.3086   -6.8866 O   0  0  0  0  0  0  0  0  0  0  0  0
    8.7286   -5.5588   -8.4983 C   0  0  0  0  0  0  0  0  0  0  0  0
    8.1793   -6.8055   -8.5048 C   0  0  0  0  0  0  0  0  0  0  0  0
    8.7008   -7.7843   -9.3829 C   0  0  0  0  0  0  0  0  0  0  0  0
    8.1768   -9.0914   -9.4253 C   0  0  0  0  0  0  0  0  0  0  0  0
    8.6851  -10.0283  -10.2827 C   0  0  0  0  0  0  0  0  0  0  0  0
    9.7446   -9.6697  -11.1251 C   0  0  0  0  0  0  0  0  0  0  0  0
   10.2339  -10.6051  -11.9629 F   0  0  0  0  0  0  0  0  0  0  0  0
   10.2910   -8.4163  -11.1228 C   0  0  0  0  0  0  0  0  0  0  0  0
    9.7793   -7.4401  -10.2468 C   0  0  0  0  0  0  0  0  0  0  0  0
   10.3245   -6.1337  -10.2206 C   0  0  0  0  0  0  0  0  0  0  0  0
    9.8094   -5.2095   -9.3552 C   0  0  0  0  0  0  0  0  0  0  0  0
   10.1703   -3.8191   -9.0913 C   0  0  0  0  0  0  0  0  0  0  0  0
   11.2764   -3.1674   -9.5861 C   0  0  0  0  0  0  0  0  0  0  0  0
   11.6644   -1.8719   -9.1957 C   0  0  0  0  0  0  0  0  0  0  0  0
   12.0556   -0.8341   -8.8946 N   0  0  0  0  0  0  0  0  0  0  0  0
   12.1992   -3.7484  -10.4726 C   0  0  0  0  0  0  0  0  0  0  0  0
   12.9939   -4.1788  -11.1829 N   0  0  0  0  0  0  0  0  0  0  0  0
    8.6123   -1.5793   -6.4570 C   0  0  0  0  0  0  0  0  0  0  0  0
    8.4372   -2.2450   -5.2218 C   0  0  0  0  0  0  0  0  0  0  0  0
    8.9541   -3.4557   -4.8695 N   0  0  0  0  0  0  0  0  0  0  0  0
   10.0933   -4.0060   -5.4741 C   0  0  0  0  0  0  0  0  0  0  0  0
   10.1474   -5.3742   -5.7305 C   0  0  0  0  0  0  0  0  0  0  0  0
   11.2468   -5.9208   -6.3665 C   0  0  0  0  0  0  0  0  0  0  0  0
   12.3184   -5.1287   -6.7550 C   0  0  0  0  0  0  0  0  0  0  0  0
   13.4882   -5.7041   -7.4887 C   0  0  0  0  0  0  0  0  0  0  0  0
   12.2771   -3.7695   -6.4502 C   0  0  0  0  0  0  0  0  0  0  0  0
   11.1855   -3.2110   -5.8202 C   0  0  0  0  0  0  0  0  0  0  0  0
    8.3438   -4.1886   -3.8275 C   0  0  0  0  0  0  0  0  0  0  0  0
    6.9664   -4.3848   -3.8194 C   0  0  0  0  0  0  0  0  0  0  0  0
    6.3816   -5.0991   -2.7931 C   0  0  0  0  0  0  0  0  0  0  0  0
    7.1475   -5.6321   -1.7619 C   0  0  0  0  0  0  0  0  0  0  0  0
    6.4970   -6.3779   -0.6380 C   0  0  0  0  0  0  0  0  0  0  0  0
    8.5240   -5.4432   -1.7914 C   0  0  0  0  0  0  0  0  0  0  0  0
    9.1232   -4.7301   -2.8115 C   0  0  0  0  0  0  0  0  0  0  0  0
    7.7475   -1.4108   -4.3104 C   0  0  0  0  0  0  0  0  0  0  0  0
    7.1831   -1.6170   -2.6850 S   0  0  0  0  0  0  0  0  0  0  0  0
    6.6188    0.0425   -2.6511 C   0  0  0  0  0  0  0  0  0  0  0  0
    6.8077    0.7037   -3.8563 C   0  0  0  0  0  0  0  0  0  0  0  0
    6.3608    1.9804   -4.1490 N   0  0  0  0  0  0  0  0  0  0  0  0
    5.1441    2.4452   -3.6303 C   0  0  0  0  0  0  0  0  0  0  0  0
    5.0083    3.7706   -3.2212 C   0  0  0  0  0  0  0  0  0  0  0  0
    3.8410    4.1982   -2.6233 C   0  0  0  0  0  0  0  0  0  0  0  0
    2.7721    3.3302   -2.4250 C   0  0  0  0  0  0  0  0  0  0  0  0
    1.5278    3.7977   -1.7330 C   0  0  0  0  0  0  0  0  0  0  0  0
    2.8899    2.0305   -2.8964 C   0  0  0  0  0  0  0  0  0  0  0  0
    4.0539    1.5897   -3.4968 C   0  0  0  0  0  0  0  0  0  0  0  0
    7.1369    2.8015   -4.9821 C   0  0  0  0  0  0  0  0  0  0  0  0
    6.5278    3.6467   -5.9048 C   0  0  0  0  0  0  0  0  0  0  0  0
    7.2975    4.4423   -6.7304 C   0  0  0  0  0  0  0  0  0  0  0  0
    8.6847    4.4125   -6.6686 C   0  0  0  0  0  0  0  0  0  0  0  0
    9.5238    5.2521   -7.5820 C   0  0  0  0  0  0  0  0  0  0  0  0
    9.2843    3.5667   -5.7427 C   0  0  0  0  0  0  0  0  0  0  0  0
    8.5271    2.7726   -4.9063 C   0  0  0  0  0  0  0  0  0  0  0  0
    7.4757   -0.1335   -4.7821 C   0  0  0  0  0  0  0  0  0  0  0  0
    8.0491    0.0997   -6.3891 S   0  0  0  0  0  0  0  0  0  0  0  0
    5.9747    0.5996   -1.4965 C   0  0  0  0  0  0  0  0  0  0  0  0
    6.2474    1.8237   -0.9210 C   0  0  0  0  0  0  0  0  0  0  0  0
    7.4682    2.5840   -1.1788 C   0  0  0  0  0  0  0  0  0  0  0  0
    8.6771    1.9276   -1.4048 C   0  0  0  0  0  0  0  0  0  0  0  0
    9.8246    2.6554   -1.6526 C   0  0  0  0  0  0  0  0  0  0  0  0
    9.7834    4.0388   -1.6837 C   0  0  0  0  0  0  0  0  0  0  0  0
    8.5930    4.7107   -1.4419 C   0  0  0  0  0  0  0  0  0  0  0  0
    8.5422    6.2108   -1.4099 C   0  0  0  0  0  0  0  0  0  0  0  0
    8.6669    6.7157    0.0290 C   0  0  0  0  0  0  0  0  0  0  0  0
    7.4481    3.9745   -1.1780 C   0  0  0  0  0  0  0  0  0  0  0  0
    5.2107    2.2105   -0.0426 C   0  0  0  0  0  0  0  0  0  0  0  0
    4.9082    3.6601    0.8804 S   0  0  0  0  0  0  0  0  0  0  0  0
    3.3725    3.0212    1.3567 C   0  0  0  0  0  0  0  0  0  0  0  0
    2.2275    3.4172    2.0755 C   0  0  0  0  0  0  0  0  0  0  0  0
    1.9327    4.5174    2.9122 C   0  0  0  0  0  0  0  0  0  0  0  0
    0.6697    4.5555    3.6076 C   0  0  0  0  0  0  0  0  0  0  0  0
    0.5704    5.6028    4.4105 N   0  0  0  0  0  0  0  0  0  0  0  0
    1.9310    6.4722    4.2986 S   0  0  0  0  0  0  0  0  0  0  0  0
    2.7067    5.5457    3.2208 N   0  0  0  0  0  0  0  0  0  0  0  0
   -0.3105    3.5810    3.3116 C   0  0  0  0  0  0  0  0  0  0  0  0
   -1.6718    3.4455    3.6487 C   0  0  0  0  0  0  0  0  0  0  0  0
   -2.8491    4.1768    4.6886 S   0  0  0  0  0  0  0  0  0  0  0  0
   -4.0444    3.0558    4.0869 C   0  0  0  0  0  0  0  0  0  0  0  0
   -5.3932    2.8286    4.4287 C   0  0  0  0  0  0  0  0  0  0  0  0
   -6.1106    3.6266    5.4271 C   0  0  0  0  0  0  0  0  0  0  0  0
   -5.5957    3.7656    6.7121 C   0  0  0  0  0  0  0  0  0  0  0  0
   -6.2755    4.5231    7.6462 C   0  0  0  0  0  0  0  0  0  0  0  0
   -7.4653    5.1463    7.3089 C   0  0  0  0  0  0  0  0  0  0  0  0
   -7.9824    5.0336    6.0257 C   0  0  0  0  0  0  0  0  0  0  0  0
   -9.2475    5.7375    5.6288 C   0  0  0  0  0  0  0  0  0  0  0  0
   -8.9340    7.0603    4.9280 C   0  0  0  0  0  0  0  0  0  0  0  0
   -7.2884    4.2811    5.0893 C   0  0  0  0  0  0  0  0  0  0  0  0
   -5.9047    1.7433    3.7485 C   0  0  0  0  0  0  0  0  0  0  0  0
   -4.7607    1.0887    2.5772 S   0  0  0  0  0  0  0  0  0  0  0  0
   -3.5448    2.1818    3.1236 C   0  0  0  0  0  0  0  0  0  0  0  0
   -2.1841    2.3959    2.8799 C   0  0  0  0  0  0  0  0  0  0  0  0
   -1.1917    1.8446    2.1089 N   0  0  0  0  0  0  0  0  0  0  0  0
   -0.0327    2.5474    2.3823 C   0  0  0  0  0  0  0  0  0  0  0  0
    1.2857    2.3713    1.9130 C   0  0  0  0  0  0  0  0  0  0  0  0
    1.8584    1.3366    1.1957 N   0  0  0  0  0  0  0  0  0  0  0  0
    3.1233    1.7440    0.8485 C   0  0  0  0  0  0  0  0  0  0  0  0
    4.1826    1.2751    0.0621 C   0  0  0  0  0  0  0  0  0  0  0  0
    4.5011   -0.1342   -0.8818 S   0  0  0  0  0  0  0  0  0  0  0  0
    1.5374   -0.0695    1.3285 C   0  0  0  0  0  0  0  0  0  0  0  0
    2.5232   -0.7774    2.2577 C   0  0  0  0  0  0  0  0  0  0  0  0
   -1.5186    1.1699    0.8703 C   0  0  0  0  0  0  0  0  0  0  0  0
   -2.2891    2.0930   -0.0737 C   0  0  0  0  0  0  0  0  0  0  0  0
   -7.1128    1.0094    3.9822 C   0  0  0  0  0  0  0  0  0  0  0  0
   -7.2089   -0.3668    4.1518 C   0  0  0  0  0  0  0  0  0  0  0  0
   -6.1537   -1.2610    4.2172 N   0  0  0  0  0  0  0  0  0  0  0  0
   -4.9121   -0.9027    4.7583 C   0  0  0  0  0  0  0  0  0  0  0  0
   -4.8188   -0.0129    5.8266 C   0  0  0  0  0  0  0  0  0  0  0  0
   -3.5814    0.4116    6.2681 C   0  0  0  0  0  0  0  0  0  0  0  0
   -2.4079   -0.0334    5.6713 C   0  0  0  0  0  0  0  0  0  0  0  0
   -1.0790    0.5013    6.1084 C   0  0  0  0  0  0  0  0  0  0  0  0
   -2.5083   -0.9649    4.6454 C   0  0  0  0  0  0  0  0  0  0  0  0
   -3.7377   -1.3996    4.1936 C   0  0  0  0  0  0  0  0  0  0  0  0
   -6.3500   -2.5611    3.7194 C   0  0  0  0  0  0  0  0  0  0  0  0
   -7.0473   -2.7637    2.5320 C   0  0  0  0  0  0  0  0  0  0  0  0
   -7.2630   -4.0453    2.0639 C   0  0  0  0  0  0  0  0  0  0  0  0
   -6.7837   -5.1505    2.7546 C   0  0  0  0  0  0  0  0  0  0  0  0
   -7.0429   -6.5410    2.2628 C   0  0  0  0  0  0  0  0  0  0  0  0
   -6.0731   -4.9369    3.9311 C   0  0  0  0  0  0  0  0  0  0  0  0
   -5.8583   -3.6627    4.4144 C   0  0  0  0  0  0  0  0  0  0  0  0
   -8.5604   -0.7610    4.3096 C   0  0  0  0  0  0  0  0  0  0  0  0
   -9.3374   -2.2806    4.5814 S   0  0  0  0  0  0  0  0  0  0  0  0
  -10.9079   -1.4858    4.6194 C   0  0  0  0  0  0  0  0  0  0  0  0
  -10.8113   -0.0971    4.5146 C   0  0  0  0  0  0  0  0  0  0  0  0
  -11.8479    0.7899    4.6954 N   0  0  0  0  0  0  0  0  0  0  0  0
  -12.9030    0.4954    5.5818 C   0  0  0  0  0  0  0  0  0  0  0  0
  -12.6650   -0.1576    6.7864 C   0  0  0  0  0  0  0  0  0  0  0  0
  -13.7216   -0.5206    7.5994 C   0  0  0  0  0  0  0  0  0  0  0  0
  -15.0333   -0.2309    7.2462 C   0  0  0  0  0  0  0  0  0  0  0  0
  -16.1874   -0.6551    8.0986 C   0  0  0  0  0  0  0  0  0  0  0  0
  -15.2573    0.4686    6.0650 C   0  0  0  0  0  0  0  0  0  0  0  0
  -14.2117    0.8282    5.2400 C   0  0  0  0  0  0  0  0  0  0  0  0
  -11.8161    2.0375    4.0524 C   0  0  0  0  0  0  0  0  0  0  0  0
  -11.3719    2.1415    2.7360 C   0  0  0  0  0  0  0  0  0  0  0  0
  -11.3347    3.3723    2.1120 C   0  0  0  0  0  0  0  0  0  0  0  0
  -11.7508    4.5239    2.7696 C   0  0  0  0  0  0  0  0  0  0  0  0
  -11.6805    5.8574    2.0920 C   0  0  0  0  0  0  0  0  0  0  0  0
  -12.2119    4.4068    4.0759 C   0  0  0  0  0  0  0  0  0  0  0  0
  -12.2419    3.1842    4.7167 C   0  0  0  0  0  0  0  0  0  0  0  0
   -9.4660    0.2879    4.2991 C   0  0  0  0  0  0  0  0  0  0  0  0
   -8.6714    1.8092    4.1038 S   0  0  0  0  0  0  0  0  0  0  0  0
  -12.0881   -2.2575    4.7658 C   0  0  0  0  0  0  0  0  0  0  0  0
  -13.3483   -1.9804    4.2550 C   0  0  0  0  0  0  0  0  0  0  0  0
  -14.3262   -2.8629    4.6818 C   0  0  0  0  0  0  0  0  0  0  0  0
  -13.8370   -3.8641    5.5060 C   0  0  0  0  0  0  0  0  0  0  0  0
  -14.5336   -4.9246    6.1414 C   0  0  0  0  0  0  0  0  0  0  0  0
  -15.8998   -4.9879    6.3414 C   0  0  0  0  0  0  0  0  0  0  0  0
  -16.7908   -3.9461    6.0369 C   0  0  0  0  0  0  0  0  0  0  0  0
  -17.5395   -3.0958    5.8448 N   0  0  0  0  0  0  0  0  0  0  0  0
  -16.4932   -6.1145    6.9458 C   0  0  0  0  0  0  0  0  0  0  0  0
  -16.9975   -7.0244    7.4291 N   0  0  0  0  0  0  0  0  0  0  0  0
  -13.7545   -6.0019    6.6358 C   0  0  0  0  0  0  0  0  0  0  0  0
  -13.1148   -6.8692    7.0240 N   0  0  0  0  0  0  0  0  0  0  0  0
  -12.1098   -3.6988    5.7278 S   0  0  0  0  0  0  0  0  0  0  0  0
    9.4872   -1.2146   -8.3326 H   0  0  0  0  0  0  0  0  0  0  0  0
    7.3593   -7.0494   -7.8455 H   0  0  0  0  0  0  0  0  0  0  0  0
    7.3590   -9.3439   -8.7669 H   0  0  0  0  0  0  0  0  0  0  0  0
    8.2929  -11.0319  -10.3288 H   0  0  0  0  0  0  0  0  0  0  0  0
   11.1076   -8.1753  -11.7855 H   0  0  0  0  0  0  0  0  0  0  0  0
   11.1333   -5.8988  -10.8941 H   0  0  0  0  0  0  0  0  0  0  0  0
    9.3170   -6.0010   -5.4420 H   0  0  0  0  0  0  0  0  0  0  0  0
   11.2611   -6.9804   -6.5770 H   0  0  0  0  0  0  0  0  0  0  0  0
   13.5179   -5.3234   -8.5100 H   0  0  0  0  0  0  0  0  0  0  0  0
   13.4279   -6.7885   -7.5291 H   0  0  0  0  0  0  0  0  0  0  0  0
   14.4213   -5.4194   -7.0055 H   0  0  0  0  0  0  0  0  0  0  0  0
   13.1115   -3.1386   -6.7198 H   0  0  0  0  0  0  0  0  0  0  0  0
   11.1745   -2.1542   -5.5993 H   0  0  0  0  0  0  0  0  0  0  0  0
    6.3776   -4.0002   -4.6373 H   0  0  0  0  0  0  0  0  0  0  0  0
    5.3123   -5.2518   -2.7949 H   0  0  0  0  0  0  0  0  0  0  0  0
    7.2054   -7.0411   -0.1478 H   0  0  0  0  0  0  0  0  0  0  0  0
    6.1222   -5.6727    0.1045 H   0  0  0  0  0  0  0  0  0  0  0  0
    5.6539   -6.9633   -0.9983 H   0  0  0  0  0  0  0  0  0  0  0  0
    9.1366   -5.8552   -1.0026 H   0  0  0  0  0  0  0  0  0  0  0  0
   10.1938   -4.5858   -2.8244 H   0  0  0  0  0  0  0  0  0  0  0  0
    5.8349    4.4508   -3.3592 H   0  0  0  0  0  0  0  0  0  0  0  0
    3.7615    5.2210   -2.2838 H   0  0  0  0  0  0  0  0  0  0  0  0
    1.7771    4.3485   -0.8273 H   0  0  0  0  0  0  0  0  0  0  0  0
    0.9595    4.4639   -2.3827 H   0  0  0  0  0  0  0  0  0  0  0  0
    0.8936    2.9553   -1.4661 H   0  0  0  0  0  0  0  0  0  0  0  0
    2.0625    1.3436   -2.7854 H   0  0  0  0  0  0  0  0  0  0  0  0
    4.1258    0.5725   -3.8542 H   0  0  0  0  0  0  0  0  0  0  0  0
    5.4502    3.6718   -5.9744 H   0  0  0  0  0  0  0  0  0  0  0  0
    6.8083    5.0901   -7.4436 H   0  0  0  0  0  0  0  0  0  0  0  0
    8.9129    5.9698   -8.1238 H   0  0  0  0  0  0  0  0  0  0  0  0
   10.2836    5.7911   -7.0185 H   0  0  0  0  0  0  0  0  0  0  0  0
   10.0350    4.6183   -8.3065 H   0  0  0  0  0  0  0  0  0  0  0  0
   10.3616    3.5313   -5.6743 H   0  0  0  0  0  0  0  0  0  0  0  0
    9.0081    2.1344   -4.1808 H   0  0  0  0  0  0  0  0  0  0  0  0
    8.7180    0.8490   -1.3674 H   0  0  0  0  0  0  0  0  0  0  0  0
   10.7592    2.1406   -1.8230 H   0  0  0  0  0  0  0  0  0  0  0  0
   10.6831    4.6002   -1.8897 H   0  0  0  0  0  0  0  0  0  0  0  0
    7.5957    6.5574   -1.8301 H   0  0  0  0  0  0  0  0  0  0  0  0
    9.3545    6.6224   -2.0119 H   0  0  0  0  0  0  0  0  0  0  0  0
    9.6091    6.3889    0.4635 H   0  0  0  0  0  0  0  0  0  0  0  0
    8.6304    7.8022    0.0555 H   0  0  0  0  0  0  0  0  0  0  0  0
    7.8550    6.3248    0.6380 H   0  0  0  0  0  0  0  0  0  0  0  0
    6.5212    4.4919   -0.9838 H   0  0  0  0  0  0  0  0  0  0  0  0
   -4.6718    3.2728    6.9727 H   0  0  0  0  0  0  0  0  0  0  0  0
   -5.8776    4.6266    8.6450 H   0  0  0  0  0  0  0  0  0  0  0  0
   -7.9945    5.7302    8.0483 H   0  0  0  0  0  0  0  0  0  0  0  0
   -9.8219    5.0981    4.9549 H   0  0  0  0  0  0  0  0  0  0  0  0
   -9.8545    5.9340    6.5146 H   0  0  0  0  0  0  0  0  0  0  0  0
   -8.3749    7.7173    5.5905 H   0  0  0  0  0  0  0  0  0  0  0  0
   -9.8532    7.5625    4.6354 H   0  0  0  0  0  0  0  0  0  0  0  0
   -8.3338    6.8842    4.0381 H   0  0  0  0  0  0  0  0  0  0  0  0
   -7.6587    4.2202    4.0756 H   0  0  0  0  0  0  0  0  0  0  0  0
    0.5372   -0.1633    1.7503 H   0  0  0  0  0  0  0  0  0  0  0  0
    1.5667   -0.5359    0.3379 H   0  0  0  0  0  0  0  0  0  0  0  0
    3.5272   -0.7618    1.8434 H   0  0  0  0  0  0  0  0  0  0  0  0
    2.5381   -0.2896    3.2302 H   0  0  0  0  0  0  0  0  0  0  0  0
    2.2205   -1.8127    2.3891 H   0  0  0  0  0  0  0  0  0  0  0  0
   -0.5997    0.8603    0.3768 H   0  0  0  0  0  0  0  0  0  0  0  0
   -2.1243    0.2887    1.1057 H   0  0  0  0  0  0  0  0  0  0  0  0
   -1.7115    2.9940   -0.2708 H   0  0  0  0  0  0  0  0  0  0  0  0
   -3.2445    2.3782    0.3574 H   0  0  0  0  0  0  0  0  0  0  0  0
   -2.4737    1.5817   -1.0144 H   0  0  0  0  0  0  0  0  0  0  0  0
   -5.7177    0.3530    6.3010 H   0  0  0  0  0  0  0  0  0  0  0  0
   -3.5242    1.1081    7.0919 H   0  0  0  0  0  0  0  0  0  0  0  0
   -0.2709   -0.1532    5.7902 H   0  0  0  0  0  0  0  0  0  0  0  0
   -0.9113    1.4867    5.6703 H   0  0  0  0  0  0  0  0  0  0  0  0
   -1.0411    0.6086    7.1903 H   0  0  0  0  0  0  0  0  0  0  0  0
   -1.6098   -1.3434    4.1785 H   0  0  0  0  0  0  0  0  0  0  0  0
   -3.8003   -2.1025    3.3759 H   0  0  0  0  0  0  0  0  0  0  0  0
   -7.4141   -1.9118    1.9774 H   0  0  0  0  0  0  0  0  0  0  0  0
   -7.8094   -4.1871    1.1426 H   0  0  0  0  0  0  0  0  0  0  0  0
   -7.2577   -6.5441    1.1969 H   0  0  0  0  0  0  0  0  0  0  0  0
   -6.1878   -7.1857    2.4537 H   0  0  0  0  0  0  0  0  0  0  0  0
   -7.9029   -6.9636    2.7834 H   0  0  0  0  0  0  0  0  0  0  0  0
   -5.6923   -5.7841    4.4828 H   0  0  0  0  0  0  0  0  0  0  0  0
   -5.3140   -3.5101    5.3347 H   0  0  0  0  0  0  0  0  0  0  0  0
  -11.6517   -0.3928    7.0781 H   0  0  0  0  0  0  0  0  0  0  0  0
  -13.5192   -1.0412    8.5244 H   0  0  0  0  0  0  0  0  0  0  0  0
  -15.8490   -1.2175    8.9652 H   0  0  0  0  0  0  0  0  0  0  0  0
  -16.7449    0.2144    8.4441 H   0  0  0  0  0  0  0  0  0  0  0  0
  -16.8700   -1.2774    7.5206 H   0  0  0  0  0  0  0  0  0  0  0  0
  -16.2694    0.7138    5.7798 H   0  0  0  0  0  0  0  0  0  0  0  0
  -14.4022    1.3540    4.3154 H   0  0  0  0  0  0  0  0  0  0  0  0
  -11.0651    1.2528    2.2040 H   0  0  0  0  0  0  0  0  0  0  0  0
  -10.9844    3.4388    1.0922 H   0  0  0  0  0  0  0  0  0  0  0  0
  -12.3424    6.5736    2.5724 H   0  0  0  0  0  0  0  0  0  0  0  0
  -10.6633    6.2471    2.1429 H   0  0  0  0  0  0  0  0  0  0  0  0
  -11.9532    5.7731    1.0422 H   0  0  0  0  0  0  0  0  0  0  0  0
  -12.5462    5.2878    4.6044 H   0  0  0  0  0  0  0  0  0  0  0  0
  -12.5906    3.1105    5.7359 H   0  0  0  0  0  0  0  0  0  0  0  0
  -13.5315   -1.1741    3.5698 H   0  0  0  0  0  0  0  0  0  0  0  0
  -15.3558   -2.7976    4.3815 H   0  0  0  0  0  0  0  0  0  0  0  0
  1  2  2  0  0  0  0
  2  3  1  0  0  0  0
  3  4  2  0  0  0  0
  3  5  1  0  0  0  0
  5  6  2  0  0  0  0
  6  7  1  0  0  0  0
  7  8  2  0  0  0  0
  8  9  1  0  0  0  0
  9 10  2  0  0  0  0
 10 11  1  0  0  0  0
 10 12  1  0  0  0  0
 12 13  2  0  0  0  0
 13 14  1  0  0  0  0
 14 15  2  0  0  0  0
 15 16  1  0  0  0  0
 16 17  2  0  0  0  0
 17 18  1  0  0  0  0
 18 19  3  0  0  0  0
 17 20  1  0  0  0  0
 20 21  3  0  0  0  0
  1 22  1  0  0  0  0
 22 23  2  0  0  0  0
 23 24  1  0  0  0  0
 24 25  1  0  0  0  0
 25 26  2  0  0  0  0
 26 27  1  0  0  0  0
 27 28  2  0  0  0  0
 28 29  1  0  0  0  0
 28 30  1  0  0  0  0
 30 31  2  0  0  0  0
 24 32  1  0  0  0  0
 32 33  2  0  0  0  0
 33 34  1  0  0  0  0
 34 35  2  0  0  0  0
 35 36  1  0  0  0  0
 35 37  1  0  0  0  0
 37 38  2  0  0  0  0
 23 39  1  0  0  0  0
 39 40  1  0  0  0  0
 40 41  1  0  0  0  0
 41 42  2  0  0  0  0
 42 43  1  0  0  0  0
 43 44  1  0  0  0  0
 44 45  2  0  0  0  0
 45 46  1  0  0  0  0
 46 47  2  0  0  0  0
 47 48  1  0  0  0  0
 47 49  1  0  0  0  0
 49 50  2  0  0  0  0
 43 51  1  0  0  0  0
 51 52  2  0  0  0  0
 52 53  1  0  0  0  0
 53 54  2  0  0  0  0
 54 55  1  0  0  0  0
 54 56  1  0  0  0  0
 56 57  2  0  0  0  0
 42 58  1  0  0  0  0
 58 59  1  0  0  0  0
 41 60  1  0  0  0  0
 60 61  2  0  0  0  0
 61 62  1  0  0  0  0
 62 63  2  0  0  0  0
 63 64  1  0  0  0  0
 64 65  2  0  0  0  0
 65 66  1  0  0  0  0
 66 67  1  0  0  0  0
 67 68  1  0  0  0  0
 66 69  2  0  0  0  0
 61 70  1  0  0  0  0
 70 71  1  0  0  0  0
 71 72  1  0  0  0  0
 72 73  1  0  0  0  0
 73 74  1  0  0  0  0
 74 75  1  0  0  0  0
 75 76  2  0  0  0  0
 76 77  1  0  0  0  0
 77 78  1  0  0  0  0
 75 79  1  0  0  0  0
 79 80  1  0  0  0  0
 80 81  1  0  0  0  0
 81 82  1  0  0  0  0
 82 83  1  0  0  0  0
 83 84  1  0  0  0  0
 84 85  2  0  0  0  0
 85 86  1  0  0  0  0
 86 87  2  0  0  0  0
 87 88  1  0  0  0  0
 88 89  1  0  0  0  0
 89 90  1  0  0  0  0
 88 91  2  0  0  0  0
 83 92  2  0  0  0  0
 92 93  1  0  0  0  0
 93 94  1  0  0  0  0
 94 95  1  0  0  0  0
 95 96  1  0  0  0  0
 96 97  1  0  0  0  0
 97 98  1  0  0  0  0
 98 99  1  0  0  0  0
 99100  1  0  0  0  0
100101  1  0  0  0  0
101102  1  0  0  0  0
 99103  1  0  0  0  0
103104  1  0  0  0  0
 96105  1  0  0  0  0
105106  1  0  0  0  0
 92107  1  0  0  0  0
107108  2  0  0  0  0
108109  1  0  0  0  0
109110  1  0  0  0  0
110111  2  0  0  0  0
111112  1  0  0  0  0
112113  2  0  0  0  0
113114  1  0  0  0  0
113115  1  0  0  0  0
115116  2  0  0  0  0
109117  1  0  0  0  0
117118  2  0  0  0  0
118119  1  0  0  0  0
119120  2  0  0  0  0
120121  1  0  0  0  0
120122  1  0  0  0  0
122123  2  0  0  0  0
108124  1  0  0  0  0
124125  1  0  0  0  0
125126  1  0  0  0  0
126127  2  0  0  0  0
127128  1  0  0  0  0
128129  1  0  0  0  0
129130  2  0  0  0  0
130131  1  0  0  0  0
131132  2  0  0  0  0
132133  1  0  0  0  0
132134  1  0  0  0  0
134135  2  0  0  0  0
128136  1  0  0  0  0
136137  2  0  0  0  0
137138  1  0  0  0  0
138139  2  0  0  0  0
139140  1  0  0  0  0
139141  1  0  0  0  0
141142  2  0  0  0  0
127143  1  0  0  0  0
143144  1  0  0  0  0
126145  1  0  0  0  0
145146  2  0  0  0  0
146147  1  0  0  0  0
147148  2  0  0  0  0
148149  1  0  0  0  0
149150  2  0  0  0  0
150151  1  0  0  0  0
151152  3  0  0  0  0
150153  1  0  0  0  0
153154  3  0  0  0  0
149155  1  0  0  0  0
155156  3  0  0  0  0
148157  1  0  0  0  0
 16  2  1  0  0  0  0
 59 22  1  0  0  0  0
102 60  1  0  0  0  0
144107  1  0  0  0  0
157145  1  0  0  0  0
 15  5  1  0  0  0  0
 31 25  1  0  0  0  0
 38 32  1  0  0  0  0
 58 39  2  0  0  0  0
 69 62  1  0  0  0  0
101 70  2  0  0  0  0
116110  1  0  0  0  0
123117  1  0  0  0  0
143124  2  0  0  0  0
 13  7  1  0  0  0  0
 50 44  1  0  0  0  0
 57 51  1  0  0  0  0
100 72  2  0  0  0  0
135129  1  0  0  0  0
142136  1  0  0  0  0
 98 73  2  0  0  0  0
 78 74  2  0  0  0  0
 97 79  2  0  0  0  0
 95 80  2  0  0  0  0
 94 82  2  0  0  0  0
 91 84  1  0  0  0  0
  1158  1  0  0  0  0
  6159  1  0  0  0  0
  8160  1  0  0  0  0
  9161  1  0  0  0  0
 12162  1  0  0  0  0
 14163  1  0  0  0  0
 26164  1  0  0  0  0
 27165  1  0  0  0  0
 29166  1  0  0  0  0
 29167  1  0  0  0  0
 29168  1  0  0  0  0
 30169  1  0  0  0  0
 31170  1  0  0  0  0
 33171  1  0  0  0  0
 34172  1  0  0  0  0
 36173  1  0  0  0  0
 36174  1  0  0  0  0
 36175  1  0  0  0  0
 37176  1  0  0  0  0
 38177  1  0  0  0  0
 45178  1  0  0  0  0
 46179  1  0  0  0  0
 48180  1  0  0  0  0
 48181  1  0  0  0  0
 48182  1  0  0  0  0
 49183  1  0  0  0  0
 50184  1  0  0  0  0
 52185  1  0  0  0  0
 53186  1  0  0  0  0
 55187  1  0  0  0  0
 55188  1  0  0  0  0
 55189  1  0  0  0  0
 56190  1  0  0  0  0
 57191  1  0  0  0  0
 63192  1  0  0  0  0
 64193  1  0  0  0  0
 65194  1  0  0  0  0
 67195  1  0  0  0  0
 67196  1  0  0  0  0
 68197  1  0  0  0  0
 68198  1  0  0  0  0
 68199  1  0  0  0  0
 69200  1  0  0  0  0
 85201  1  0  0  0  0
 86202  1  0  0  0  0
 87203  1  0  0  0  0
 89204  1  0  0  0  0
 89205  1  0  0  0  0
 90206  1  0  0  0  0
 90207  1  0  0  0  0
 90208  1  0  0  0  0
 91209  1  0  0  0  0
103210  1  0  0  0  0
103211  1  0  0  0  0
104212  1  0  0  0  0
104213  1  0  0  0  0
104214  1  0  0  0  0
105215  1  0  0  0  0
105216  1  0  0  0  0
106217  1  0  0  0  0
106218  1  0  0  0  0
106219  1  0  0  0  0
111220  1  0  0  0  0
112221  1  0  0  0  0
114222  1  0  0  0  0
114223  1  0  0  0  0
114224  1  0  0  0  0
115225  1  0  0  0  0
116226  1  0  0  0  0
118227  1  0  0  0  0
119228  1  0  0  0  0
121229  1  0  0  0  0
121230  1  0  0  0  0
121231  1  0  0  0  0
122232  1  0  0  0  0
123233  1  0  0  0  0
130234  1  0  0  0  0
131235  1  0  0  0  0
133236  1  0  0  0  0
133237  1  0  0  0  0
133238  1  0  0  0  0
134239  1  0  0  0  0
135240  1  0  0  0  0
137241  1  0  0  0  0
138242  1  0  0  0  0
140243  1  0  0  0  0
140244  1  0  0  0  0
140245  1  0  0  0  0
141246  1  0  0  0  0
142247  1  0  0  0  0
146248  1  0  0  0  0
147249  1  0  0  0  0
M  END
