
  xtb     02072221553D
 energy: -420.240879752893 gnorm: 0.000489597098 xtb: 6.4.1 (unknown)
255281  0     0  0            999 V2000
    2.8782    3.9453    6.1124 C   0  0  0  0  0  0  0  0  0  0  0  0
    1.6697    3.7487    6.7456 C   0  0  0  0  0  0  0  0  0  0  0  0
    1.6035    3.7601    8.2236 C   0  0  0  0  0  0  0  0  0  0  0  0
    2.4938    4.0472    8.9954 O   0  0  0  0  0  0  0  0  0  0  0  0
    0.2427    3.2871    8.5585 C   0  0  0  0  0  0  0  0  0  0  0  0
   -0.3164    3.0565    9.7804 C   0  0  0  0  0  0  0  0  0  0  0  0
   -1.6691    2.6502    9.8573 C   0  0  0  0  0  0  0  0  0  0  0  0
   -2.2930    2.3889   11.0930 C   0  0  0  0  0  0  0  0  0  0  0  0
   -3.6134    2.0378   11.1578 C   0  0  0  0  0  0  0  0  0  0  0  0
   -4.3476    1.9417    9.9694 C   0  0  0  0  0  0  0  0  0  0  0  0
   -5.6496    1.6100   10.0496 F   0  0  0  0  0  0  0  0  0  0  0  0
   -3.7878    2.1698    8.7429 C   0  0  0  0  0  0  0  0  0  0  0  0
   -2.4282    2.5263    8.6586 C   0  0  0  0  0  0  0  0  0  0  0  0
   -1.8173    2.7621    7.4045 C   0  0  0  0  0  0  0  0  0  0  0  0
   -0.4961    3.1104    7.3553 C   0  0  0  0  0  0  0  0  0  0  0  0
    0.3768    3.4254    6.2279 C   0  0  0  0  0  0  0  0  0  0  0  0
   -0.0387    3.5722    4.9165 C   0  0  0  0  0  0  0  0  0  0  0  0
    0.6925    4.2965    3.9668 C   0  0  0  0  0  0  0  0  0  0  0  0
    1.2394    4.9331    3.1796 N   0  0  0  0  0  0  0  0  0  0  0  0
   -1.2401    3.0375    4.4279 C   0  0  0  0  0  0  0  0  0  0  0  0
   -2.1698    2.5273    3.9821 N   0  0  0  0  0  0  0  0  0  0  0  0
    3.3162    3.5330    4.8496 C   0  0  0  0  0  0  0  0  0  0  0  0
    2.8844    2.5010    3.9863 C   0  0  0  0  0  0  0  0  0  0  0  0
    1.9838    1.5167    4.3093 N   0  0  0  0  0  0  0  0  0  0  0  0
    1.2549    0.8341    3.3069 C   0  0  0  0  0  0  0  0  0  0  0  0
    1.0680   -0.5430    3.3993 C   0  0  0  0  0  0  0  0  0  0  0  0
    0.2912   -1.2042    2.4694 C   0  0  0  0  0  0  0  0  0  0  0  0
   -0.3092   -0.5248    1.4150 C   0  0  0  0  0  0  0  0  0  0  0  0
   -1.1798   -1.2423    0.4342 C   0  0  0  0  0  0  0  0  0  0  0  0
   -0.0949    0.8445    1.3165 C   0  0  0  0  0  0  0  0  0  0  0  0
    0.6708    1.5206    2.2459 C   0  0  0  0  0  0  0  0  0  0  0  0
    1.8880    1.0402    5.6299 C   0  0  0  0  0  0  0  0  0  0  0  0
    3.0099    0.9712    6.4538 C   0  0  0  0  0  0  0  0  0  0  0  0
    2.8861    0.5679    7.7660 C   0  0  0  0  0  0  0  0  0  0  0  0
    1.6504    0.2014    8.2932 C   0  0  0  0  0  0  0  0  0  0  0  0
    1.5218   -0.1854    9.7315 C   0  0  0  0  0  0  0  0  0  0  0  0
    0.5517    0.2069    7.4471 C   0  0  0  0  0  0  0  0  0  0  0  0
    0.6581    0.6245    6.1343 C   0  0  0  0  0  0  0  0  0  0  0  0
    3.5760    2.5651    2.7595 C   0  0  0  0  0  0  0  0  0  0  0  0
    3.5158    1.6236    1.3119 S   0  0  0  0  0  0  0  0  0  0  0  0
    4.7028    2.6798    0.5621 C   0  0  0  0  0  0  0  0  0  0  0  0
    5.1897    3.6505    1.4234 C   0  0  0  0  0  0  0  0  0  0  0  0
    6.1985    4.5350    1.1086 N   0  0  0  0  0  0  0  0  0  0  0  0
    7.1411    4.1926    0.1241 C   0  0  0  0  0  0  0  0  0  0  0  0
    7.5513    5.1347   -0.8155 C   0  0  0  0  0  0  0  0  0  0  0  0
    8.4193    4.7733   -1.8252 C   0  0  0  0  0  0  0  0  0  0  0  0
    8.9045    3.4739   -1.9295 C   0  0  0  0  0  0  0  0  0  0  0  0
    9.8102    3.0920   -3.0604 C   0  0  0  0  0  0  0  0  0  0  0  0
    8.5274    2.5534   -0.9617 C   0  0  0  0  0  0  0  0  0  0  0  0
    7.6636    2.9041    0.0578 C   0  0  0  0  0  0  0  0  0  0  0  0
    6.2405    5.8090    1.6991 C   0  0  0  0  0  0  0  0  0  0  0  0
    5.0719    6.5128    1.9721 C   0  0  0  0  0  0  0  0  0  0  0  0
    5.1356    7.7592    2.5637 C   0  0  0  0  0  0  0  0  0  0  0  0
    6.3540    8.3386    2.8911 C   0  0  0  0  0  0  0  0  0  0  0  0
    6.4193    9.6999    3.5130 C   0  0  0  0  0  0  0  0  0  0  0  0
    7.5171    7.6314    2.6065 C   0  0  0  0  0  0  0  0  0  0  0  0
    7.4679    6.3820    2.0229 C   0  0  0  0  0  0  0  0  0  0  0  0
    4.5307    3.5733    2.6755 C   0  0  0  0  0  0  0  0  0  0  0  0
    4.6626    4.4455    4.1548 S   0  0  0  0  0  0  0  0  0  0  0  0
    4.9578    2.4981   -0.8369 C   0  0  0  0  0  0  0  0  0  0  0  0
    4.7943    3.4146   -1.8530 C   0  0  0  0  0  0  0  0  0  0  0  0
    4.3552    4.7994   -1.6778 C   0  0  0  0  0  0  0  0  0  0  0  0
    4.9354    5.8092   -2.4395 C   0  0  0  0  0  0  0  0  0  0  0  0
    4.5143    7.1162   -2.2842 C   0  0  0  0  0  0  0  0  0  0  0  0
    3.5017    7.4228   -1.3927 C   0  0  0  0  0  0  0  0  0  0  0  0
    2.8848    6.4225   -0.6511 C   0  0  0  0  0  0  0  0  0  0  0  0
    1.7261    6.7378    0.2503 C   0  0  0  0  0  0  0  0  0  0  0  0
    0.4109    6.6334   -0.5248 C   0  0  0  0  0  0  0  0  0  0  0  0
    3.3232    5.1154   -0.8005 C   0  0  0  0  0  0  0  0  0  0  0  0
    4.9457    2.8047   -3.1177 C   0  0  0  0  0  0  0  0  0  0  0  0
    4.5050    3.3367   -4.7263 S   0  0  0  0  0  0  0  0  0  0  0  0
    4.5370    1.6843   -5.2622 C   0  0  0  0  0  0  0  0  0  0  0  0
    3.9666    0.8979   -6.2876 C   0  0  0  0  0  0  0  0  0  0  0  0
    3.2000    1.2373   -7.4248 C   0  0  0  0  0  0  0  0  0  0  0  0
    2.3089    0.2498   -7.9800 C   0  0  0  0  0  0  0  0  0  0  0  0
    1.6021    0.7243   -8.9914 N   0  0  0  0  0  0  0  0  0  0  0  0
    2.0240    2.2701   -9.2391 S   0  0  0  0  0  0  0  0  0  0  0  0
    3.1130    2.4000   -8.0471 N   0  0  0  0  0  0  0  0  0  0  0  0
    2.1846   -0.9983   -7.3267 C   0  0  0  0  0  0  0  0  0  0  0  0
    1.0993   -1.8910   -7.2461 C   0  0  0  0  0  0  0  0  0  0  0  0
   -0.5686   -1.9540   -7.7251 S   0  0  0  0  0  0  0  0  0  0  0  0
   -0.8942   -3.1056   -6.4429 C   0  0  0  0  0  0  0  0  0  0  0  0
   -2.0794   -3.5583   -5.8075 C   0  0  0  0  0  0  0  0  0  0  0  0
   -3.4497   -3.3102   -6.2444 C   0  0  0  0  0  0  0  0  0  0  0  0
   -4.4731   -4.1906   -5.8917 C   0  0  0  0  0  0  0  0  0  0  0  0
   -5.7732   -3.9368   -6.2802 C   0  0  0  0  0  0  0  0  0  0  0  0
   -6.0740   -2.8106   -7.0271 C   0  0  0  0  0  0  0  0  0  0  0  0
   -5.0676   -1.9331   -7.4066 C   0  0  0  0  0  0  0  0  0  0  0  0
   -5.3620   -0.7334   -8.2602 C   0  0  0  0  0  0  0  0  0  0  0  0
   -5.0289   -1.0256   -9.7242 C   0  0  0  0  0  0  0  0  0  0  0  0
   -3.7633   -2.1966   -7.0170 C   0  0  0  0  0  0  0  0  0  0  0  0
   -1.7776   -4.2709   -4.6631 C   0  0  0  0  0  0  0  0  0  0  0  0
   -0.0502   -4.5195   -4.4418 S   0  0  0  0  0  0  0  0  0  0  0  0
    0.2726   -3.5003   -5.7917 C   0  0  0  0  0  0  0  0  0  0  0  0
    1.4016   -2.7994   -6.2318 C   0  0  0  0  0  0  0  0  0  0  0  0
    2.6459   -2.5478   -5.7241 N   0  0  0  0  0  0  0  0  0  0  0  0
    3.1128   -1.3920   -6.3215 C   0  0  0  0  0  0  0  0  0  0  0  0
    4.0687   -0.4519   -5.8591 C   0  0  0  0  0  0  0  0  0  0  0  0
    4.8160   -0.5003   -4.6854 N   0  0  0  0  0  0  0  0  0  0  0  0
    4.9951    0.8037   -4.2825 C   0  0  0  0  0  0  0  0  0  0  0  0
    5.2162    1.4393   -3.0550 C   0  0  0  0  0  0  0  0  0  0  0  0
    5.3535    0.8897   -1.4245 S   0  0  0  0  0  0  0  0  0  0  0  0
    5.7821   -1.5146   -4.3078 C   0  0  0  0  0  0  0  0  0  0  0  0
    7.2068   -0.9631   -4.3174 C   0  0  0  0  0  0  0  0  0  0  0  0
    3.1412   -3.3211   -4.6103 C   0  0  0  0  0  0  0  0  0  0  0  0
    2.8087   -2.6935   -3.2580 C   0  0  0  0  0  0  0  0  0  0  0  0
   -2.5779   -4.5448   -3.5043 C   0  0  0  0  0  0  0  0  0  0  0  0
   -3.2913   -3.6158   -2.7625 C   0  0  0  0  0  0  0  0  0  0  0  0
   -3.5934   -2.3158   -3.1348 N   0  0  0  0  0  0  0  0  0  0  0  0
   -4.8671   -1.8320   -2.7903 C   0  0  0  0  0  0  0  0  0  0  0  0
   -5.0350   -0.5422   -2.2939 C   0  0  0  0  0  0  0  0  0  0  0  0
   -6.2927   -0.0924   -1.9500 C   0  0  0  0  0  0  0  0  0  0  0  0
   -7.4108   -0.9091   -2.0790 C   0  0  0  0  0  0  0  0  0  0  0  0
   -8.7654   -0.4127   -1.6758 C   0  0  0  0  0  0  0  0  0  0  0  0
   -7.2326   -2.1966   -2.5672 C   0  0  0  0  0  0  0  0  0  0  0  0
   -5.9800   -2.6567   -2.9228 C   0  0  0  0  0  0  0  0  0  0  0  0
   -2.6372   -1.4606   -3.6893 C   0  0  0  0  0  0  0  0  0  0  0  0
   -3.0269   -0.4791   -4.5999 C   0  0  0  0  0  0  0  0  0  0  0  0
   -2.0921    0.3737   -5.1461 C   0  0  0  0  0  0  0  0  0  0  0  0
   -0.7468    0.2832   -4.8034 C   0  0  0  0  0  0  0  0  0  0  0  0
    0.2497    1.2281   -5.3997 C   0  0  0  0  0  0  0  0  0  0  0  0
   -0.3677   -0.6891   -3.8901 C   0  0  0  0  0  0  0  0  0  0  0  0
   -1.2944   -1.5522   -3.3347 C   0  0  0  0  0  0  0  0  0  0  0  0
   -3.6584   -4.1462   -1.5021 C   0  0  0  0  0  0  0  0  0  0  0  0
   -4.3189   -3.4254   -0.0889 S   0  0  0  0  0  0  0  0  0  0  0  0
   -4.0886   -4.9273    0.8092 C   0  0  0  0  0  0  0  0  0  0  0  0
   -3.5393   -5.9490   -0.0086 C   0  0  0  0  0  0  0  0  0  0  0  0
   -3.2386   -7.2260    0.3960 N   0  0  0  0  0  0  0  0  0  0  0  0
   -4.1624   -8.0048    1.1162 C   0  0  0  0  0  0  0  0  0  0  0  0
   -5.5246   -7.9185    0.8383 C   0  0  0  0  0  0  0  0  0  0  0  0
   -6.4167   -8.7211    1.5161 C   0  0  0  0  0  0  0  0  0  0  0  0
   -5.9823   -9.6221    2.4836 C   0  0  0  0  0  0  0  0  0  0  0  0
   -6.9693  -10.4551    3.2354 C   0  0  0  0  0  0  0  0  0  0  0  0
   -4.6218   -9.6989    2.7534 C   0  0  0  0  0  0  0  0  0  0  0  0
   -3.7159   -8.9019    2.0816 C   0  0  0  0  0  0  0  0  0  0  0  0
   -2.0694   -7.8306   -0.0985 C   0  0  0  0  0  0  0  0  0  0  0  0
   -2.0723   -9.1540   -0.5297 C   0  0  0  0  0  0  0  0  0  0  0  0
   -0.9133   -9.7237   -1.0158 C   0  0  0  0  0  0  0  0  0  0  0  0
    0.2700   -8.9971   -1.0930 C   0  0  0  0  0  0  0  0  0  0  0  0
    1.5099   -9.6184   -1.6577 C   0  0  0  0  0  0  0  0  0  0  0  0
    0.2649   -7.6793   -0.6544 C   0  0  0  0  0  0  0  0  0  0  0  0
   -0.8850   -7.1001   -0.1565 C   0  0  0  0  0  0  0  0  0  0  0  0
   -3.2386   -5.4533   -1.2877 C   0  0  0  0  0  0  0  0  0  0  0  0
   -2.3760   -6.0753   -2.6591 S   0  0  0  0  0  0  0  0  0  0  0  0
   -4.3120   -5.0526    2.1822 C   0  0  0  0  0  0  0  0  0  0  0  0
   -4.3479   -4.0777    3.1585 C   0  0  0  0  0  0  0  0  0  0  0  0
   -4.0029   -2.6579    3.0045 C   0  0  0  0  0  0  0  0  0  0  0  0
   -3.9761   -1.9916    1.9867 O   0  0  0  0  0  0  0  0  0  0  0  0
   -3.6745   -2.1736    4.3649 C   0  0  0  0  0  0  0  0  0  0  0  0
   -3.1889   -0.9441    4.7663 C   0  0  0  0  0  0  0  0  0  0  0  0
   -2.9488   -0.7405    6.1192 C   0  0  0  0  0  0  0  0  0  0  0  0
   -3.1989   -1.7577    7.0261 C   0  0  0  0  0  0  0  0  0  0  0  0
   -2.8061   -1.4455    9.0798 I   0  0  0  0  0  0  0  0  0  0  0  0
   -3.6954   -2.9947    6.6391 C   0  0  0  0  0  0  0  0  0  0  0  0
   -3.9325   -3.1981    5.2913 C   0  0  0  0  0  0  0  0  0  0  0  0
   -4.4506   -4.3600    4.5699 C   0  0  0  0  0  0  0  0  0  0  0  0
   -5.0226   -5.4646    5.1493 C   0  0  0  0  0  0  0  0  0  0  0  0
   -5.0439   -5.7096    6.5363 C   0  0  0  0  0  0  0  0  0  0  0  0
   -5.0700   -5.9732    7.6539 N   0  0  0  0  0  0  0  0  0  0  0  0
   -5.7580   -6.4397    4.4493 C   0  0  0  0  0  0  0  0  0  0  0  0
   -6.4441   -7.2282    3.9728 N   0  0  0  0  0  0  0  0  0  0  0  0
    3.6171    4.4731    6.7087 H   0  0  0  0  0  0  0  0  0  0  0  0
    0.2588    3.1951   10.6834 H   0  0  0  0  0  0  0  0  0  0  0  0
   -1.7087    2.4740   11.9967 H   0  0  0  0  0  0  0  0  0  0  0  0
   -4.1043    1.8352   12.0960 H   0  0  0  0  0  0  0  0  0  0  0  0
   -4.3835    2.0805    7.8471 H   0  0  0  0  0  0  0  0  0  0  0  0
   -2.4143    2.6645    6.5108 H   0  0  0  0  0  0  0  0  0  0  0  0
    1.5309   -1.0922    4.2063 H   0  0  0  0  0  0  0  0  0  0  0  0
    0.1490   -2.2714    2.5657 H   0  0  0  0  0  0  0  0  0  0  0  0
   -1.2220   -0.7102   -0.5132 H   0  0  0  0  0  0  0  0  0  0  0  0
   -0.8160   -2.2538    0.2610 H   0  0  0  0  0  0  0  0  0  0  0  0
   -2.1958   -1.3163    0.8253 H   0  0  0  0  0  0  0  0  0  0  0  0
   -0.5479    1.3976    0.5075 H   0  0  0  0  0  0  0  0  0  0  0  0
    0.8016    2.5873    2.1540 H   0  0  0  0  0  0  0  0  0  0  0  0
    3.9794    1.2429    6.0637 H   0  0  0  0  0  0  0  0  0  0  0  0
    3.7622    0.5400    8.3964 H   0  0  0  0  0  0  0  0  0  0  0  0
    1.9030    0.6134   10.3655 H   0  0  0  0  0  0  0  0  0  0  0  0
    0.4840   -0.3773    9.9921 H   0  0  0  0  0  0  0  0  0  0  0  0
    2.1058   -1.0813    9.9393 H   0  0  0  0  0  0  0  0  0  0  0  0
   -0.4099   -0.0959    7.8303 H   0  0  0  0  0  0  0  0  0  0  0  0
   -0.2122    0.6344    5.4940 H   0  0  0  0  0  0  0  0  0  0  0  0
    7.1681    6.1422   -0.7570 H   0  0  0  0  0  0  0  0  0  0  0  0
    8.7156    5.5097   -2.5585 H   0  0  0  0  0  0  0  0  0  0  0  0
   10.7247    3.6834   -3.0329 H   0  0  0  0  0  0  0  0  0  0  0  0
   10.0769    2.0392   -3.0084 H   0  0  0  0  0  0  0  0  0  0  0  0
    9.3222    3.2810   -4.0160 H   0  0  0  0  0  0  0  0  0  0  0  0
    8.9104    1.5435   -1.0037 H   0  0  0  0  0  0  0  0  0  0  0  0
    7.3840    2.1731    0.8027 H   0  0  0  0  0  0  0  0  0  0  0  0
    4.1156    6.0899    1.7115 H   0  0  0  0  0  0  0  0  0  0  0  0
    4.2176    8.2894    2.7702 H   0  0  0  0  0  0  0  0  0  0  0  0
    7.2618    9.7729    4.1972 H   0  0  0  0  0  0  0  0  0  0  0  0
    6.5481   10.4589    2.7403 H   0  0  0  0  0  0  0  0  0  0  0  0
    5.5036    9.9221    4.0552 H   0  0  0  0  0  0  0  0  0  0  0  0
    8.4764    8.0621    2.8549 H   0  0  0  0  0  0  0  0  0  0  0  0
    8.3793    5.8402    1.8164 H   0  0  0  0  0  0  0  0  0  0  0  0
    5.7227    5.5654   -3.1368 H   0  0  0  0  0  0  0  0  0  0  0  0
    4.9765    7.9005   -2.8658 H   0  0  0  0  0  0  0  0  0  0  0  0
    3.1776    8.4471   -1.2777 H   0  0  0  0  0  0  0  0  0  0  0  0
    1.6952    6.0435    1.0911 H   0  0  0  0  0  0  0  0  0  0  0  0
    1.8310    7.7503    0.6452 H   0  0  0  0  0  0  0  0  0  0  0  0
   -0.4304    6.8483    0.1297 H   0  0  0  0  0  0  0  0  0  0  0  0
    0.2884    5.6302   -0.9275 H   0  0  0  0  0  0  0  0  0  0  0  0
    0.3983    7.3383   -1.3538 H   0  0  0  0  0  0  0  0  0  0  0  0
    2.8372    4.3281   -0.2420 H   0  0  0  0  0  0  0  0  0  0  0  0
   -4.2432   -5.0816   -5.3264 H   0  0  0  0  0  0  0  0  0  0  0  0
   -6.5599   -4.6233   -6.0027 H   0  0  0  0  0  0  0  0  0  0  0  0
   -7.0953   -2.6157   -7.3208 H   0  0  0  0  0  0  0  0  0  0  0  0
   -4.7636    0.1145   -7.9203 H   0  0  0  0  0  0  0  0  0  0  0  0
   -6.4168   -0.4655   -8.1737 H   0  0  0  0  0  0  0  0  0  0  0  0
   -5.6194   -1.8646  -10.0860 H   0  0  0  0  0  0  0  0  0  0  0  0
   -5.2426   -0.1577  -10.3436 H   0  0  0  0  0  0  0  0  0  0  0  0
   -3.9760   -1.2769   -9.8285 H   0  0  0  0  0  0  0  0  0  0  0  0
   -2.9835   -1.5071   -7.3000 H   0  0  0  0  0  0  0  0  0  0  0  0
    5.7235   -2.3237   -5.0364 H   0  0  0  0  0  0  0  0  0  0  0  0
    5.5497   -1.8964   -3.3082 H   0  0  0  0  0  0  0  0  0  0  0  0
    7.3331   -0.2027   -3.5516 H   0  0  0  0  0  0  0  0  0  0  0  0
    7.4391   -0.5260   -5.2863 H   0  0  0  0  0  0  0  0  0  0  0  0
    7.9074   -1.7706   -4.1215 H   0  0  0  0  0  0  0  0  0  0  0  0
    4.2138   -3.4758   -4.7149 H   0  0  0  0  0  0  0  0  0  0  0  0
    2.6610   -4.3020   -4.6736 H   0  0  0  0  0  0  0  0  0  0  0  0
    3.1344   -1.6575   -3.2162 H   0  0  0  0  0  0  0  0  0  0  0  0
    1.7368   -2.7297   -3.0857 H   0  0  0  0  0  0  0  0  0  0  0  0
    3.3011   -3.2489   -2.4644 H   0  0  0  0  0  0  0  0  0  0  0  0
   -4.1752    0.0993   -2.1725 H   0  0  0  0  0  0  0  0  0  0  0  0
   -6.4086    0.9090   -1.5615 H   0  0  0  0  0  0  0  0  0  0  0  0
   -9.5509   -1.0291   -2.1059 H   0  0  0  0  0  0  0  0  0  0  0  0
   -8.8644   -0.4420   -0.5903 H   0  0  0  0  0  0  0  0  0  0  0  0
   -8.9100    0.6174   -1.9953 H   0  0  0  0  0  0  0  0  0  0  0  0
   -8.0866   -2.8494   -2.6774 H   0  0  0  0  0  0  0  0  0  0  0  0
   -5.8576   -3.6564   -3.3128 H   0  0  0  0  0  0  0  0  0  0  0  0
   -4.0676   -0.3998   -4.8753 H   0  0  0  0  0  0  0  0  0  0  0  0
   -2.4068    1.1244   -5.8566 H   0  0  0  0  0  0  0  0  0  0  0  0
    1.2639    0.9692   -5.1035 H   0  0  0  0  0  0  0  0  0  0  0  0
    0.1860    1.2058   -6.4865 H   0  0  0  0  0  0  0  0  0  0  0  0
    0.0475    2.2493   -5.0771 H   0  0  0  0  0  0  0  0  0  0  0  0
    0.6691   -0.7589   -3.5954 H   0  0  0  0  0  0  0  0  0  0  0  0
   -0.9827   -2.2929   -2.6121 H   0  0  0  0  0  0  0  0  0  0  0  0
   -5.8707   -7.2241    0.0864 H   0  0  0  0  0  0  0  0  0  0  0  0
   -7.4708   -8.6478    1.2961 H   0  0  0  0  0  0  0  0  0  0  0  0
   -6.4824  -11.2900    3.7328 H   0  0  0  0  0  0  0  0  0  0  0  0
   -7.4510   -9.8359    3.9916 H   0  0  0  0  0  0  0  0  0  0  0  0
   -7.7422  -10.8360    2.5712 H   0  0  0  0  0  0  0  0  0  0  0  0
   -4.2643  -10.3853    3.5070 H   0  0  0  0  0  0  0  0  0  0  0  0
   -2.6594   -8.9668    2.2991 H   0  0  0  0  0  0  0  0  0  0  0  0
   -2.9867   -9.7266   -0.4885 H   0  0  0  0  0  0  0  0  0  0  0  0
   -0.9294  -10.7501   -1.3522 H   0  0  0  0  0  0  0  0  0  0  0  0
    2.3978   -9.0837   -1.3295 H   0  0  0  0  0  0  0  0  0  0  0  0
    1.4770   -9.5861   -2.7472 H   0  0  0  0  0  0  0  0  0  0  0  0
    1.5925  -10.6604   -1.3569 H   0  0  0  0  0  0  0  0  0  0  0  0
    1.1740   -7.0973   -0.6982 H   0  0  0  0  0  0  0  0  0  0  0  0
   -0.8727   -6.0776    0.1930 H   0  0  0  0  0  0  0  0  0  0  0  0
   -4.3467   -6.0773    2.5407 H   0  0  0  0  0  0  0  0  0  0  0  0
   -3.0007   -0.1595    4.0488 H   0  0  0  0  0  0  0  0  0  0  0  0
   -2.5704    0.2103    6.4614 H   0  0  0  0  0  0  0  0  0  0  0  0
   -3.8793   -3.7648    7.3703 H   0  0  0  0  0  0  0  0  0  0  0  0
  1  2  2  0  0  0  0
  2  3  1  0  0  0  0
  3  4  2  0  0  0  0
  3  5  1  0  0  0  0
  5  6  2  0  0  0  0
  6  7  1  0  0  0  0
  7  8  2  0  0  0  0
  8  9  1  0  0  0  0
  9 10  2  0  0  0  0
 10 11  1  0  0  0  0
 10 12  1  0  0  0  0
 12 13  2  0  0  0  0
 13 14  1  0  0  0  0
 14 15  2  0  0  0  0
 15 16  1  0  0  0  0
 16 17  2  0  0  0  0
 17 18  1  0  0  0  0
 18 19  3  0  0  0  0
 17 20  1  0  0  0  0
 20 21  3  0  0  0  0
  1 22  1  0  0  0  0
 22 23  2  0  0  0  0
 23 24  1  0  0  0  0
 24 25  1  0  0  0  0
 25 26  2  0  0  0  0
 26 27  1  0  0  0  0
 27 28  2  0  0  0  0
 28 29  1  0  0  0  0
 28 30  1  0  0  0  0
 30 31  2  0  0  0  0
 24 32  1  0  0  0  0
 32 33  2  0  0  0  0
 33 34  1  0  0  0  0
 34 35  2  0  0  0  0
 35 36  1  0  0  0  0
 35 37  1  0  0  0  0
 37 38  2  0  0  0  0
 23 39  1  0  0  0  0
 39 40  1  0  0  0  0
 40 41  1  0  0  0  0
 41 42  2  0  0  0  0
 42 43  1  0  0  0  0
 43 44  1  0  0  0  0
 44 45  2  0  0  0  0
 45 46  1  0  0  0  0
 46 47  2  0  0  0  0
 47 48  1  0  0  0  0
 47 49  1  0  0  0  0
 49 50  2  0  0  0  0
 43 51  1  0  0  0  0
 51 52  2  0  0  0  0
 52 53  1  0  0  0  0
 53 54  2  0  0  0  0
 54 55  1  0  0  0  0
 54 56  1  0  0  0  0
 56 57  2  0  0  0  0
 42 58  1  0  0  0  0
 58 59  1  0  0  0  0
 41 60  1  0  0  0  0
 60 61  2  0  0  0  0
 61 62  1  0  0  0  0
 62 63  2  0  0  0  0
 63 64  1  0  0  0  0
 64 65  2  0  0  0  0
 65 66  1  0  0  0  0
 66 67  1  0  0  0  0
 67 68  1  0  0  0  0
 66 69  2  0  0  0  0
 61 70  1  0  0  0  0
 70 71  1  0  0  0  0
 71 72  1  0  0  0  0
 72 73  1  0  0  0  0
 73 74  1  0  0  0  0
 74 75  1  0  0  0  0
 75 76  2  0  0  0  0
 76 77  1  0  0  0  0
 77 78  1  0  0  0  0
 75 79  1  0  0  0  0
 79 80  1  0  0  0  0
 80 81  1  0  0  0  0
 81 82  1  0  0  0  0
 82 83  1  0  0  0  0
 83 84  1  0  0  0  0
 84 85  2  0  0  0  0
 85 86  1  0  0  0  0
 86 87  2  0  0  0  0
 87 88  1  0  0  0  0
 88 89  1  0  0  0  0
 89 90  1  0  0  0  0
 88 91  2  0  0  0  0
 83 92  2  0  0  0  0
 92 93  1  0  0  0  0
 93 94  1  0  0  0  0
 94 95  1  0  0  0  0
 95 96  1  0  0  0  0
 96 97  1  0  0  0  0
 97 98  1  0  0  0  0
 98 99  1  0  0  0  0
 99100  1  0  0  0  0
100101  1  0  0  0  0
101102  1  0  0  0  0
 99103  1  0  0  0  0
103104  1  0  0  0  0
 96105  1  0  0  0  0
105106  1  0  0  0  0
 92107  1  0  0  0  0
107108  2  0  0  0  0
108109  1  0  0  0  0
109110  1  0  0  0  0
110111  2  0  0  0  0
111112  1  0  0  0  0
112113  2  0  0  0  0
113114  1  0  0  0  0
113115  1  0  0  0  0
115116  2  0  0  0  0
109117  1  0  0  0  0
117118  2  0  0  0  0
118119  1  0  0  0  0
119120  2  0  0  0  0
120121  1  0  0  0  0
120122  1  0  0  0  0
122123  2  0  0  0  0
108124  1  0  0  0  0
124125  1  0  0  0  0
125126  1  0  0  0  0
126127  2  0  0  0  0
127128  1  0  0  0  0
128129  1  0  0  0  0
129130  2  0  0  0  0
130131  1  0  0  0  0
131132  2  0  0  0  0
132133  1  0  0  0  0
132134  1  0  0  0  0
134135  2  0  0  0  0
128136  1  0  0  0  0
136137  2  0  0  0  0
137138  1  0  0  0  0
138139  2  0  0  0  0
139140  1  0  0  0  0
139141  1  0  0  0  0
141142  2  0  0  0  0
127143  1  0  0  0  0
143144  1  0  0  0  0
126145  1  0  0  0  0
145146  2  0  0  0  0
146147  1  0  0  0  0
147148  2  0  0  0  0
147149  1  0  0  0  0
149150  2  0  0  0  0
150151  1  0  0  0  0
151152  2  0  0  0  0
152153  1  0  0  0  0
152154  1  0  0  0  0
154155  2  0  0  0  0
155156  1  0  0  0  0
156157  2  0  0  0  0
157158  1  0  0  0  0
158159  3  0  0  0  0
157160  1  0  0  0  0
160161  3  0  0  0  0
 16  2  1  0  0  0  0
 59 22  1  0  0  0  0
102 60  1  0  0  0  0
144107  1  0  0  0  0
156146  1  0  0  0  0
 15  5  1  0  0  0  0
 31 25  1  0  0  0  0
 38 32  1  0  0  0  0
 58 39  2  0  0  0  0
 69 62  1  0  0  0  0
101 70  2  0  0  0  0
116110  1  0  0  0  0
123117  1  0  0  0  0
143124  2  0  0  0  0
155149  1  0  0  0  0
 13  7  1  0  0  0  0
 50 44  1  0  0  0  0
 57 51  1  0  0  0  0
100 72  2  0  0  0  0
135129  1  0  0  0  0
142136  1  0  0  0  0
 98 73  2  0  0  0  0
 78 74  2  0  0  0  0
 97 79  2  0  0  0  0
 95 80  2  0  0  0  0
 94 82  2  0  0  0  0
 91 84  1  0  0  0  0
  1162  1  0  0  0  0
  6163  1  0  0  0  0
  8164  1  0  0  0  0
  9165  1  0  0  0  0
 12166  1  0  0  0  0
 14167  1  0  0  0  0
 26168  1  0  0  0  0
 27169  1  0  0  0  0
 29170  1  0  0  0  0
 29171  1  0  0  0  0
 29172  1  0  0  0  0
 30173  1  0  0  0  0
 31174  1  0  0  0  0
 33175  1  0  0  0  0
 34176  1  0  0  0  0
 36177  1  0  0  0  0
 36178  1  0  0  0  0
 36179  1  0  0  0  0
 37180  1  0  0  0  0
 38181  1  0  0  0  0
 45182  1  0  0  0  0
 46183  1  0  0  0  0
 48184  1  0  0  0  0
 48185  1  0  0  0  0
 48186  1  0  0  0  0
 49187  1  0  0  0  0
 50188  1  0  0  0  0
 52189  1  0  0  0  0
 53190  1  0  0  0  0
 55191  1  0  0  0  0
 55192  1  0  0  0  0
 55193  1  0  0  0  0
 56194  1  0  0  0  0
 57195  1  0  0  0  0
 63196  1  0  0  0  0
 64197  1  0  0  0  0
 65198  1  0  0  0  0
 67199  1  0  0  0  0
 67200  1  0  0  0  0
 68201  1  0  0  0  0
 68202  1  0  0  0  0
 68203  1  0  0  0  0
 69204  1  0  0  0  0
 85205  1  0  0  0  0
 86206  1  0  0  0  0
 87207  1  0  0  0  0
 89208  1  0  0  0  0
 89209  1  0  0  0  0
 90210  1  0  0  0  0
 90211  1  0  0  0  0
 90212  1  0  0  0  0
 91213  1  0  0  0  0
103214  1  0  0  0  0
103215  1  0  0  0  0
104216  1  0  0  0  0
104217  1  0  0  0  0
104218  1  0  0  0  0
105219  1  0  0  0  0
105220  1  0  0  0  0
106221  1  0  0  0  0
106222  1  0  0  0  0
106223  1  0  0  0  0
111224  1  0  0  0  0
112225  1  0  0  0  0
114226  1  0  0  0  0
114227  1  0  0  0  0
114228  1  0  0  0  0
115229  1  0  0  0  0
116230  1  0  0  0  0
118231  1  0  0  0  0
119232  1  0  0  0  0
121233  1  0  0  0  0
121234  1  0  0  0  0
121235  1  0  0  0  0
122236  1  0  0  0  0
123237  1  0  0  0  0
130238  1  0  0  0  0
131239  1  0  0  0  0
133240  1  0  0  0  0
133241  1  0  0  0  0
133242  1  0  0  0  0
134243  1  0  0  0  0
135244  1  0  0  0  0
137245  1  0  0  0  0
138246  1  0  0  0  0
140247  1  0  0  0  0
140248  1  0  0  0  0
140249  1  0  0  0  0
141250  1  0  0  0  0
142251  1  0  0  0  0
145252  1  0  0  0  0
150253  1  0  0  0  0
151254  1  0  0  0  0
154255  1  0  0  0  0
M  END
