247

C         10.09680       -6.19000       -2.84040
C         10.71070       -6.56780       -4.02240
C         10.02160       -6.60090       -5.31860
O          8.84970       -6.35410       -5.54500
C         11.07250       -6.88160       -6.31980
C         10.95600       -7.01280       -7.67080
C         12.10620       -7.31800       -8.43550
C         12.04120       -7.47910       -9.83350
C         13.15900       -7.77900      -10.56250
C         14.38130       -7.92630       -9.89570
F         15.47170       -8.22620      -10.62850
C         14.50000       -7.77860       -8.54150
C         13.35940       -7.46980       -7.77660
C         13.44970       -7.31450       -6.37210
C         12.32160       -7.02920       -5.65530
C         12.10100       -6.84540       -4.22270
C         13.03180       -7.06570       -3.23320
C         12.74320       -7.01190       -1.85650
N         12.56940       -7.01710       -0.72040
C         14.36130       -7.45140       -3.47490
N         15.45330       -7.78500       -3.60950
C          8.73980       -6.30420       -2.55840
C          7.73770       -7.14030       -3.10660
N          7.92790       -8.23360       -3.89160
C          6.83820       -8.75430       -4.62920
C          6.11250       -7.93720       -5.48960
C          5.03630       -8.45720       -6.18070
C          4.66470       -9.78970       -6.03440
C          3.46750      -10.32720       -6.75600
C          5.41800      -10.60100       -5.19440
C          6.49760      -10.09500       -4.49680
C          9.14630       -8.92410       -3.98010
C          9.93310       -9.16320       -2.85420
C         11.14640       -9.80500       -2.98270
C         11.61310      -10.22610       -4.22660
C         12.95650      -10.87250       -4.34930
C         10.80050      -10.02850       -5.33430
C          9.57860       -9.39140       -5.21860
C          6.46760       -6.76840       -2.60940
S          4.85980       -7.34580       -2.88530
C          4.21850       -6.20420       -1.72180
C          5.21870       -5.46780       -1.09470
N          5.04280       -4.59070       -0.03790
C          5.89750       -3.47810        0.05370
C          6.21890       -2.74550       -1.08510
C          7.07610       -1.66630       -0.99620
C          7.62300       -1.28420        0.22190
C          8.57030       -0.12740        0.31320
C          7.28740       -2.01610        1.35580
C          6.43960       -3.10190        1.27940
C          4.06110       -4.80450        0.93660
C          3.66970       -6.09170        1.30190
C          2.61360       -6.27530        2.17170
C          1.93020       -5.19610        2.71840
C          0.72750       -5.40990        3.58500
C          2.37830       -3.91750        2.41110
C          3.42080       -3.71710        1.52970
C          6.48810       -5.78040       -1.63500
S          8.09020       -5.23710       -1.29940
C          2.81240       -6.08450       -1.48080
C          1.87940       -7.06020       -1.19750
C          2.08590       -8.50750       -1.30150
C          2.44670       -9.09140       -2.51160
C          2.61660      -10.46110       -2.59100
C          2.40920      -11.25550       -1.47770
C          2.01890      -10.69130       -0.26920
C          1.71130      -11.55030        0.92310
C          0.21210      -11.85110        0.98110
C          1.85960       -9.31630       -0.19430
C          0.67140       -6.49360       -0.73980
S         -0.80030       -7.19670       -0.11500
C         -1.43080       -5.60190        0.13830
C         -2.56710       -4.97050        0.67720
C         -3.68550       -5.46380        1.38690
C         -4.59720       -4.53350        2.00190
N         -5.53980       -5.14260        2.70340
S         -5.31280       -6.74120        2.59560
N         -3.99600       -6.72280        1.65320
C         -4.43310       -3.15120        1.76180
C         -5.18000       -2.01430        2.13060
S         -6.52990       -1.58390        3.12960
C         -6.30050        0.09300        2.68680
C         -6.96440        1.28260        3.06310
C         -8.03370        1.27820        4.06760
C         -7.78830        0.65120        5.28640
C         -8.77030        0.62030        6.25710
C         -9.99340        1.22310        6.02750
C        -10.25810        1.84800        4.81510
C        -11.56270        2.56190        4.60920
C        -11.55540        3.88290        5.38000
C         -9.27760        1.85200        3.83410
C         -6.39130        2.38440        2.45930
S         -5.04430        1.94810        1.40620
C         -5.24840        0.28120        1.79340
C         -4.60360       -0.92000        1.48150
N         -3.52250       -1.32190        0.73990
C         -3.38090       -2.68410        0.93210
C         -2.35870       -3.57350        0.52790
N         -1.10410       -3.35830       -0.01860
C         -0.55200       -4.58970       -0.25550
C          0.65710       -5.10060       -0.74140
S          2.14820       -4.45930       -1.32340
C         -0.24070       -2.19820        0.09480
C         -0.33220       -1.53570        1.46440
C         -3.11010       -0.56340       -0.42060
C         -4.25950       -0.40330       -1.41460
C         -6.61190        3.79010        2.59810
C         -5.66190        4.74240        2.36200
C         -6.11480        6.07260        2.52630
C         -5.37610        7.26650        2.41500
C         -3.99710        7.29050        1.97640
C         -2.99030        8.10200        2.42570
C         -1.79550        7.89500        1.71880
S         -0.20230        8.56210        1.78970
C          0.31410        7.53750        0.46880
C          1.72920        7.59090        0.00740
C          2.66180        6.88860        0.99710
C         -0.68320        6.73210        0.01240
C         -1.88480        6.93530        0.71900
S         -3.47130        6.26230        0.65000
C         -6.05720        8.44110        2.72470
C         -7.42690        8.48460        3.07280
C         -8.17160        7.29500        3.14230
C         -9.59430        7.25720        3.41780
S        -10.31370        8.18910        4.72010
C        -11.87110        7.53250        4.36590
C        -13.16340        7.67320        4.90950
C        -14.07600        6.91200        4.24660
C        -15.52480        6.74410        4.54790
C        -15.79620        5.38980        5.20780
S        -13.36450        6.00220        2.93210
C        -11.80690        6.65640        3.29070
C        -10.51850        6.49220        2.76010
C         -7.47860        6.11420        2.89300
S         -8.14640        4.50970        3.03410
C         -7.87990        9.82300        3.26200
C         -6.91530       10.75170        3.08570
S         -5.37570       10.04390        2.66140
C         -7.00430       12.23420        3.25220
C         -6.42430       12.94010        2.06500
C         -5.70320       14.06460        2.14890
C         -5.47670       14.73680        3.39970
C         -4.67720       15.83040        3.50750
S         -4.40930       16.65520        5.04100
C         -3.32050       17.79810        4.29000
C         -2.71090       18.76310        5.05100
C         -2.97750       18.81580        6.43560
N         -3.19250       18.86400        7.56130
C         -1.81280       19.74650        4.60270
N         -1.07580       20.57620        4.30580
N         -3.19790       17.56470        2.95850
C         -2.41310       18.37510        2.04500
C         -3.16440       19.63260        1.62490
C         -3.92580       16.49520        2.44610
O         -3.89130       16.20010        1.27200
C         -6.19340       14.19160        4.59740
C         -6.27170       12.67060        4.52800
H         10.69910       -5.71600       -2.07460
H          9.99810       -6.89500       -8.15520
H         11.08730       -7.35990      -10.32560
H         13.12540       -7.90420      -11.63320
H         15.45830       -7.89930       -8.06080
H         14.41430       -7.42250       -5.90250
H          6.41830       -6.91050       -5.61730
H          4.47440       -7.81940       -6.84740
H          3.41970       -9.93720       -7.77050
H          3.48960      -11.41340       -6.79640
H          2.55610      -10.02340       -6.23960
H          5.15600      -11.64290       -5.07960
H          7.07420      -10.73060       -3.84060
H          9.59510       -8.83950       -1.88120
H         11.75060       -9.97440       -2.10330
H         13.16170      -11.15340       -5.37960
H         13.00730      -11.76390       -3.72600
H         13.73790      -10.19180       -4.01340
H         11.13230      -10.36050       -6.30740
H          8.96010       -9.23350       -6.08940
H          5.79050       -3.02500       -2.03690
H          7.31970       -1.10920       -1.88940
H          8.43650        0.41080        1.24920
H          8.42440        0.56160       -0.51540
H          9.59940       -0.48670        0.27780
H          7.70590       -1.73680        2.31190
H          6.19480       -3.66900        2.16550
H          4.18630       -6.94770        0.89310
H          2.31230       -7.27960        2.43190
H          0.54480       -4.54740        4.22210
H          0.84970       -6.29060        4.21120
H         -0.15570       -5.56540        2.96210
H          1.89590       -3.06000        2.85670
H          3.72980       -2.71470        1.27260
H          2.56500       -8.47710       -3.39170
H          2.90860      -10.90800       -3.52940
H          2.54140      -12.32580       -1.54760
H          2.00980      -11.03510        1.83850
H          2.26740      -12.48770        0.86130
H         -0.02040      -12.46150        1.85060
H         -0.10020      -12.38610        0.08710
H         -0.35730      -10.92630        1.04120
H          1.55980       -8.86160        0.73840
H         -6.82530        0.19970        5.47240
H         -8.57720        0.12910        7.19940
H        -10.75470        1.20430        6.79400
H        -11.71830        2.76420        3.54840
H        -12.38750        1.94100        4.96620
H        -10.75060        4.52000        5.01960
H        -11.40040        3.70510        6.44160
H        -12.50020        4.40520        5.25190
H         -9.49150        2.28570        2.86820
H          0.77810       -2.56550       -0.05530
H         -0.43880       -1.47180       -0.69980
H          0.46120       -0.79950        1.56140
H         -0.21450       -2.28500        2.24330
H         -1.28570       -1.03810        1.61000
H         -2.29950       -1.09390       -0.91170
H         -2.76220        0.42180       -0.09370
H         -4.63900       -1.37940       -1.70980
H         -5.07270        0.17030       -0.97900
H         -3.90620        0.11780       -2.30010
H         -4.64960        4.48630        2.10820
H         -3.09200        8.78550        3.24780
H          2.04070        8.63250       -0.09970
H          1.79910        7.10860       -0.96980
H          3.68760        6.92760        0.63980
H          2.61280        7.37360        1.96930
H          2.37270        5.84670        1.11510
H         -0.56680        6.03160       -0.79420
H        -13.40370        8.30390        5.74560
H        -15.84340        7.54880        5.21310
H        -16.10230        6.81270        3.62280
H        -16.85610        5.28160        5.42270
H        -15.49100        4.58120        4.54730
H        -15.24150        5.30490        6.13970
H        -10.28570        5.86770        1.91800
H         -8.89330       10.07160        3.51920
H         -8.06710       12.50210        3.33490
H         -6.59980       12.48150        1.10280
H         -5.27340       14.50560        1.26380
H         -1.46070       18.62720        2.51380
H         -2.23130       17.74410        1.17060
H         -3.37550       20.26870        2.48130
H         -4.10070       19.36600        1.13960
H         -2.55540       20.19630        0.92480
H         -7.20630       14.60780        4.61350
H         -5.69260       14.50350        5.51660
H         -5.26020       12.25830        4.50920
H         -6.78510       12.27730        5.40630
