
  xtb     02062201513D
 energy: -365.299451897115 gnorm: 0.000798828768 xtb: 6.4.1 (unknown)
212235  0     0  0            999 V2000
   -7.9332    4.1250    4.8790 C   0  0  0  0  0  0  0  0  0  0  0  0
   -7.8698    4.8959    6.0209 C   0  0  0  0  0  0  0  0  0  0  0  0
   -6.6887    5.0997    6.8591 C   0  0  0  0  0  0  0  0  0  0  0  0
   -5.6148    4.5247    6.7924 O   0  0  0  0  0  0  0  0  0  0  0  0
   -7.0437    6.1688    7.8110 C   0  0  0  0  0  0  0  0  0  0  0  0
   -6.2766    6.7411    8.7824 C   0  0  0  0  0  0  0  0  0  0  0  0
   -6.8284    7.7721    9.5767 C   0  0  0  0  0  0  0  0  0  0  0  0
   -6.0810    8.4020   10.5918 C   0  0  0  0  0  0  0  0  0  0  0  0
   -6.6250    9.4004   11.3519 C   0  0  0  0  0  0  0  0  0  0  0  0
   -7.9473    9.7928   11.1073 C   0  0  0  0  0  0  0  0  0  0  0  0
   -8.4666   10.7780   11.8650 F   0  0  0  0  0  0  0  0  0  0  0  0
   -8.7162    9.2146   10.1358 C   0  0  0  0  0  0  0  0  0  0  0  0
   -8.1717    8.1853    9.3440 C   0  0  0  0  0  0  0  0  0  0  0  0
   -8.9440    7.5674    8.3314 C   0  0  0  0  0  0  0  0  0  0  0  0
   -8.3878    6.5730    7.5737 C   0  0  0  0  0  0  0  0  0  0  0  0
   -8.9281    5.7574    6.4874 C   0  0  0  0  0  0  0  0  0  0  0  0
  -10.2233    5.8114    6.0270 C   0  0  0  0  0  0  0  0  0  0  0  0
  -10.7950    4.9311    5.0902 C   0  0  0  0  0  0  0  0  0  0  0  0
  -11.3495    4.2326    4.3637 N   0  0  0  0  0  0  0  0  0  0  0  0
  -11.1780    6.7492    6.4651 C   0  0  0  0  0  0  0  0  0  0  0  0
  -11.9955    7.5027    6.7558 N   0  0  0  0  0  0  0  0  0  0  0  0
   -6.9790    3.3093    4.2799 C   0  0  0  0  0  0  0  0  0  0  0  0
   -7.1887    2.6685    3.0289 C   0  0  0  0  0  0  0  0  0  0  0  0
   -8.2398    2.8848    2.1820 N   0  0  0  0  0  0  0  0  0  0  0  0
   -8.6479    1.8234    1.3480 C   0  0  0  0  0  0  0  0  0  0  0  0
   -8.8266    0.5512    1.8842 C   0  0  0  0  0  0  0  0  0  0  0  0
   -9.2108   -0.4934    1.0696 C   0  0  0  0  0  0  0  0  0  0  0  0
   -9.4232   -0.3009   -0.2903 C   0  0  0  0  0  0  0  0  0  0  0  0
   -9.7965   -1.4522   -1.1703 C   0  0  0  0  0  0  0  0  0  0  0  0
   -9.2578    0.9765   -0.8122 C   0  0  0  0  0  0  0  0  0  0  0  0
   -8.8758    2.0318   -0.0079 C   0  0  0  0  0  0  0  0  0  0  0  0
   -8.8349    4.1474    2.0022 C   0  0  0  0  0  0  0  0  0  0  0  0
  -10.1999    4.2392    1.7435 C   0  0  0  0  0  0  0  0  0  0  0  0
  -10.7871    5.4768    1.5703 C   0  0  0  0  0  0  0  0  0  0  0  0
  -10.0414    6.6460    1.6610 C   0  0  0  0  0  0  0  0  0  0  0  0
  -10.7046    7.9813    1.5258 C   0  0  0  0  0  0  0  0  0  0  0  0
   -8.6749    6.5413    1.8967 C   0  0  0  0  0  0  0  0  0  0  0  0
   -8.0704    5.3108    2.0551 C   0  0  0  0  0  0  0  0  0  0  0  0
   -6.1433    1.7726    2.7465 C   0  0  0  0  0  0  0  0  0  0  0  0
   -5.7647    0.7363    1.4079 S   0  0  0  0  0  0  0  0  0  0  0  0
   -4.2426    0.2795    2.1693 C   0  0  0  0  0  0  0  0  0  0  0  0
   -4.0378    0.9363    3.3699 C   0  0  0  0  0  0  0  0  0  0  0  0
   -2.9510    0.7575    4.2235 N   0  0  0  0  0  0  0  0  0  0  0  0
   -3.2268    0.5385    5.5802 C   0  0  0  0  0  0  0  0  0  0  0  0
   -4.3305   -0.2287    5.9454 C   0  0  0  0  0  0  0  0  0  0  0  0
   -4.6273   -0.4376    7.2770 C   0  0  0  0  0  0  0  0  0  0  0  0
   -3.8320    0.1000    8.2804 C   0  0  0  0  0  0  0  0  0  0  0  0
   -4.1678   -0.1077    9.7254 C   0  0  0  0  0  0  0  0  0  0  0  0
   -2.7295    0.8603    7.9083 C   0  0  0  0  0  0  0  0  0  0  0  0
   -2.4278    1.0851    6.5807 C   0  0  0  0  0  0  0  0  0  0  0  0
   -1.6593    1.0453    3.7755 C   0  0  0  0  0  0  0  0  0  0  0  0
   -0.5704    0.3049    4.2304 C   0  0  0  0  0  0  0  0  0  0  0  0
    0.6949    0.5636    3.7435 C   0  0  0  0  0  0  0  0  0  0  0  0
    0.9134    1.5625    2.8025 C   0  0  0  0  0  0  0  0  0  0  0  0
    2.2851    1.8430    2.2663 C   0  0  0  0  0  0  0  0  0  0  0  0
   -0.1741    2.3124    2.3702 C   0  0  0  0  0  0  0  0  0  0  0  0
   -1.4453    2.0636    2.8465 C   0  0  0  0  0  0  0  0  0  0  0  0
   -5.1363    1.7669    3.7008 C   0  0  0  0  0  0  0  0  0  0  0  0
   -5.4329    2.8547    5.0081 S   0  0  0  0  0  0  0  0  0  0  0  0
   -3.4348   -0.6887    1.4840 C   0  0  0  0  0  0  0  0  0  0  0  0
   -3.8857   -1.8631    0.9086 C   0  0  0  0  0  0  0  0  0  0  0  0
   -5.2166   -2.4330    1.1163 C   0  0  0  0  0  0  0  0  0  0  0  0
   -5.8718   -3.0996    0.0849 C   0  0  0  0  0  0  0  0  0  0  0  0
   -7.1045   -3.6802    0.3136 C   0  0  0  0  0  0  0  0  0  0  0  0
   -7.6971   -3.6000    1.5615 C   0  0  0  0  0  0  0  0  0  0  0  0
   -7.0630   -2.9306    2.6009 C   0  0  0  0  0  0  0  0  0  0  0  0
   -7.6745   -2.8627    3.9714 C   0  0  0  0  0  0  0  0  0  0  0  0
   -7.1025   -3.9603    4.8704 C   0  0  0  0  0  0  0  0  0  0  0  0
   -5.8225   -2.3612    2.3670 C   0  0  0  0  0  0  0  0  0  0  0  0
   -2.8607   -2.5054    0.1799 C   0  0  0  0  0  0  0  0  0  0  0  0
   -2.7883   -4.0027   -0.7209 S   0  0  0  0  0  0  0  0  0  0  0  0
   -1.1163   -3.6967   -1.0563 C   0  0  0  0  0  0  0  0  0  0  0  0
   -0.0333   -4.2871   -1.7263 C   0  0  0  0  0  0  0  0  0  0  0  0
    0.0733   -5.5285   -2.3892 C   0  0  0  0  0  0  0  0  0  0  0  0
    1.3435   -5.9204   -2.9252 C   0  0  0  0  0  0  0  0  0  0  0  0
    1.3107   -7.1213   -3.4813 N   0  0  0  0  0  0  0  0  0  0  0  0
   -0.1927   -7.7069   -3.3449 S   0  0  0  0  0  0  0  0  0  0  0  0
   -0.8592   -6.4509   -2.5711 N   0  0  0  0  0  0  0  0  0  0  0  0
    2.4221   -5.0129   -2.8522 C   0  0  0  0  0  0  0  0  0  0  0  0
    3.7137   -5.0843   -3.3947 C   0  0  0  0  0  0  0  0  0  0  0  0
    4.6966   -6.1796   -4.3046 S   0  0  0  0  0  0  0  0  0  0  0  0
    5.9673   -4.9795   -4.3299 C   0  0  0  0  0  0  0  0  0  0  0  0
    7.2393   -4.9548   -4.9278 C   0  0  0  0  0  0  0  0  0  0  0  0
    7.7549   -6.0035   -5.8033 C   0  0  0  0  0  0  0  0  0  0  0  0
    7.6248   -7.3430   -5.4519 C   0  0  0  0  0  0  0  0  0  0  0  0
    8.1412   -8.3227   -6.2783 C   0  0  0  0  0  0  0  0  0  0  0  0
    8.7828   -7.9794   -7.4543 C   0  0  0  0  0  0  0  0  0  0  0  0
    8.9015   -6.6468   -7.8324 C   0  0  0  0  0  0  0  0  0  0  0  0
    9.5528   -6.2716   -9.1329 C   0  0  0  0  0  0  0  0  0  0  0  0
    8.5220   -6.2548  -10.2633 C   0  0  0  0  0  0  0  0  0  0  0  0
    8.3721   -5.6696   -7.0060 C   0  0  0  0  0  0  0  0  0  0  0  0
    7.8864   -3.7523   -4.6714 C   0  0  0  0  0  0  0  0  0  0  0  0
    6.8950   -2.6320   -3.7489 S   0  0  0  0  0  0  0  0  0  0  0  0
    5.6253   -3.7990   -3.6597 C   0  0  0  0  0  0  0  0  0  0  0  0
    4.3351   -3.8625   -3.1234 C   0  0  0  0  0  0  0  0  0  0  0  0
    3.4899   -3.0516   -2.4138 N   0  0  0  0  0  0  0  0  0  0  0  0
    2.2983   -3.7360   -2.2313 C   0  0  0  0  0  0  0  0  0  0  0  0
    1.0789   -3.4080   -1.5798 C   0  0  0  0  0  0  0  0  0  0  0  0
    0.6740   -2.3268   -0.8093 N   0  0  0  0  0  0  0  0  0  0  0  0
   -0.6450   -2.5090   -0.4974 C   0  0  0  0  0  0  0  0  0  0  0  0
   -1.6433   -1.8283    0.2118 C   0  0  0  0  0  0  0  0  0  0  0  0
   -1.7433   -0.3742    1.1343 S   0  0  0  0  0  0  0  0  0  0  0  0
    1.4460   -1.3629   -0.0570 C   0  0  0  0  0  0  0  0  0  0  0  0
    2.3879   -2.0456    0.9311 C   0  0  0  0  0  0  0  0  0  0  0  0
    3.7848   -1.6400   -2.3182 C   0  0  0  0  0  0  0  0  0  0  0  0
    2.8921   -0.8188   -3.2458 C   0  0  0  0  0  0  0  0  0  0  0  0
    9.1850   -3.3413   -5.0574 C   0  0  0  0  0  0  0  0  0  0  0  0
    9.5237   -1.6452   -5.3370 S   0  0  0  0  0  0  0  0  0  0  0  0
   11.1743   -1.9762   -5.8475 C   0  0  0  0  0  0  0  0  0  0  0  0
   11.4049   -3.3400   -5.7429 C   0  0  0  0  0  0  0  0  0  0  0  0
   12.5566   -4.2366   -5.9560 C   0  0  0  0  0  0  0  0  0  0  0  0
   13.6717   -3.9883   -6.3400 O   0  0  0  0  0  0  0  0  0  0  0  0
   12.0904   -5.4919   -5.5945 N   0  0  0  0  0  0  0  0  0  0  0  0
   12.9191   -6.6783   -5.6074 C   0  0  0  0  0  0  0  0  0  0  0  0
   13.6399   -6.8717   -4.2780 C   0  0  0  0  0  0  0  0  0  0  0  0
   10.7850   -5.4880   -5.1030 C   0  0  0  0  0  0  0  0  0  0  0  0
   10.2472   -6.4406   -4.5979 O   0  0  0  0  0  0  0  0  0  0  0  0
   10.3232   -4.1003   -5.2831 C   0  0  0  0  0  0  0  0  0  0  0  0
   12.1331   -1.0690   -6.3320 C   0  0  0  0  0  0  0  0  0  0  0  0
   12.0791    0.2970   -6.3843 C   0  0  0  0  0  0  0  0  0  0  0  0
   11.0227    1.1298   -5.7893 C   0  0  0  0  0  0  0  0  0  0  0  0
    9.9554    0.7600   -5.3327 O   0  0  0  0  0  0  0  0  0  0  0  0
   11.5224    2.5130   -5.8339 C   0  0  0  0  0  0  0  0  0  0  0  0
   10.9371    3.6492   -5.3540 C   0  0  0  0  0  0  0  0  0  0  0  0
   11.6123    4.8817   -5.4930 C   0  0  0  0  0  0  0  0  0  0  0  0
   11.0543    6.0860   -5.0174 C   0  0  0  0  0  0  0  0  0  0  0  0
   11.7190    7.2727   -5.1545 C   0  0  0  0  0  0  0  0  0  0  0  0
   12.9738    7.2784   -5.7787 C   0  0  0  0  0  0  0  0  0  0  0  0
   13.6129    8.4553   -5.9035 F   0  0  0  0  0  0  0  0  0  0  0  0
   13.5599    6.1397   -6.2581 C   0  0  0  0  0  0  0  0  0  0  0  0
   12.8887    4.9086   -6.1271 C   0  0  0  0  0  0  0  0  0  0  0  0
   13.4672    3.7150   -6.6197 C   0  0  0  0  0  0  0  0  0  0  0  0
   12.7917    2.5325   -6.4797 C   0  0  0  0  0  0  0  0  0  0  0  0
   13.1151    1.1721   -6.9018 C   0  0  0  0  0  0  0  0  0  0  0  0
   14.1532    0.8155   -7.7198 C   0  0  0  0  0  0  0  0  0  0  0  0
   15.1334    1.7192   -8.1808 C   0  0  0  0  0  0  0  0  0  0  0  0
   15.9605    2.4096   -8.5768 N   0  0  0  0  0  0  0  0  0  0  0  0
   14.3437   -0.4679   -8.2788 C   0  0  0  0  0  0  0  0  0  0  0  0
   14.5291   -1.4593   -8.8260 N   0  0  0  0  0  0  0  0  0  0  0  0
   -8.8681    4.1754    4.3361 H   0  0  0  0  0  0  0  0  0  0  0  0
   -5.2606    6.4129    8.9436 H   0  0  0  0  0  0  0  0  0  0  0  0
   -5.0636    8.0820   10.7610 H   0  0  0  0  0  0  0  0  0  0  0  0
   -6.0664    9.8928   12.1319 H   0  0  0  0  0  0  0  0  0  0  0  0
   -9.7315    9.5424    9.9754 H   0  0  0  0  0  0  0  0  0  0  0  0
   -9.9576    7.9027    8.1816 H   0  0  0  0  0  0  0  0  0  0  0  0
   -8.6705    0.3912    2.9409 H   0  0  0  0  0  0  0  0  0  0  0  0
   -9.3471   -1.4753    1.4952 H   0  0  0  0  0  0  0  0  0  0  0  0
  -10.3056   -1.1100   -2.0679 H   0  0  0  0  0  0  0  0  0  0  0  0
  -10.4397   -2.1513   -0.6410 H   0  0  0  0  0  0  0  0  0  0  0  0
   -8.8955   -1.9877   -1.4706 H   0  0  0  0  0  0  0  0  0  0  0  0
   -9.4228    1.1478   -1.8659 H   0  0  0  0  0  0  0  0  0  0  0  0
   -8.7437    3.0190   -0.4253 H   0  0  0  0  0  0  0  0  0  0  0  0
  -10.7957    3.3416    1.6948 H   0  0  0  0  0  0  0  0  0  0  0  0
  -11.8486    5.5355    1.3841 H   0  0  0  0  0  0  0  0  0  0  0  0
  -11.3975    7.9840    0.6868 H   0  0  0  0  0  0  0  0  0  0  0  0
  -11.2753    8.2048    2.4276 H   0  0  0  0  0  0  0  0  0  0  0  0
   -9.9709    8.7704    1.3809 H   0  0  0  0  0  0  0  0  0  0  0  0
   -8.0717    7.4363    1.9499 H   0  0  0  0  0  0  0  0  0  0  0  0
   -7.0063    5.2458    2.2300 H   0  0  0  0  0  0  0  0  0  0  0  0
   -4.9586   -0.6614    5.1799 H   0  0  0  0  0  0  0  0  0  0  0  0
   -5.4896   -1.0337    7.5399 H   0  0  0  0  0  0  0  0  0  0  0  0
   -4.7577    0.7325   10.0935 H   0  0  0  0  0  0  0  0  0  0  0  0
   -3.2648   -0.1725   10.3285 H   0  0  0  0  0  0  0  0  0  0  0  0
   -4.7507   -1.0155    9.8633 H   0  0  0  0  0  0  0  0  0  0  0  0
   -2.1025    1.2958    8.6728 H   0  0  0  0  0  0  0  0  0  0  0  0
   -1.5788    1.6960    6.3128 H   0  0  0  0  0  0  0  0  0  0  0  0
   -0.7288   -0.4810    4.9538 H   0  0  0  0  0  0  0  0  0  0  0  0
    1.5275   -0.0280    4.0971 H   0  0  0  0  0  0  0  0  0  0  0  0
    2.5907    2.8571    2.5213 H   0  0  0  0  0  0  0  0  0  0  0  0
    3.0147    1.1513    2.6803 H   0  0  0  0  0  0  0  0  0  0  0  0
    2.2960    1.7577    1.1801 H   0  0  0  0  0  0  0  0  0  0  0  0
   -0.0217    3.1036    1.6504 H   0  0  0  0  0  0  0  0  0  0  0  0
   -2.2821    2.6537    2.5025 H   0  0  0  0  0  0  0  0  0  0  0  0
   -5.4173   -3.1555   -0.8923 H   0  0  0  0  0  0  0  0  0  0  0  0
   -7.6051   -4.2060   -0.4863 H   0  0  0  0  0  0  0  0  0  0  0  0
   -8.6576   -4.0658    1.7325 H   0  0  0  0  0  0  0  0  0  0  0  0
   -7.4673   -1.8878    4.4195 H   0  0  0  0  0  0  0  0  0  0  0  0
   -8.7578   -2.9816    3.9028 H   0  0  0  0  0  0  0  0  0  0  0  0
   -7.3043   -4.9405    4.4442 H   0  0  0  0  0  0  0  0  0  0  0  0
   -7.5498   -3.9131    5.8606 H   0  0  0  0  0  0  0  0  0  0  0  0
   -6.0252   -3.8466    4.9699 H   0  0  0  0  0  0  0  0  0  0  0  0
   -5.3028   -1.8684    3.1763 H   0  0  0  0  0  0  0  0  0  0  0  0
    7.1552   -7.6093   -4.5181 H   0  0  0  0  0  0  0  0  0  0  0  0
    8.0530   -9.3610   -5.9961 H   0  0  0  0  0  0  0  0  0  0  0  0
    9.1983   -8.7500   -8.0880 H   0  0  0  0  0  0  0  0  0  0  0  0
   10.0109   -5.2835   -9.0477 H   0  0  0  0  0  0  0  0  0  0  0  0
   10.3383   -6.9909   -9.3732 H   0  0  0  0  0  0  0  0  0  0  0  0
    8.9941   -5.9825  -11.2042 H   0  0  0  0  0  0  0  0  0  0  0  0
    7.7356   -5.5349  -10.0472 H   0  0  0  0  0  0  0  0  0  0  0  0
    8.0657   -7.2359  -10.3734 H   0  0  0  0  0  0  0  0  0  0  0  0
    8.4359   -4.6317   -7.3028 H   0  0  0  0  0  0  0  0  0  0  0  0
    1.9821   -0.6909   -0.7271 H   0  0  0  0  0  0  0  0  0  0  0  0
    0.7282   -0.7544    0.4993 H   0  0  0  0  0  0  0  0  0  0  0  0
    2.9687   -1.2979    1.4638 H   0  0  0  0  0  0  0  0  0  0  0  0
    3.0670   -2.7272    0.4237 H   0  0  0  0  0  0  0  0  0  0  0  0
    1.8118   -2.6166    1.6552 H   0  0  0  0  0  0  0  0  0  0  0  0
    4.8269   -1.5191   -2.6241 H   0  0  0  0  0  0  0  0  0  0  0  0
    3.7143   -1.3021   -1.2846 H   0  0  0  0  0  0  0  0  0  0  0  0
    3.0642   -1.1118   -4.2788 H   0  0  0  0  0  0  0  0  0  0  0  0
    1.8397   -0.9756   -3.0204 H   0  0  0  0  0  0  0  0  0  0  0  0
    3.1224    0.2383   -3.1440 H   0  0  0  0  0  0  0  0  0  0  0  0
   12.2637   -7.5285   -5.8121 H   0  0  0  0  0  0  0  0  0  0  0  0
   13.6408   -6.5586   -6.4188 H   0  0  0  0  0  0  0  0  0  0  0  0
   12.9164   -6.9736   -3.4725 H   0  0  0  0  0  0  0  0  0  0  0  0
   14.2841   -6.0198   -4.0729 H   0  0  0  0  0  0  0  0  0  0  0  0
   14.2495   -7.7699   -4.3176 H   0  0  0  0  0  0  0  0  0  0  0  0
   13.0352   -1.5609   -6.6812 H   0  0  0  0  0  0  0  0  0  0  0  0
    9.9709    3.6072   -4.8738 H   0  0  0  0  0  0  0  0  0  0  0  0
   10.0863    6.0558   -4.5400 H   0  0  0  0  0  0  0  0  0  0  0  0
   11.3063    8.2027   -4.7968 H   0  0  0  0  0  0  0  0  0  0  0  0
   14.5267    6.1822   -6.7348 H   0  0  0  0  0  0  0  0  0  0  0  0
   14.4347    3.7685   -7.0924 H   0  0  0  0  0  0  0  0  0  0  0  0
  1  2  2  0  0  0  0
  2  3  1  0  0  0  0
  3  4  2  0  0  0  0
  3  5  1  0  0  0  0
  5  6  2  0  0  0  0
  6  7  1  0  0  0  0
  7  8  2  0  0  0  0
  8  9  1  0  0  0  0
  9 10  2  0  0  0  0
 10 11  1  0  0  0  0
 10 12  1  0  0  0  0
 12 13  2  0  0  0  0
 13 14  1  0  0  0  0
 14 15  2  0  0  0  0
 15 16  1  0  0  0  0
 16 17  2  0  0  0  0
 17 18  1  0  0  0  0
 18 19  3  0  0  0  0
 17 20  1  0  0  0  0
 20 21  3  0  0  0  0
  1 22  1  0  0  0  0
 22 23  2  0  0  0  0
 23 24  1  0  0  0  0
 24 25  1  0  0  0  0
 25 26  2  0  0  0  0
 26 27  1  0  0  0  0
 27 28  2  0  0  0  0
 28 29  1  0  0  0  0
 28 30  1  0  0  0  0
 30 31  2  0  0  0  0
 24 32  1  0  0  0  0
 32 33  2  0  0  0  0
 33 34  1  0  0  0  0
 34 35  2  0  0  0  0
 35 36  1  0  0  0  0
 35 37  1  0  0  0  0
 37 38  2  0  0  0  0
 23 39  1  0  0  0  0
 39 40  1  0  0  0  0
 40 41  1  0  0  0  0
 41 42  2  0  0  0  0
 42 43  1  0  0  0  0
 43 44  1  0  0  0  0
 44 45  2  0  0  0  0
 45 46  1  0  0  0  0
 46 47  2  0  0  0  0
 47 48  1  0  0  0  0
 47 49  1  0  0  0  0
 49 50  2  0  0  0  0
 43 51  1  0  0  0  0
 51 52  2  0  0  0  0
 52 53  1  0  0  0  0
 53 54  2  0  0  0  0
 54 55  1  0  0  0  0
 54 56  1  0  0  0  0
 56 57  2  0  0  0  0
 42 58  1  0  0  0  0
 58 59  1  0  0  0  0
 41 60  1  0  0  0  0
 60 61  2  0  0  0  0
 61 62  1  0  0  0  0
 62 63  2  0  0  0  0
 63 64  1  0  0  0  0
 64 65  2  0  0  0  0
 65 66  1  0  0  0  0
 66 67  1  0  0  0  0
 67 68  1  0  0  0  0
 66 69  2  0  0  0  0
 61 70  1  0  0  0  0
 70 71  1  0  0  0  0
 71 72  1  0  0  0  0
 72 73  1  0  0  0  0
 73 74  1  0  0  0  0
 74 75  1  0  0  0  0
 75 76  2  0  0  0  0
 76 77  1  0  0  0  0
 77 78  1  0  0  0  0
 75 79  1  0  0  0  0
 79 80  1  0  0  0  0
 80 81  1  0  0  0  0
 81 82  1  0  0  0  0
 82 83  1  0  0  0  0
 83 84  1  0  0  0  0
 84 85  2  0  0  0  0
 85 86  1  0  0  0  0
 86 87  2  0  0  0  0
 87 88  1  0  0  0  0
 88 89  1  0  0  0  0
 89 90  1  0  0  0  0
 88 91  2  0  0  0  0
 83 92  2  0  0  0  0
 92 93  1  0  0  0  0
 93 94  1  0  0  0  0
 94 95  1  0  0  0  0
 95 96  1  0  0  0  0
 96 97  1  0  0  0  0
 97 98  1  0  0  0  0
 98 99  1  0  0  0  0
 99100  1  0  0  0  0
100101  1  0  0  0  0
101102  1  0  0  0  0
 99103  1  0  0  0  0
103104  1  0  0  0  0
 96105  1  0  0  0  0
105106  1  0  0  0  0
 92107  1  0  0  0  0
107108  1  0  0  0  0
108109  1  0  0  0  0
109110  2  0  0  0  0
110111  1  0  0  0  0
111112  2  0  0  0  0
111113  1  0  0  0  0
113114  1  0  0  0  0
114115  1  0  0  0  0
113116  1  0  0  0  0
116117  2  0  0  0  0
116118  1  0  0  0  0
109119  1  0  0  0  0
119120  2  0  0  0  0
120121  1  0  0  0  0
121122  2  0  0  0  0
121123  1  0  0  0  0
123124  2  0  0  0  0
124125  1  0  0  0  0
125126  2  0  0  0  0
126127  1  0  0  0  0
127128  2  0  0  0  0
128129  1  0  0  0  0
128130  1  0  0  0  0
130131  2  0  0  0  0
131132  1  0  0  0  0
132133  2  0  0  0  0
133134  1  0  0  0  0
134135  2  0  0  0  0
135136  1  0  0  0  0
136137  3  0  0  0  0
135138  1  0  0  0  0
138139  3  0  0  0  0
 16  2  1  0  0  0  0
 59 22  1  0  0  0  0
102 60  1  0  0  0  0
118107  2  0  0  0  0
134120  1  0  0  0  0
 15  5  1  0  0  0  0
 31 25  1  0  0  0  0
 38 32  1  0  0  0  0
 58 39  2  0  0  0  0
 69 62  1  0  0  0  0
101 70  2  0  0  0  0
118110  1  0  0  0  0
133123  1  0  0  0  0
 13  7  1  0  0  0  0
 50 44  1  0  0  0  0
 57 51  1  0  0  0  0
100 72  2  0  0  0  0
131125  1  0  0  0  0
 98 73  2  0  0  0  0
 78 74  2  0  0  0  0
 97 79  2  0  0  0  0
 95 80  2  0  0  0  0
 94 82  2  0  0  0  0
 91 84  1  0  0  0  0
  1140  1  0  0  0  0
  6141  1  0  0  0  0
  8142  1  0  0  0  0
  9143  1  0  0  0  0
 12144  1  0  0  0  0
 14145  1  0  0  0  0
 26146  1  0  0  0  0
 27147  1  0  0  0  0
 29148  1  0  0  0  0
 29149  1  0  0  0  0
 29150  1  0  0  0  0
 30151  1  0  0  0  0
 31152  1  0  0  0  0
 33153  1  0  0  0  0
 34154  1  0  0  0  0
 36155  1  0  0  0  0
 36156  1  0  0  0  0
 36157  1  0  0  0  0
 37158  1  0  0  0  0
 38159  1  0  0  0  0
 45160  1  0  0  0  0
 46161  1  0  0  0  0
 48162  1  0  0  0  0
 48163  1  0  0  0  0
 48164  1  0  0  0  0
 49165  1  0  0  0  0
 50166  1  0  0  0  0
 52167  1  0  0  0  0
 53168  1  0  0  0  0
 55169  1  0  0  0  0
 55170  1  0  0  0  0
 55171  1  0  0  0  0
 56172  1  0  0  0  0
 57173  1  0  0  0  0
 63174  1  0  0  0  0
 64175  1  0  0  0  0
 65176  1  0  0  0  0
 67177  1  0  0  0  0
 67178  1  0  0  0  0
 68179  1  0  0  0  0
 68180  1  0  0  0  0
 68181  1  0  0  0  0
 69182  1  0  0  0  0
 85183  1  0  0  0  0
 86184  1  0  0  0  0
 87185  1  0  0  0  0
 89186  1  0  0  0  0
 89187  1  0  0  0  0
 90188  1  0  0  0  0
 90189  1  0  0  0  0
 90190  1  0  0  0  0
 91191  1  0  0  0  0
103192  1  0  0  0  0
103193  1  0  0  0  0
104194  1  0  0  0  0
104195  1  0  0  0  0
104196  1  0  0  0  0
105197  1  0  0  0  0
105198  1  0  0  0  0
106199  1  0  0  0  0
106200  1  0  0  0  0
106201  1  0  0  0  0
114202  1  0  0  0  0
114203  1  0  0  0  0
115204  1  0  0  0  0
115205  1  0  0  0  0
115206  1  0  0  0  0
119207  1  0  0  0  0
124208  1  0  0  0  0
126209  1  0  0  0  0
127210  1  0  0  0  0
130211  1  0  0  0  0
132212  1  0  0  0  0
M  END
