239

C          0.71540       -6.26760       -3.04330
C          1.04080       -7.39690       -3.76650
C          2.11670       -7.50010       -4.75060
O          2.85410       -6.61330       -5.14990
C          2.16180       -8.91670       -5.15790
C          2.99410       -9.52510       -6.05030
C          2.85080      -10.91070       -6.29120
C          3.67940      -11.59100       -7.20550
C          3.52940      -12.93160       -7.43070
C          2.53260      -13.62700       -6.73450
F          2.39890      -14.94680       -6.96930
C          1.70240      -13.01560       -5.83650
C          1.84270      -11.63580       -5.59340
C          0.99410      -10.97490       -4.67300
C          1.14940       -9.63250       -4.45850
C          0.42800       -8.69080       -3.60260
C         -0.66410       -9.00660       -2.82630
C         -1.43470       -8.09790       -2.08030
N         -2.14160       -7.42530       -1.46990
C         -1.18950      -10.30850       -2.70310
N         -1.65790      -11.34720       -2.55920
C          1.16330       -4.95780       -3.16810
C          0.67030       -3.91000       -2.34380
N         -0.03380       -4.09850       -1.18440
C         -0.99400       -3.15080       -0.79020
C         -1.87210       -2.62010       -1.73040
C         -2.81200       -1.68190       -1.35030
C         -2.90390       -1.24940       -0.03380
C         -3.91960       -0.23480        0.38540
C         -2.02890       -1.79520        0.90140
C         -1.08700       -2.73450        0.53650
C          0.32000       -5.12750       -0.28690
C          1.65580       -5.47850       -0.10960
C          1.99840       -6.47680        0.78050
C          1.02660       -7.14290        1.51750
C          1.37720       -8.22390        2.48950
C         -0.30200       -6.77690        1.33570
C         -0.66240       -5.78060        0.45210
C          1.05960       -2.65950       -2.84590
S          0.75900       -1.02760       -2.34930
C          1.87710       -0.44970       -3.57540
C          2.39280       -1.46250       -4.36460
N          3.22570       -1.25010       -5.44650
C          4.25110       -2.16450       -5.73230
C          4.62350       -2.40920       -7.05100
C          5.63650       -3.30410       -7.33090
C          6.29610       -3.98440       -6.31490
C          7.37220       -4.97990       -6.62250
C          5.91530       -3.73630       -5.00260
C          4.91060       -2.83770       -4.70850
C          3.10710       -0.06400       -6.18690
C          1.85340        0.46400       -6.48280
C          1.74230        1.67010       -7.14770
C          2.86870        2.37730       -7.54400
C          2.75710        3.70850       -8.22300
C          4.11720        1.81970       -7.28810
C          4.24040        0.61670       -6.62510
C          1.91710       -2.72950       -3.93970
S          2.23230       -4.35390       -4.43840
C          2.20590        0.94840       -3.61150
C          3.44860        1.51220       -3.42830
C          4.66000        0.73570       -3.15640
C          4.64940       -0.27370       -2.19910
C          5.79770       -1.00380       -1.95540
C          6.94850       -0.75380       -2.68020
C          6.97780        0.25530       -3.63500
C          8.21450        0.47950       -4.45650
C          8.30200       -0.55770       -5.57880
C          5.83450        1.00990       -3.84790
C          3.37490        2.92220       -3.42530
S          4.49830        4.16420       -2.91400
C          3.18730        5.30500       -2.84930
C          2.87390        6.54420       -2.24710
C          3.62820        7.45420       -1.47170
C          2.93680        8.38990       -0.61930
N          3.76950        9.14080        0.08090
S          5.28810        8.72300       -0.29780
N          4.94210        7.55230       -1.36110
C          1.52650        8.32070       -0.52610
C          0.64260        8.68180        0.50930
S          0.71640        9.23840        2.15650
C         -0.86340        8.52760        2.46660
C         -1.54590        8.13650        3.64190
C         -1.19030        8.52060        5.00390
C         -2.20000        8.76650        5.93580
C         -1.87590        9.18000        7.21220
C         -0.54960        9.34400        7.57890
C          0.46900        9.09240        6.66920
C          1.90700        9.31190        7.03780
C          2.36990       10.68960        6.55940
C          0.13710        8.68710        5.38450
C         -2.62560        7.31410        3.33790
S         -2.91180        7.19060        1.60660
C         -1.44840        8.04060        1.29580
C         -0.59280        8.11110        0.19350
N         -0.53210        7.46770       -1.01210
C          0.78100        7.51930       -1.43750
C          1.46700        6.69880       -2.36490
N          0.95620        5.65800       -3.13000
C          1.98810        4.77320       -3.32490
C          2.08560        3.41010       -3.62590
S          0.93700        2.13960       -3.83030
C         -0.13430        5.72440       -4.08400
C          0.36290        5.54560       -5.51780
C         -1.61710        6.59070       -1.39130
C         -1.39950        5.16140       -0.90010
C         -3.21390        6.25400        4.08780
C         -2.69000        5.56940        5.15400
C         -3.18790        4.25010        5.28030
C         -2.72170        3.23080        6.14690
C         -1.88670        3.55710        7.27770
C         -1.92710        4.70950        8.02240
C         -0.97600        4.74790        9.06660
O         -0.74210        5.74050        9.95710
C         -1.67210        6.80540       10.02970
C         -2.97890        6.39960       10.70290
C         -0.21510        3.60300        9.09910
Cl         1.04530        3.27320       10.20070
S         -0.65500        2.47680        7.86510
C         -3.06860        1.92520        5.79890
C         -3.93210        1.62270        4.71120
C         -4.55080        2.65840        3.96480
C         -5.45700        2.33830        2.88700
C         -6.34540        1.29580        2.83280
C         -7.01310        1.17310        1.59280
O         -7.90780        0.23870        1.21140
C         -8.17090       -0.84070        2.09650
C         -9.18830       -0.47730        3.17280
C         -6.61730        2.15260        0.71190
S         -5.45040        3.23140        1.39030
Cl        -7.17700        2.34040       -0.89000
C         -4.12490        3.94240        4.25850
S         -4.51250        5.35510        3.31740
C         -3.97930        0.25090        4.42920
C         -3.22990       -0.52690        5.27900
S         -2.45080        0.46680        6.51750
C         -2.93680       -1.90630        5.25740
C         -3.29940       -2.89010        4.37170
C         -4.23050       -2.81650        3.22160
O         -5.00270       -1.92290        2.91520
C         -4.14320       -4.10990        2.53450
C         -4.75440       -4.50450        1.37860
C         -4.60920       -5.84030        0.94630
C         -5.18500       -6.29520       -0.25720
C         -5.06900       -7.60080       -0.64330
C         -4.36830       -8.49270        0.17960
F         -4.27920       -9.77510       -0.20560
C         -3.79010       -8.10310        1.35600
C         -3.88570       -6.75880        1.76220
C         -3.25750       -6.31450        2.94990
C         -3.33980       -4.99420        3.30350
C         -2.75650       -4.24180        4.40880
C         -1.79530       -4.74120        5.25090
C         -1.23160       -6.02730        5.11500
N         -0.70350       -7.04540        5.04920
C         -1.18930       -4.07770        6.33870
N         -0.64930       -3.63520        7.25120
H         -0.02370       -6.40580       -2.26410
H          3.75090       -8.95640       -6.56980
H          4.44040      -11.03280       -7.73030
H          4.15490      -13.46690       -8.12730
H          0.94480      -13.58280       -5.31860
H          0.24200      -11.55390       -4.16220
H         -1.81760       -2.95380       -2.75650
H         -3.48670       -1.27990       -2.09190
H         -4.48040        0.13770       -0.46760
H         -3.43780        0.60550        0.88400
H         -4.61770       -0.68170        1.09260
H         -2.07920       -1.46400        1.92930
H         -0.40760       -3.14040        1.27180
H          2.42330       -4.96310       -0.66850
H          3.03970       -6.73360        0.91100
H          2.45290       -8.29580        2.62570
H          0.90920       -8.02730        3.45270
H          1.00860       -9.18490        2.13160
H         -1.06630       -7.29020        1.89460
H         -1.69930       -5.51310        0.32020
H          4.11330       -1.89590       -7.85300
H          5.91300       -3.48360       -8.36000
H          8.16370       -4.93910       -5.87690
H          7.80220       -4.79980       -7.60480
H          6.95490       -5.98720       -6.61190
H          6.41640       -4.25100       -4.19560
H          4.64460       -2.64050       -3.68170
H          0.96370       -0.06910       -6.18020
H          0.75890        2.06710       -7.35680
H          3.31530        3.70970       -9.15780
H          3.17300        4.49100       -7.58790
H          1.71930        3.95220       -8.43620
H          5.00700        2.34580       -7.60370
H          5.21460        0.19930       -6.42320
H          3.74980       -0.46800       -1.63380
H          5.79220       -1.77630       -1.19980
H          7.83730       -1.34040       -2.49850
H          9.09920        0.39370       -3.82180
H          8.19940        1.48230       -4.88710
H          7.44940       -0.47210       -6.24910
H          9.21150       -0.41590       -6.15780
H          8.30150       -1.56500       -5.16890
H          5.84410        1.81400       -4.56940
H         -3.23360        8.65110        5.64470
H         -2.66210        9.38950        7.92380
H         -0.30440        9.67180        8.57870
H          2.52840        8.54400        6.57310
H          2.02850        9.24270        8.12030
H          3.41140       10.85310        6.82500
H          1.76750       11.47120        7.01730
H          2.26970       10.76780        5.47930
H          0.92430        8.48510        4.67400
H         -0.87140        4.94650       -3.85770
H         -0.59250        6.71090       -4.00260
H          1.14060        6.27220       -5.74350
H         -0.46470        5.69580       -6.20620
H          0.76220        4.54680       -5.67010
H         -1.76810        6.61390       -2.46750
H         -2.52050        6.99570       -0.92800
H         -1.31340        5.14750        0.18350
H         -0.49400        4.73450       -1.32220
H         -2.24730        4.54440       -1.18360
H         -1.86380        5.94660        5.72820
H         -2.64860        5.48420        7.84070
H         -1.85550        7.21880        9.03060
H         -1.16200        7.56270       10.63050
H         -2.77680        6.01140       11.69790
H         -3.48810        5.62840       10.12970
H         -3.63100        7.26460       10.78710
H         -6.53290        0.65650        3.67450
H         -7.23750       -1.20680        2.53750
H         -8.58200       -1.62200        1.45130
H        -10.11520       -0.14790        2.70960
H         -8.82030        0.32420        3.80870
H         -9.39180       -1.34880        3.78880
H         -4.50730       -0.16430        3.59420
H         -2.26990       -2.20710        6.05620
H         -5.34220       -3.80570        0.80230
H         -5.71950       -5.58870       -0.87430
H         -5.49540       -7.96430       -1.56450
H         -3.25450       -8.81950        1.95970
H         -2.73290       -7.03500        3.55680
