261

C         -3.53940       12.49080        1.95000
C         -3.74090       13.15940        0.75630
C         -3.58740       12.53110       -0.56270
O         -3.23480       11.39050       -0.80460
C         -4.07410       13.53030       -1.53740
C         -4.14890       13.43750       -2.89460
C         -4.63930       14.53860       -3.63490
C         -4.72800       14.50160       -5.04050
C         -5.20780       15.57080       -5.74600
C         -5.61240       16.71490       -5.04750
F         -6.08160       17.75960       -5.75830
C         -5.54620       16.80350       -3.68470
C         -5.05480       15.71200       -2.94350
C         -4.97140       15.77460       -1.53140
C         -4.48250       14.70140       -0.84030
C         -4.25730       14.48470        0.58670
C         -4.35800       15.44100        1.57080
C         -3.99230       15.22780        2.91320
N         -3.67860       15.13110        4.01460
C         -4.75560       16.76860        1.33770
N         -5.05820       17.86880        1.19810
C         -2.69440       11.40100        2.14620
C         -1.55550       10.95970        1.43360
N         -0.90030       11.63640        0.44790
C         -0.95240       13.03170        0.31920
C         -0.92880       13.86230        1.43890
C         -1.02030       15.22980        1.28970
C         -1.13720       15.81270        0.02970
C         -1.29580       17.29370       -0.10900
C         -1.11610       14.98160       -1.08220
C         -1.02100       13.60890       -0.94710
C         -0.10650       10.91820       -0.47270
C          1.17670       11.36010       -0.77510
C          1.95340       10.65430       -1.67310
C          1.47360        9.50210       -2.28450
C          2.33080        8.72050       -3.23160
C          0.18310        9.07990       -1.98520
C         -0.60560        9.77650       -1.09170
C         -1.08010        9.74330        1.97630
S          0.21250        8.66730        1.56040
C         -0.17190        7.64360        2.93200
C         -1.27850        8.08650        3.64390
N         -1.87950        7.41790        4.69590
C         -2.43830        8.16410        5.74540
C         -3.62720        7.75910        6.34480
C         -4.17680        8.50510        7.36870
C         -3.56890        9.67150        7.81530
C         -4.17820       10.49890        8.90500
C         -2.38140       10.06780        7.21140
C         -1.81730        9.32740        6.19300
C         -1.93800        6.01740        4.71040
C         -1.79730        5.31590        5.90600
C         -1.75190        3.93700        5.90180
C         -1.85090        3.21510        4.71720
C         -1.74450        1.72070        4.72600
C         -2.05990        3.91850        3.53920
C         -2.11340        5.29920        3.53030
C         -1.76380        9.30040        3.10100
S         -3.03940       10.36920        3.54530
C          0.55270        6.43150        3.17600
C          1.00740        5.96130        4.39250
C          1.15840        6.80040        5.57860
C          1.48800        8.14950        5.45340
C          1.63130        8.93610        6.57950
C          1.44860        8.39450        7.84000
C          1.14310        7.04810        7.98650
C          1.00970        6.42900        9.34760
C          2.34240        5.81610        9.78260
C          1.01270        6.26140        6.85260
C          1.35090        4.59290        4.30610
S          1.85130        3.40590        5.48550
C          1.81530        2.18660        4.25750
C          1.99650        0.79770        4.11950
C          2.43080       -0.19420        5.02490
C          2.56410       -1.54910        4.56340
N          3.02760       -2.35880        5.50240
S          3.26770       -1.49710        6.85220
N          2.78950       -0.05460        6.29160
C          2.12820       -1.87400        3.26010
C          1.92170       -3.11240        2.62820
S          2.16200       -4.79890        2.93690
C          1.37450       -5.16760        1.42460
C          1.09240       -6.38030        0.76140
C          1.30870       -7.72160        1.30110
C          0.35490       -8.71610        1.09150
C          0.55500       -9.98550        1.59860
C          1.71220      -10.28320        2.29630
C          2.66790       -9.30150        2.52590
C          3.94930       -9.64250        3.22990
C          4.92610      -10.30520        2.25540
C          2.44440       -8.02040        2.04610
C          0.49890       -6.15000       -0.46350
S          0.18280       -4.44980       -0.75700
C          0.95630       -4.03250        0.73050
C          1.27670       -2.85310        1.41740
N          1.10750       -1.50320        1.25990
C          1.63440       -0.87730        2.37450
C          1.70270        0.48360        2.76550
N          1.41130        1.65770        2.08730
C          1.46410        2.67980        3.00210
C          1.20250        4.05470        3.02870
S          0.65930        5.23440        1.89400
C          1.63970        1.96310        0.69170
C          3.00270        2.62470        0.48470
C          0.22150       -0.99610        0.23750
C          0.87150       -1.02060       -1.14640
C          0.34900       -7.11780       -1.50890
C          1.35010       -7.97330       -1.94800
N          2.67130       -7.93740       -1.53880
C          3.40800       -9.13330       -1.51780
C          4.72860       -9.15840       -1.95500
C          5.43210      -10.34650       -1.96800
C          4.84400      -11.53510       -1.55600
C          5.59000      -12.83290       -1.61470
C          3.52990      -11.49750       -1.10650
C          2.81750      -10.31640       -1.08200
C          3.28720       -6.72010       -1.22080
C          4.23010       -6.65270       -0.19680
C          4.74970       -5.43670        0.19520
C          4.36460       -4.25440       -0.42790
C          4.87180       -2.93330        0.06380
C          3.49010       -4.33790       -1.50220
C          2.96010       -5.54980       -1.90140
C          0.85770       -8.86290       -2.93280
S          1.58490      -10.13730       -3.83860
C          0.05850      -10.41710       -4.68360
C         -0.93210       -9.46880       -4.31490
N         -2.17900       -9.36180       -4.87110
C         -3.23970       -8.91620       -4.05880
C         -3.40260       -9.44510       -2.78070
C         -4.43510       -9.00710       -1.97750
C         -5.33210       -8.04300       -2.42470
C         -6.43730       -7.56640       -1.53390
C         -5.16670       -7.52950       -3.70480
C         -4.13380       -7.95470       -4.51710
C         -2.40760       -9.55010       -6.24640
C         -1.44390       -9.18600       -7.18370
C         -1.67910       -9.38380       -8.52950
C         -2.87750       -9.92710       -8.97710
C         -3.12860      -10.16320      -10.43450
C         -3.84410      -10.25940       -8.03510
C         -3.61800      -10.08160       -6.68510
C         -0.46690       -8.63600       -3.28340
S         -1.15640       -7.31560       -2.39070
C         -0.20580      -11.51290       -5.50160
C          0.61450      -12.54400       -5.90630
C          2.05200      -12.65840       -5.65570
O          2.75620      -11.88670       -5.02210
C          2.49500      -13.88100       -6.34840
C          1.40730      -14.45550       -7.00110
C          1.57270      -15.62910       -7.74780
C          2.81780      -16.20010       -7.81480
C          3.93420      -15.64880       -7.15050
C          5.20790      -16.25130       -7.20940
C          6.27080      -15.70070       -6.54860
C          6.11260      -14.52210       -5.80080
C          4.89500      -13.90540       -5.72300
C          3.78030      -14.45190       -6.39280
C          0.20900      -13.66270       -6.72010
C         -1.06410      -13.97870       -7.13220
C         -1.38410      -15.04750       -7.99260
N         -1.72260      -15.88080       -8.70760
C         -2.24240      -13.32060       -6.73190
N         -3.25670      -12.87670       -6.42030
H         -4.11570       12.79780        2.81470
H         -3.83290       12.53880       -3.40320
H         -4.41090       13.60770       -5.55680
H         -5.28390       15.55690       -6.82170
H         -5.86630       17.70150       -3.17960
H         -5.30430       16.67190       -1.03470
H         -0.84330       13.43350        2.42610
H         -1.00860       15.85870        2.16790
H         -0.61650       17.81840        0.55960
H         -1.10600       17.61250       -1.13060
H         -2.31170       17.58880        0.15630
H         -1.19010       15.41010       -2.07130
H         -1.01290       12.97420       -1.82050
H          1.56000       12.25250       -0.30200
H          2.95100       11.00230       -1.89810
H          1.73150        8.28630       -4.02870
H          2.82110        7.90520       -2.69860
H          3.10150        9.34950       -3.67020
H         -0.21200        8.19600       -2.46410
H         -1.61890        9.46910       -0.88660
H         -4.11870        6.86120        6.00040
H         -5.10210        8.17820        7.82100
H         -3.42640       10.78160        9.63960
H         -4.97520        9.95700        9.40770
H         -4.59580       11.41510        8.48770
H         -1.88940       10.96910        7.54630
H         -0.88540        9.63930        5.74630
H         -1.69940        5.86440        6.83050
H         -1.61350        3.40720        6.83330
H         -2.64910        1.27790        5.14330
H         -0.90400        1.40080        5.33990
H         -1.60680        1.33390        3.71880
H         -2.17520        3.38080        2.60840
H         -2.27810        5.82750        2.60220
H          1.64990        8.57430        4.47370
H          1.88990        9.98000        6.47450
H          1.55250        9.01880        8.71550
H          0.70400        7.18650       10.07200
H          0.24700        5.64790        9.32570
H          2.25110        5.36650       10.76850
H          2.65230        5.04880        9.07690
H          3.11550        6.58050        9.81930
H          0.77700        5.21420        6.96240
H         -0.55020       -8.48590        0.54870
H         -0.19370      -10.74920        1.44330
H          1.87200      -11.28270        2.67410
H          3.74780      -10.32830        4.05570
H          4.40080       -8.73720        3.63950
H          4.49320      -11.21180        1.83900
H          5.15530       -9.63780        1.42730
H          5.85410      -10.56120        2.76110
H          3.16800       -7.24330        2.24000
H          1.61100        1.04820        0.11200
H          0.84680        2.63800        0.35290
H          3.16490        2.80110       -0.57520
H          3.79440        1.97850        0.85870
H          3.05620        3.57710        1.00460
H         -0.10800        0.00550        0.51610
H         -0.66360       -1.64220        0.21390
H          1.01900       -2.04800       -1.46660
H          0.22600       -0.52460       -1.86580
H          1.84150       -0.52770       -1.14380
H          5.19480       -8.24560       -2.29640
H          6.45350      -10.35030       -2.32090
H          6.65550      -12.66500       -1.75110
H          5.22660      -13.43140       -2.45060
H          5.43840      -13.40810       -0.70300
H          3.05490      -12.40910       -0.77330
H          1.80000      -10.30190       -0.72270
H          4.53260       -7.56200        0.29900
H          5.45400       -5.39910        1.01380
H          4.40420       -2.68640        1.01800
H          5.94820       -2.96650        0.22150
H          4.64490       -2.14060       -0.64540
H          3.21000       -3.44000       -2.03520
H          2.27880       -5.59050       -2.73890
H         -2.71990      -10.20490       -2.42890
H         -4.55320       -9.42500       -0.98830
H         -6.03570       -6.91410       -0.75810
H         -6.92460       -8.40630       -1.04250
H         -7.18050       -7.00900       -2.09810
H         -5.85240       -6.77970       -4.07180
H         -4.01160       -7.54160       -5.50740
H         -0.51040       -8.75430       -6.85350
H         -0.91890       -9.10280       -9.24430
H         -4.08310       -9.73340      -10.73350
H         -3.16950      -11.23330      -10.63750
H         -2.34060       -9.72690      -11.04320
H         -4.78170      -10.68320       -8.36130
H         -4.37000      -10.36450       -5.96580
H         -1.22960      -11.56430       -5.84980
H          0.74160      -16.08100       -8.26340
H          2.95960      -17.10520       -8.38800
H          5.32690      -17.15820       -7.78480
H          7.24250      -16.16990       -6.59720
H          6.96570      -14.10500       -5.28610
H          4.76140      -12.99730       -5.15590
