
  xtb     02042222283D
 energy: -309.858809430553 gnorm: 0.000235607410 xtb: 6.4.1 (unknown)
189207  0     0  0            999 V2000
   -9.7101    3.3980    5.4492 C   0  0  0  0  0  0  0  0  0  0  0  0
  -10.6320    4.2004    4.8635 C   0  0  0  0  0  0  0  0  0  0  0  0
  -11.8125    4.6609    5.6493 C   0  0  0  0  0  0  0  0  0  0  0  0
  -12.1871    4.2226    6.7130 O   0  0  0  0  0  0  0  0  0  0  0  0
  -12.3774    5.7829    4.8765 C   0  0  0  0  0  0  0  0  0  0  0  0
  -13.3933    6.6316    5.2105 C   0  0  0  0  0  0  0  0  0  0  0  0
  -13.7502    7.6655    4.3163 C   0  0  0  0  0  0  0  0  0  0  0  0
  -14.7945    8.5661    4.6107 C   0  0  0  0  0  0  0  0  0  0  0  0
  -15.1278    9.5672    3.7415 C   0  0  0  0  0  0  0  0  0  0  0  0
  -14.4124    9.6901    2.5425 C   0  0  0  0  0  0  0  0  0  0  0  0
  -14.7546   10.6823    1.7000 F   0  0  0  0  0  0  0  0  0  0  0  0
  -13.3921    8.8445    2.2076 C   0  0  0  0  0  0  0  0  0  0  0  0
  -13.0368    7.8056    3.0899 C   0  0  0  0  0  0  0  0  0  0  0  0
  -11.9934    6.9078    2.7664 C   0  0  0  0  0  0  0  0  0  0  0  0
  -11.6744    5.9063    3.6430 C   0  0  0  0  0  0  0  0  0  0  0  0
  -10.6909    4.8321    3.5599 C   0  0  0  0  0  0  0  0  0  0  0  0
  -10.1196    4.3677    2.4059 C   0  0  0  0  0  0  0  0  0  0  0  0
   -9.3859    3.1673    2.3227 C   0  0  0  0  0  0  0  0  0  0  0  0
   -8.8293    2.1715    2.1934 N   0  0  0  0  0  0  0  0  0  0  0  0
  -10.2774    4.9848    1.1480 C   0  0  0  0  0  0  0  0  0  0  0  0
  -10.3653    5.4534    0.1039 N   0  0  0  0  0  0  0  0  0  0  0  0
   -8.3677    3.1028    5.0311 C   0  0  0  0  0  0  0  0  0  0  0  0
   -7.8139    1.8459    5.3110 C   0  0  0  0  0  0  0  0  0  0  0  0
   -6.5485    1.4989    4.8877 C   0  0  0  0  0  0  0  0  0  0  0  0
   -5.9958    0.2766    5.0736 O   0  0  0  0  0  0  0  0  0  0  0  0
   -6.7513   -0.7648    5.6640 C   0  0  0  0  0  0  0  0  0  0  0  0
   -5.8912   -2.0169    5.6414 C   0  0  0  0  0  0  0  0  0  0  0  0
   -5.7263    2.4393    4.2126 C   0  0  0  0  0  0  0  0  0  0  0  0
   -6.2527    3.7188    4.0049 C   0  0  0  0  0  0  0  0  0  0  0  0
   -7.5354    4.0231    4.3835 C   0  0  0  0  0  0  0  0  0  0  0  0
   -7.9789    5.2813    4.1576 F   0  0  0  0  0  0  0  0  0  0  0  0
   -4.4239    2.0816    3.7399 C   0  0  0  0  0  0  0  0  0  0  0  0
   -3.5250    2.9147    3.0905 C   0  0  0  0  0  0  0  0  0  0  0  0
   -2.3661    2.2856    2.6512 C   0  0  0  0  0  0  0  0  0  0  0  0
   -1.1340    2.7538    1.9149 C   0  0  0  0  0  0  0  0  0  0  0  0
   -1.4079    3.3364    0.5433 C   0  0  0  0  0  0  0  0  0  0  0  0
   -0.4534    4.1365   -0.0733 C   0  0  0  0  0  0  0  0  0  0  0  0
   -0.6671    4.6301   -1.3458 C   0  0  0  0  0  0  0  0  0  0  0  0
   -1.8356    4.3382   -2.0377 C   0  0  0  0  0  0  0  0  0  0  0  0
   -2.0422    4.8387   -3.4382 C   0  0  0  0  0  0  0  0  0  0  0  0
   -1.4500    3.8531   -4.4477 C   0  0  0  0  0  0  0  0  0  0  0  0
   -2.7820    3.5313   -1.4214 C   0  0  0  0  0  0  0  0  0  0  0  0
   -2.5715    3.0321   -0.1488 C   0  0  0  0  0  0  0  0  0  0  0  0
   -0.4223    3.7411    2.8222 C   0  0  0  0  0  0  0  0  0  0  0  0
    0.6015    3.3448    3.6703 C   0  0  0  0  0  0  0  0  0  0  0  0
    1.1927    4.2555    4.5275 C   0  0  0  0  0  0  0  0  0  0  0  0
    0.7714    5.5771    4.5692 C   0  0  0  0  0  0  0  0  0  0  0  0
    1.4455    6.5736    5.4679 C   0  0  0  0  0  0  0  0  0  0  0  0
    2.6022    7.2567    4.7356 C   0  0  0  0  0  0  0  0  0  0  0  0
   -0.2608    5.9666    3.7248 C   0  0  0  0  0  0  0  0  0  0  0  0
   -0.8534    5.0618    2.8660 C   0  0  0  0  0  0  0  0  0  0  0  0
   -0.3860    1.4432    1.7426 C   0  0  0  0  0  0  0  0  0  0  0  0
   -1.0768    0.3879    2.3784 C   0  0  0  0  0  0  0  0  0  0  0  0
   -2.2756    0.9308    2.9396 C   0  0  0  0  0  0  0  0  0  0  0  0
   -3.7547    0.3190    3.8638 Se  0  0  0  0  0  2  0  0  0  0  0  0
   -0.6064   -0.9223    2.3464 C   0  0  0  0  0  0  0  0  0  0  0  0
    0.5439   -1.1622    1.6331 C   0  0  0  0  0  0  0  0  0  0  0  0
    1.2470   -2.4907    1.3982 C   0  0  0  0  0  0  0  0  0  0  0  0
    0.4159   -3.4983    0.6262 C   0  0  0  0  0  0  0  0  0  0  0  0
    0.8292   -4.8244    0.5769 C   0  0  0  0  0  0  0  0  0  0  0  0
    0.1209   -5.7545   -0.1586 C   0  0  0  0  0  0  0  0  0  0  0  0
   -1.0121   -5.3851   -0.8722 C   0  0  0  0  0  0  0  0  0  0  0  0
   -1.8102   -6.4050   -1.6320 C   0  0  0  0  0  0  0  0  0  0  0  0
   -2.9048   -6.9977   -0.7422 C   0  0  0  0  0  0  0  0  0  0  0  0
   -1.4131   -4.0571   -0.8299 C   0  0  0  0  0  0  0  0  0  0  0  0
   -0.7066   -3.1211   -0.0964 C   0  0  0  0  0  0  0  0  0  0  0  0
    1.6938   -3.0361    2.7410 C   0  0  0  0  0  0  0  0  0  0  0  0
    0.8162   -3.7877    3.5128 C   0  0  0  0  0  0  0  0  0  0  0  0
    1.1994   -4.2602    4.7533 C   0  0  0  0  0  0  0  0  0  0  0  0
    2.4661   -3.9960    5.2583 C   0  0  0  0  0  0  0  0  0  0  0  0
    2.8668   -4.4803    6.6221 C   0  0  0  0  0  0  0  0  0  0  0  0
    2.4962   -3.4464    7.6873 C   0  0  0  0  0  0  0  0  0  0  0  0
    3.3347   -3.2334    4.4899 C   0  0  0  0  0  0  0  0  0  0  0  0
    2.9544   -2.7555    3.2492 C   0  0  0  0  0  0  0  0  0  0  0  0
    2.3883   -2.0569    0.5145 C   0  0  0  0  0  0  0  0  0  0  0  0
    2.3391   -0.6915    0.3012 C   0  0  0  0  0  0  0  0  0  0  0  0
    1.2252   -0.1070    0.9820 C   0  0  0  0  0  0  0  0  0  0  0  0
    0.7719    1.2074    1.0382 C   0  0  0  0  0  0  0  0  0  0  0  0
    3.5850   -0.1478   -0.7459 S   0  0  0  0  0  0  0  0  0  0  0  0
    4.1868   -1.7866   -0.8953 C   0  0  0  0  0  0  0  0  0  0  0  0
    3.4350   -2.6810   -0.1623 C   0  0  0  0  0  0  0  0  0  0  0  0
    5.3149   -2.0989   -1.7340 C   0  0  0  0  0  0  0  0  0  0  0  0
    6.2498   -3.0848   -1.3579 C   0  0  0  0  0  0  0  0  0  0  0  0
    6.3592   -3.7778   -0.1159 C   0  0  0  0  0  0  0  0  0  0  0  0
    7.3595   -4.6853   -0.0826 C   0  0  0  0  0  0  0  0  0  0  0  0
    7.7754   -5.5605    1.0479 C   0  0  0  0  0  0  0  0  0  0  0  0
    9.1539   -5.1667    1.5806 C   0  0  0  0  0  0  0  0  0  0  0  0
    8.2354   -4.7503   -1.5942 S   0  0  0  0  0  0  0  0  0  0  0  0
    7.2549   -3.4850   -2.2599 C   0  0  0  0  0  0  0  0  0  0  0  0
    7.3812   -2.9694   -3.5552 C   0  0  0  0  0  0  0  0  0  0  0  0
    6.5324   -1.8840   -3.8734 C   0  0  0  0  0  0  0  0  0  0  0  0
    5.5253   -1.4848   -2.9698 C   0  0  0  0  0  0  0  0  0  0  0  0
    4.5651   -0.1970   -3.6445 S   0  0  0  0  0  0  0  0  0  0  0  0
    5.5615   -0.1380   -5.0669 C   0  0  0  0  0  0  0  0  0  0  0  0
    5.2791    0.8627   -6.1360 C   0  0  0  0  0  0  0  0  0  0  0  0
    5.1496    0.2102   -7.5127 C   0  0  0  0  0  0  0  0  0  0  0  0
    6.5440   -1.0719   -5.0386 C   0  0  0  0  0  0  0  0  0  0  0  0
    8.3273   -3.5365   -4.4612 C   0  0  0  0  0  0  0  0  0  0  0  0
    8.2419   -3.6598   -5.8144 C   0  0  0  0  0  0  0  0  0  0  0  0
    9.4618   -3.9298   -6.6189 C   0  0  0  0  0  0  0  0  0  0  0  0
   10.5479   -4.2684   -6.2053 O   0  0  0  0  0  0  0  0  0  0  0  0
    9.0784   -3.6333   -8.0156 C   0  0  0  0  0  0  0  0  0  0  0  0
    9.8583   -3.6079   -9.1349 C   0  0  0  0  0  0  0  0  0  0  0  0
    9.2772   -3.2511  -10.3732 C   0  0  0  0  0  0  0  0  0  0  0  0
   10.0377   -3.2100  -11.5593 C   0  0  0  0  0  0  0  0  0  0  0  0
    9.4678   -2.8541  -12.7502 C   0  0  0  0  0  0  0  0  0  0  0  0
    8.1057   -2.5268  -12.7786 C   0  0  0  0  0  0  0  0  0  0  0  0
    7.5625   -2.1760  -13.9595 F   0  0  0  0  0  0  0  0  0  0  0  0
    7.3222   -2.5515  -11.6587 C   0  0  0  0  0  0  0  0  0  0  0  0
    7.8921   -2.9195  -10.4245 C   0  0  0  0  0  0  0  0  0  0  0  0
    7.1046   -2.9664   -9.2505 C   0  0  0  0  0  0  0  0  0  0  0  0
    7.6881   -3.3253   -8.0657 C   0  0  0  0  0  0  0  0  0  0  0  0
    7.1321   -3.4841   -6.7253 C   0  0  0  0  0  0  0  0  0  0  0  0
    5.8010   -3.6371   -6.4319 C   0  0  0  0  0  0  0  0  0  0  0  0
    4.7656   -3.4608   -7.3693 C   0  0  0  0  0  0  0  0  0  0  0  0
    3.8823   -3.2919   -8.0839 N   0  0  0  0  0  0  0  0  0  0  0  0
    5.3110   -4.0794   -5.1867 C   0  0  0  0  0  0  0  0  0  0  0  0
    4.8522   -4.5005   -4.2221 N   0  0  0  0  0  0  0  0  0  0  0  0
  -10.0201    2.9534    6.3903 H   0  0  0  0  0  0  0  0  0  0  0  0
  -13.9190    6.5166    6.1467 H   0  0  0  0  0  0  0  0  0  0  0  0
  -15.3307    8.4516    5.5407 H   0  0  0  0  0  0  0  0  0  0  0  0
  -15.9237   10.2640    3.9518 H   0  0  0  0  0  0  0  0  0  0  0  0
  -12.8650    8.9665    1.2742 H   0  0  0  0  0  0  0  0  0  0  0  0
  -11.4630    7.0406    1.8367 H   0  0  0  0  0  0  0  0  0  0  0  0
   -8.4379    1.1302    5.8214 H   0  0  0  0  0  0  0  0  0  0  0  0
   -7.6742   -0.9232    5.0920 H   0  0  0  0  0  0  0  0  0  0  0  0
   -7.0086   -0.4962    6.6973 H   0  0  0  0  0  0  0  0  0  0  0  0
   -6.4260   -2.8432    6.1001 H   0  0  0  0  0  0  0  0  0  0  0  0
   -4.9668   -1.8394    6.1852 H   0  0  0  0  0  0  0  0  0  0  0  0
   -5.6427   -2.2740    4.6148 H   0  0  0  0  0  0  0  0  0  0  0  0
   -5.6696    4.4836    3.5200 H   0  0  0  0  0  0  0  0  0  0  0  0
   -3.7113    3.9612    2.9255 H   0  0  0  0  0  0  0  0  0  0  0  0
    0.4579    4.3852    0.4518 H   0  0  0  0  0  0  0  0  0  0  0  0
    0.0845    5.2545   -1.8083 H   0  0  0  0  0  0  0  0  0  0  0  0
   -3.1091    4.9593   -3.6358 H   0  0  0  0  0  0  0  0  0  0  0  0
   -1.5597    5.8109   -3.5592 H   0  0  0  0  0  0  0  0  0  0  0  0
   -1.9321    2.8825   -4.3555 H   0  0  0  0  0  0  0  0  0  0  0  0
   -1.5908    4.2165   -5.4631 H   0  0  0  0  0  0  0  0  0  0  0  0
   -0.3849    3.7226   -4.2690 H   0  0  0  0  0  0  0  0  0  0  0  0
   -3.6980    3.2901   -1.9418 H   0  0  0  0  0  0  0  0  0  0  0  0
   -3.3222    2.4034    0.3079 H   0  0  0  0  0  0  0  0  0  0  0  0
    0.9425    2.3197    3.6626 H   0  0  0  0  0  0  0  0  0  0  0  0
    1.9922    3.9301    5.1782 H   0  0  0  0  0  0  0  0  0  0  0  0
    1.8299    6.0698    6.3571 H   0  0  0  0  0  0  0  0  0  0  0  0
    0.7258    7.3300    5.7878 H   0  0  0  0  0  0  0  0  0  0  0  0
    2.2363    7.7767    3.8530 H   0  0  0  0  0  0  0  0  0  0  0  0
    3.0925    7.9777    5.3856 H   0  0  0  0  0  0  0  0  0  0  0  0
    3.3361    6.5193    4.4178 H   0  0  0  0  0  0  0  0  0  0  0  0
   -0.6071    6.9903    3.7434 H   0  0  0  0  0  0  0  0  0  0  0  0
   -1.6517    5.3850    2.2133 H   0  0  0  0  0  0  0  0  0  0  0  0
   -1.1525   -1.7111    2.8434 H   0  0  0  0  0  0  0  0  0  0  0  0
    1.7078   -5.1311    1.1265 H   0  0  0  0  0  0  0  0  0  0  0  0
    0.4560   -6.7817   -0.1838 H   0  0  0  0  0  0  0  0  0  0  0  0
   -1.1540   -7.2058   -1.9781 H   0  0  0  0  0  0  0  0  0  0  0  0
   -2.2702   -5.9385   -2.5054 H   0  0  0  0  0  0  0  0  0  0  0  0
   -2.4648   -7.4811    0.1275 H   0  0  0  0  0  0  0  0  0  0  0  0
   -3.5752   -6.2144   -0.3952 H   0  0  0  0  0  0  0  0  0  0  0  0
   -3.4860   -7.7341   -1.2922 H   0  0  0  0  0  0  0  0  0  0  0  0
   -2.2878   -3.7463   -1.3836 H   0  0  0  0  0  0  0  0  0  0  0  0
   -1.0341   -2.0919   -0.0890 H   0  0  0  0  0  0  0  0  0  0  0  0
   -0.1686   -4.0175    3.1326 H   0  0  0  0  0  0  0  0  0  0  0  0
    0.5054   -4.8483    5.3370 H   0  0  0  0  0  0  0  0  0  0  0  0
    2.3609   -5.4222    6.8439 H   0  0  0  0  0  0  0  0  0  0  0  0
    3.9442   -4.6561    6.6514 H   0  0  0  0  0  0  0  0  0  0  0  0
    2.7854   -3.7969    8.6754 H   0  0  0  0  0  0  0  0  0  0  0  0
    3.0015   -2.5034    7.4909 H   0  0  0  0  0  0  0  0  0  0  0  0
    1.4236   -3.2660    7.6820 H   0  0  0  0  0  0  0  0  0  0  0  0
    4.3239   -3.0116    4.8656 H   0  0  0  0  0  0  0  0  0  0  0  0
    3.6474   -2.1604    2.6720 H   0  0  0  0  0  0  0  0  0  0  0  0
    1.3043    1.9970    0.5308 H   0  0  0  0  0  0  0  0  0  0  0  0
    3.6124   -3.7405   -0.1769 H   0  0  0  0  0  0  0  0  0  0  0  0
    5.7236   -3.5814    0.7282 H   0  0  0  0  0  0  0  0  0  0  0  0
    7.8069   -6.5996    0.7103 H   0  0  0  0  0  0  0  0  0  0  0  0
    7.0324   -5.4815    1.8444 H   0  0  0  0  0  0  0  0  0  0  0  0
    9.4375   -5.8149    2.4057 H   0  0  0  0  0  0  0  0  0  0  0  0
    9.1439   -4.1378    1.9331 H   0  0  0  0  0  0  0  0  0  0  0  0
    9.9007   -5.2562    0.7950 H   0  0  0  0  0  0  0  0  0  0  0  0
    4.3561    1.3917   -5.8921 H   0  0  0  0  0  0  0  0  0  0  0  0
    6.0899    1.5979   -6.1613 H   0  0  0  0  0  0  0  0  0  0  0  0
    4.3604   -0.5381   -7.5088 H   0  0  0  0  0  0  0  0  0  0  0  0
    6.0811   -0.2715   -7.8012 H   0  0  0  0  0  0  0  0  0  0  0  0
    4.9079    0.9630   -8.2585 H   0  0  0  0  0  0  0  0  0  0  0  0
    7.2893   -1.1553   -5.8093 H   0  0  0  0  0  0  0  0  0  0  0  0
    9.2453   -3.9130   -4.0178 H   0  0  0  0  0  0  0  0  0  0  0  0
   10.9078   -3.8549   -9.0777 H   0  0  0  0  0  0  0  0  0  0  0  0
   11.0856   -3.4657  -11.5123 H   0  0  0  0  0  0  0  0  0  0  0  0
   10.0358   -2.8181  -13.6663 H   0  0  0  0  0  0  0  0  0  0  0  0
    6.2754   -2.2972  -11.7177 H   0  0  0  0  0  0  0  0  0  0  0  0
    6.0594   -2.7081   -9.3165 H   0  0  0  0  0  0  0  0  0  0  0  0
  1  2  2  0  0  0  0
  2  3  1  0  0  0  0
  3  4  2  0  0  0  0
  3  5  1  0  0  0  0
  5  6  2  0  0  0  0
  6  7  1  0  0  0  0
  7  8  2  0  0  0  0
  8  9  1  0  0  0  0
  9 10  2  0  0  0  0
 10 11  1  0  0  0  0
 10 12  1  0  0  0  0
 12 13  2  0  0  0  0
 13 14  1  0  0  0  0
 14 15  2  0  0  0  0
 15 16  1  0  0  0  0
 16 17  2  0  0  0  0
 17 18  1  0  0  0  0
 18 19  3  0  0  0  0
 17 20  1  0  0  0  0
 20 21  3  0  0  0  0
  1 22  1  0  0  0  0
 22 23  2  0  0  0  0
 23 24  1  0  0  0  0
 24 25  1  0  0  0  0
 25 26  1  0  0  0  0
 26 27  1  0  0  0  0
 24 28  2  0  0  0  0
 28 29  1  0  0  0  0
 29 30  2  0  0  0  0
 30 31  1  0  0  0  0
 28 32  1  0  0  0  0
 32 33  2  0  0  0  0
 33 34  1  0  0  0  0
 34 35  1  0  0  0  0
 35 36  1  0  0  0  0
 36 37  2  0  0  0  0
 37 38  1  0  0  0  0
 38 39  2  0  0  0  0
 39 40  1  0  0  0  0
 40 41  1  0  0  0  0
 39 42  1  0  0  0  0
 42 43  2  0  0  0  0
 35 44  1  0  0  0  0
 44 45  2  0  0  0  0
 45 46  1  0  0  0  0
 46 47  2  0  0  0  0
 47 48  1  0  0  0  0
 48 49  1  0  0  0  0
 47 50  1  0  0  0  0
 50 51  2  0  0  0  0
 35 52  1  0  0  0  0
 52 53  2  0  0  0  0
 53 54  1  0  0  0  0
 54 55  1  0  0  0  0
 53 56  1  0  0  0  0
 56 57  2  0  0  0  0
 57 58  1  0  0  0  0
 58 59  1  0  0  0  0
 59 60  2  0  0  0  0
 60 61  1  0  0  0  0
 61 62  2  0  0  0  0
 62 63  1  0  0  0  0
 63 64  1  0  0  0  0
 62 65  1  0  0  0  0
 65 66  2  0  0  0  0
 58 67  1  0  0  0  0
 67 68  2  0  0  0  0
 68 69  1  0  0  0  0
 69 70  2  0  0  0  0
 70 71  1  0  0  0  0
 71 72  1  0  0  0  0
 70 73  1  0  0  0  0
 73 74  2  0  0  0  0
 58 75  1  0  0  0  0
 75 76  2  0  0  0  0
 76 77  1  0  0  0  0
 77 78  2  0  0  0  0
 76 79  1  0  0  0  0
 79 80  1  0  0  0  0
 80 81  2  0  0  0  0
 80 82  1  0  0  0  0
 82 83  2  0  0  0  0
 83 84  1  0  0  0  0
 84 85  2  0  0  0  0
 85 86  1  0  0  0  0
 86 87  1  0  0  0  0
 85 88  1  0  0  0  0
 88 89  1  0  0  0  0
 89 90  2  0  0  0  0
 90 91  1  0  0  0  0
 91 92  2  0  0  0  0
 92 93  1  0  0  0  0
 93 94  1  0  0  0  0
 94 95  1  0  0  0  0
 95 96  1  0  0  0  0
 94 97  2  0  0  0  0
 90 98  1  0  0  0  0
 98 99  2  0  0  0  0
 99100  1  0  0  0  0
100101  2  0  0  0  0
100102  1  0  0  0  0
102103  2  0  0  0  0
103104  1  0  0  0  0
104105  2  0  0  0  0
105106  1  0  0  0  0
106107  2  0  0  0  0
107108  1  0  0  0  0
107109  1  0  0  0  0
109110  2  0  0  0  0
110111  1  0  0  0  0
111112  2  0  0  0  0
112113  1  0  0  0  0
113114  2  0  0  0  0
114115  1  0  0  0  0
115116  3  0  0  0  0
114117  1  0  0  0  0
117118  3  0  0  0  0
 16  2  1  0  0  0  0
 30 22  1  0  0  0  0
 55 32  1  0  0  0  0
 77 57  1  0  0  0  0
 92 82  1  0  0  0  0
113 99  1  0  0  0  0
 15  5  1  0  0  0  0
 54 34  2  0  0  0  0
 66 59  1  0  0  0  0
 74 67  1  0  0  0  0
 81 75  1  0  0  0  0
 89 83  1  0  0  0  0
 97 91  1  0  0  0  0
112102  1  0  0  0  0
 13  7  1  0  0  0  0
 43 36  1  0  0  0  0
 51 44  1  0  0  0  0
 78 52  1  0  0  0  0
110104  1  0  0  0  0
  1119  1  0  0  0  0
  6120  1  0  0  0  0
  8121  1  0  0  0  0
  9122  1  0  0  0  0
 12123  1  0  0  0  0
 14124  1  0  0  0  0
 23125  1  0  0  0  0
 26126  1  0  0  0  0
 26127  1  0  0  0  0
 27128  1  0  0  0  0
 27129  1  0  0  0  0
 27130  1  0  0  0  0
 29131  1  0  0  0  0
 33132  1  0  0  0  0
 37133  1  0  0  0  0
 38134  1  0  0  0  0
 40135  1  0  0  0  0
 40136  1  0  0  0  0
 41137  1  0  0  0  0
 41138  1  0  0  0  0
 41139  1  0  0  0  0
 42140  1  0  0  0  0
 43141  1  0  0  0  0
 45142  1  0  0  0  0
 46143  1  0  0  0  0
 48144  1  0  0  0  0
 48145  1  0  0  0  0
 49146  1  0  0  0  0
 49147  1  0  0  0  0
 49148  1  0  0  0  0
 50149  1  0  0  0  0
 51150  1  0  0  0  0
 56151  1  0  0  0  0
 60152  1  0  0  0  0
 61153  1  0  0  0  0
 63154  1  0  0  0  0
 63155  1  0  0  0  0
 64156  1  0  0  0  0
 64157  1  0  0  0  0
 64158  1  0  0  0  0
 65159  1  0  0  0  0
 66160  1  0  0  0  0
 68161  1  0  0  0  0
 69162  1  0  0  0  0
 71163  1  0  0  0  0
 71164  1  0  0  0  0
 72165  1  0  0  0  0
 72166  1  0  0  0  0
 72167  1  0  0  0  0
 73168  1  0  0  0  0
 74169  1  0  0  0  0
 78170  1  0  0  0  0
 81171  1  0  0  0  0
 84172  1  0  0  0  0
 86173  1  0  0  0  0
 86174  1  0  0  0  0
 87175  1  0  0  0  0
 87176  1  0  0  0  0
 87177  1  0  0  0  0
 95178  1  0  0  0  0
 95179  1  0  0  0  0
 96180  1  0  0  0  0
 96181  1  0  0  0  0
 96182  1  0  0  0  0
 97183  1  0  0  0  0
 98184  1  0  0  0  0
103185  1  0  0  0  0
105186  1  0  0  0  0
106187  1  0  0  0  0
109188  1  0  0  0  0
111189  1  0  0  0  0
M  END
