189

C         -9.71010        3.39800        5.44920
C        -10.63200        4.20040        4.86350
C        -11.81250        4.66090        5.64930
O        -12.18710        4.22260        6.71300
C        -12.37740        5.78290        4.87650
C        -13.39330        6.63160        5.21050
C        -13.75020        7.66550        4.31630
C        -14.79450        8.56610        4.61070
C        -15.12780        9.56720        3.74150
C        -14.41240        9.69010        2.54250
F        -14.75460       10.68230        1.70000
C        -13.39210        8.84450        2.20760
C        -13.03680        7.80560        3.08990
C        -11.99340        6.90780        2.76640
C        -11.67440        5.90630        3.64300
C        -10.69090        4.83210        3.55990
C        -10.11960        4.36770        2.40590
C         -9.38590        3.16730        2.32270
N         -8.82930        2.17150        2.19340
C        -10.27740        4.98480        1.14800
N        -10.36530        5.45340        0.10390
C         -8.36770        3.10280        5.03110
C         -7.81390        1.84590        5.31100
C         -6.54850        1.49890        4.88770
O         -5.99580        0.27660        5.07360
C         -6.75130       -0.76480        5.66400
C         -5.89120       -2.01690        5.64140
C         -5.72630        2.43930        4.21260
C         -6.25270        3.71880        4.00490
C         -7.53540        4.02310        4.38350
F         -7.97890        5.28130        4.15760
C         -4.42390        2.08160        3.73990
C         -3.52500        2.91470        3.09050
C         -2.36610        2.28560        2.65120
C         -1.13400        2.75380        1.91490
C         -1.40790        3.33640        0.54330
C         -0.45340        4.13650       -0.07330
C         -0.66710        4.63010       -1.34580
C         -1.83560        4.33820       -2.03770
C         -2.04220        4.83870       -3.43820
C         -1.45000        3.85310       -4.44770
C         -2.78200        3.53130       -1.42140
C         -2.57150        3.03210       -0.14880
C         -0.42230        3.74110        2.82220
C          0.60150        3.34480        3.67030
C          1.19270        4.25550        4.52750
C          0.77140        5.57710        4.56920
C          1.44550        6.57360        5.46790
C          2.60220        7.25670        4.73560
C         -0.26080        5.96660        3.72480
C         -0.85340        5.06180        2.86600
C         -0.38600        1.44320        1.74260
C         -1.07680        0.38790        2.37840
C         -2.27560        0.93080        2.93960
Se        -3.75470        0.31900        3.86380
C         -0.60640       -0.92230        2.34640
C          0.54390       -1.16220        1.63310
C          1.24700       -2.49070        1.39820
C          0.41590       -3.49830        0.62620
C          0.82920       -4.82440        0.57690
C          0.12090       -5.75450       -0.15860
C         -1.01210       -5.38510       -0.87220
C         -1.81020       -6.40500       -1.63200
C         -2.90480       -6.99770       -0.74220
C         -1.41310       -4.05710       -0.82990
C         -0.70660       -3.12110       -0.09640
C          1.69380       -3.03610        2.74100
C          0.81620       -3.78770        3.51280
C          1.19940       -4.26020        4.75330
C          2.46610       -3.99600        5.25830
C          2.86680       -4.48030        6.62210
C          2.49620       -3.44640        7.68730
C          3.33470       -3.23340        4.48990
C          2.95440       -2.75550        3.24920
C          2.38830       -2.05690        0.51450
C          2.33910       -0.69150        0.30120
C          1.22520       -0.10700        0.98200
C          0.77190        1.20740        1.03820
S          3.58500       -0.14780       -0.74590
C          4.18680       -1.78660       -0.89530
C          3.43500       -2.68100       -0.16230
C          5.31490       -2.09890       -1.73400
C          6.24980       -3.08480       -1.35790
C          6.35920       -3.77780       -0.11590
C          7.35950       -4.68530       -0.08260
C          7.77540       -5.56050        1.04790
C          9.15390       -5.16670        1.58060
S          8.23540       -4.75030       -1.59420
C          7.25490       -3.48500       -2.25990
C          7.38120       -2.96940       -3.55520
C          6.53240       -1.88400       -3.87340
C          5.52530       -1.48480       -2.96980
S          4.56510       -0.19700       -3.64450
C          5.56150       -0.13800       -5.06690
C          5.27910        0.86270       -6.13600
C          5.14960        0.21020       -7.51270
C          6.54400       -1.07190       -5.03860
C          8.32730       -3.53650       -4.46120
C          8.24190       -3.65980       -5.81440
C          9.46180       -3.92980       -6.61890
O         10.54790       -4.26840       -6.20530
C          9.07840       -3.63330       -8.01560
C          9.85830       -3.60790       -9.13490
C          9.27720       -3.25110      -10.37320
C         10.03770       -3.21000      -11.55930
C          9.46780       -2.85410      -12.75020
C          8.10570       -2.52680      -12.77860
F          7.56250       -2.17600      -13.95950
C          7.32220       -2.55150      -11.65870
C          7.89210       -2.91950      -10.42450
C          7.10460       -2.96640       -9.25050
C          7.68810       -3.32530       -8.06570
C          7.13210       -3.48410       -6.72530
C          5.80100       -3.63710       -6.43190
C          4.76560       -3.46080       -7.36930
N          3.88230       -3.29190       -8.08390
C          5.31100       -4.07940       -5.18670
N          4.85220       -4.50050       -4.22210
H        -10.02010        2.95340        6.39030
H        -13.91900        6.51660        6.14670
H        -15.33070        8.45160        5.54070
H        -15.92370       10.26400        3.95180
H        -12.86500        8.96650        1.27420
H        -11.46300        7.04060        1.83670
H         -8.43790        1.13020        5.82140
H         -7.67420       -0.92320        5.09200
H         -7.00860       -0.49620        6.69730
H         -6.42600       -2.84320        6.10010
H         -4.96680       -1.83940        6.18520
H         -5.64270       -2.27400        4.61480
H         -5.66960        4.48360        3.52000
H         -3.71130        3.96120        2.92550
H          0.45790        4.38520        0.45180
H          0.08450        5.25450       -1.80830
H         -3.10910        4.95930       -3.63580
H         -1.55970        5.81090       -3.55920
H         -1.93210        2.88250       -4.35550
H         -1.59080        4.21650       -5.46310
H         -0.38490        3.72260       -4.26900
H         -3.69800        3.29010       -1.94180
H         -3.32220        2.40340        0.30790
H          0.94250        2.31970        3.66260
H          1.99220        3.93010        5.17820
H          1.82990        6.06980        6.35710
H          0.72580        7.33000        5.78780
H          2.23630        7.77670        3.85300
H          3.09250        7.97770        5.38560
H          3.33610        6.51930        4.41780
H         -0.60710        6.99030        3.74340
H         -1.65170        5.38500        2.21330
H         -1.15250       -1.71110        2.84340
H          1.70780       -5.13110        1.12650
H          0.45600       -6.78170       -0.18380
H         -1.15400       -7.20580       -1.97810
H         -2.27020       -5.93850       -2.50540
H         -2.46480       -7.48110        0.12750
H         -3.57520       -6.21440       -0.39520
H         -3.48600       -7.73410       -1.29220
H         -2.28780       -3.74630       -1.38360
H         -1.03410       -2.09190       -0.08900
H         -0.16860       -4.01750        3.13260
H          0.50540       -4.84830        5.33700
H          2.36090       -5.42220        6.84390
H          3.94420       -4.65610        6.65140
H          2.78540       -3.79690        8.67540
H          3.00150       -2.50340        7.49090
H          1.42360       -3.26600        7.68200
H          4.32390       -3.01160        4.86560
H          3.64740       -2.16040        2.67200
H          1.30430        1.99700        0.53080
H          3.61240       -3.74050       -0.17690
H          5.72360       -3.58140        0.72820
H          7.80690       -6.59960        0.71030
H          7.03240       -5.48150        1.84440
H          9.43750       -5.81490        2.40570
H          9.14390       -4.13780        1.93310
H          9.90070       -5.25620        0.79500
H          4.35610        1.39170       -5.89210
H          6.08990        1.59790       -6.16130
H          4.36040       -0.53810       -7.50880
H          6.08110       -0.27150       -7.80120
H          4.90790        0.96300       -8.25850
H          7.28930       -1.15530       -5.80930
H          9.24530       -3.91300       -4.01780
H         10.90780       -3.85490       -9.07770
H         11.08560       -3.46570      -11.51230
H         10.03580       -2.81810      -13.66630
H          6.27540       -2.29720      -11.71770
H          6.05940       -2.70810       -9.31650
