172

C          2.31130       -2.57840      -10.68560
C          2.61500       -3.85630      -10.28120
C          2.76890       -4.29130       -8.89070
O          2.68950       -3.60690       -7.88370
C          3.03750       -5.73810       -8.93890
C          3.24080       -6.60570       -7.90580
C          3.47740       -7.96940       -8.18940
C          3.69250       -8.91070       -7.16250
C          3.91900      -10.22800       -7.45050
C          3.93510      -10.63520       -8.79110
F          4.15930      -11.93580       -9.05510
C          3.73250       -9.76360       -9.82490
C          3.49790       -8.40320       -9.54640
C          3.28470       -7.47810      -10.59590
C          3.05750       -6.16160      -10.29770
C          2.80850       -4.99920      -11.14930
C          2.78000       -5.02150      -12.52140
C          2.97820       -6.18260      -13.29670
N          3.12920       -7.08660      -13.98830
C          2.56050       -3.91120      -13.36160
N          2.39720       -3.06060      -14.11700
C          2.09470       -1.41910       -9.93160
C          1.73320       -0.20560      -10.51870
C          1.52860        0.83780       -9.62630
C          1.01240        2.14770      -10.03290
C         -0.05630        2.72710       -9.35470
C         -0.56510        3.94440       -9.76450
C         -0.01340        4.59880      -10.85290
C          1.04220        4.02330      -11.53900
C          1.54800        2.80150      -11.13820
C          1.77790        0.43570       -8.30900
S          2.20320       -1.24060       -8.19800
C          1.71560        1.21420       -7.11880
C          2.00830        2.55390       -6.91460
C          2.63160        3.43770       -7.89790
C          2.21410        4.75890       -8.02490
C          2.82620        5.58860       -8.94410
C          3.85980        5.11640       -9.73250
C          4.30050        3.80450       -9.60800
C          5.45520        3.30290      -10.42660
C          6.77970        3.59680       -9.71960
C          3.68360        2.97720       -8.68420
C          1.73240        2.93650       -5.58720
S          1.86760        4.46030       -4.74100
C          1.30630        3.68400       -3.29910
C          0.97250        4.00850       -1.97390
C          0.88820        5.25310       -1.31160
C          0.34390        5.29840        0.01610
N          0.25730        6.53340        0.48450
S          0.81810        7.55090       -0.64310
N          1.19060        6.45560       -1.77540
C          0.03710        4.08500        0.67030
C         -0.36190        3.81420        1.98830
S         -0.80200        4.66680        3.42830
C         -0.96950        3.13330        4.25380
C         -1.30640        2.79730        5.57650
C         -1.49510        3.78000        6.64080
C         -2.23820        4.93620        6.42230
C         -2.40640        5.84660        7.44730
C         -1.84250        5.61520        8.69020
C         -1.08030        4.47680        8.92000
C         -0.49630        4.18670       10.27340
C         -1.27960        3.07040       10.96750
C         -0.90350        3.57390        7.88400
C         -1.30170        1.41920        5.75790
S         -0.75930        0.55140        4.33550
C         -0.68740        2.03010        3.44110
C         -0.35110        2.42400        2.14130
N          0.01190        1.82730        0.96280
C          0.23020        2.82570        0.03300
C          0.56770        2.79860       -1.34410
N          0.61610        1.77450       -2.27970
C          1.04840        2.32080       -3.46080
C          1.27980        1.89400       -4.77350
S          1.16800        0.41220       -5.65280
C         -0.16170        0.55500       -2.33040
C         -1.65340        0.86280       -2.44200
C          0.43810        0.44670        0.95980
C         -0.74260       -0.52330        0.96280
C         -1.71860        0.64480        6.88790
C         -2.70380        1.02540        7.79270
F         -3.38970        2.16610        7.62310
C         -3.06340        0.22920        8.88300
F         -3.95780        0.73370        9.74180
C         -2.47630       -1.00230        9.13720
C         -1.46970       -1.43080        8.22810
N         -0.86320       -2.61350        8.41950
C          0.01180       -3.04170        7.54150
C          0.63310       -4.37440        7.82820
C         -0.21070       -5.49410        7.21290
C          0.29300       -2.28490        6.37070
N         -0.27160       -1.11490        6.19630
C         -1.13990       -0.64470        7.09920
C          1.25810       -2.71040        5.30710
C          2.65170       -2.15430        5.61170
C         -2.82350       -1.83770       10.25450
C         -4.09030       -2.06920       10.68060
C         -5.30550       -1.79710        9.85880
O         -5.35580       -1.29430        8.75910
C         -6.42460       -2.39930       10.60500
C         -7.74740       -2.42880       10.26900
C         -8.66220       -3.07580       11.12850
C        -10.03990       -3.12970       10.83360
C        -10.91460       -3.76590       11.66960
C        -10.42160       -4.36880       12.83510
F        -11.29760       -4.99180       13.64440
C         -9.09640       -4.34430       13.16950
C         -8.18070       -3.69270       12.32010
C         -6.80400       -3.64910       12.63990
C         -5.93610       -3.00700       11.79600
C         -4.49450       -2.79900       11.86910
C         -3.68160       -3.16310       12.90920
C         -2.29960       -2.88860       12.98820
N         -1.17770       -2.69330       13.13430
C         -4.12660       -3.85250       14.05680
N         -4.42690       -4.42050       15.00790
H          2.20860       -2.41370      -11.75130
H          3.22080       -6.25620       -6.88430
H          3.67540       -8.57250       -6.13730
H          4.08540      -10.96090       -6.67700
H          3.75210      -10.11260      -10.84550
H          3.30630       -7.84100      -11.61070
H          1.58450       -0.11180      -11.58060
H         -0.49580        2.21260       -8.51260
H         -1.39670        4.38390       -9.23350
H         -0.40860        5.55280      -11.16810
H          1.47240        4.52750      -12.39140
H          2.37630        2.35670      -11.66940
H          1.39820        5.12500       -7.42100
H          2.49250        6.61030       -9.04720
H          4.33110        5.77040      -10.45190
H          5.36020        2.22580      -10.57980
H          5.45360        3.78970      -11.40390
H          7.61640        3.23370      -10.31180
H          6.80450        3.11030       -8.74710
H          6.89850        4.66730       -9.56880
H          4.02900        1.95990       -8.56540
H         -2.70220        5.10290        5.46250
H         -2.99090        6.73900        7.27980
H         -1.99340        6.32590        9.48990
H          0.54760        3.88070       10.16860
H         -0.52690        5.08680       10.88970
H         -1.19900        2.14080       10.40730
H         -2.33240        3.33420       11.03850
H         -0.89450        2.90040       11.97010
H         -0.29330        2.69440        8.04210
H          0.16940        0.00930       -3.21750
H          0.03080       -0.07220       -1.46500
H         -1.99310        1.42910       -1.57710
H         -1.84970        1.45150       -3.33510
H         -2.22030       -0.06210       -2.50530
H          1.02360        0.28110        1.87170
H          1.10330        0.28670        0.11010
H         -1.28340       -0.44240        1.90150
H         -0.38160       -1.54330        0.86210
H         -1.43520       -0.31160        0.15340
H          1.65050       -4.41700        7.43990
H          0.66080       -4.50740        8.91020
H         -0.28160       -5.38320        6.13280
H         -1.21580       -5.47010        7.62640
H          0.23430       -6.46070        7.43440
H          1.29810       -3.79630        5.23090
H          0.91230       -2.29820        4.35790
H          3.35110       -2.44920        4.83350
H          3.01880       -2.52500        6.56640
H          2.61500       -1.06870        5.65590
H         -1.98820       -2.34620       10.71740
H         -8.09080       -1.95940        9.35940
H        -10.39510       -2.65770        9.92990
H        -11.97090       -3.81720       11.45850
H         -8.75280       -4.81780       14.07600
H         -6.47030       -4.13020       13.54530
