
  xtb     02222213473D
 energy: -369.794043394321 gnorm: 0.000694886455 xtb: 6.4.1 (unknown)
221245  0     0  0            999 V2000
   -1.3863    1.5489   -9.9286 C   0  0  0  0  0  0  0  0  0  0  0  0
   -0.3479    2.1872   -9.3398 C   0  0  0  0  0  0  0  0  0  0  0  0
    0.7236    2.8241  -10.1561 C   0  0  0  0  0  0  0  0  0  0  0  0
    0.9072    2.6850  -11.3434 O   0  0  0  0  0  0  0  0  0  0  0  0
    1.4687    3.6866   -9.2171 C   0  0  0  0  0  0  0  0  0  0  0  0
    2.4901    4.5565   -9.4723 C   0  0  0  0  0  0  0  0  0  0  0  0
    3.0635    5.2818   -8.4036 C   0  0  0  0  0  0  0  0  0  0  0  0
    4.1339    6.1769   -8.6082 C   0  0  0  0  0  0  0  0  0  0  0  0
    4.6892    6.8630   -7.5640 C   0  0  0  0  0  0  0  0  0  0  0  0
    4.1764    6.6670   -6.2744 C   0  0  0  0  0  0  0  0  0  0  0  0
    4.7393    7.3461   -5.2563 F   0  0  0  0  0  0  0  0  0  0  0  0
    3.1359    5.8182   -6.0210 C   0  0  0  0  0  0  0  0  0  0  0  0
    2.5542    5.1005   -7.0847 C   0  0  0  0  0  0  0  0  0  0  0  0
    1.4909    4.1993   -6.8503 C   0  0  0  0  0  0  0  0  0  0  0  0
    0.9642    3.4934   -7.8987 C   0  0  0  0  0  0  0  0  0  0  0  0
   -0.0694    2.4638   -7.9402 C   0  0  0  0  0  0  0  0  0  0  0  0
   -0.4789    1.7309   -6.8595 C   0  0  0  0  0  0  0  0  0  0  0  0
   -1.2398    0.5444   -6.9143 C   0  0  0  0  0  0  0  0  0  0  0  0
   -1.7699   -0.4725   -6.8573 N   0  0  0  0  0  0  0  0  0  0  0  0
   -0.0689    1.9827   -5.5335 C   0  0  0  0  0  0  0  0  0  0  0  0
    0.2273    2.1226   -4.4329 N   0  0  0  0  0  0  0  0  0  0  0  0
   -2.6298    1.1953   -9.2833 C   0  0  0  0  0  0  0  0  0  0  0  0
   -3.1539   -0.0874   -9.4387 C   0  0  0  0  0  0  0  0  0  0  0  0
   -4.2251   -0.4481   -8.6397 C   0  0  0  0  0  0  0  0  0  0  0  0
   -4.7540   -1.6894   -8.3991 N   0  0  0  0  0  0  0  0  0  0  0  0
   -4.3094   -2.9154   -9.0056 C   0  0  0  0  0  0  0  0  0  0  0  0
   -5.0728   -3.2109  -10.2956 C   0  0  0  0  0  0  0  0  0  0  0  0
   -5.7030   -1.5734   -7.4137 C   0  0  0  0  0  0  0  0  0  0  0  0
   -5.8691   -0.2057   -7.0779 C   0  0  0  0  0  0  0  0  0  0  0  0
   -4.8892    0.5109   -7.8285 C   0  0  0  0  0  0  0  0  0  0  0  0
   -4.4252    1.8209   -7.7782 C   0  0  0  0  0  0  0  0  0  0  0  0
   -3.2731    2.1369   -8.4591 C   0  0  0  0  0  0  0  0  0  0  0  0
   -6.7836    0.1618   -6.0942 C   0  0  0  0  0  0  0  0  0  0  0  0
   -7.4157   -0.8219   -5.3726 C   0  0  0  0  0  0  0  0  0  0  0  0
   -7.1344   -2.1823   -5.6031 C   0  0  0  0  0  0  0  0  0  0  0  0
   -6.3295   -2.5620   -6.6733 C   0  0  0  0  0  0  0  0  0  0  0  0
   -7.4215   -3.1401   -4.5482 C   0  0  0  0  0  0  0  0  0  0  0  0
   -8.4294   -3.1847   -3.6066 C   0  0  0  0  0  0  0  0  0  0  0  0
   -9.7225   -2.5262   -3.7778 C   0  0  0  0  0  0  0  0  0  0  0  0
  -10.2803   -2.3985   -5.0499 C   0  0  0  0  0  0  0  0  0  0  0  0
  -11.5055   -1.7825   -5.2098 C   0  0  0  0  0  0  0  0  0  0  0  0
  -12.1904   -1.2915   -4.1113 C   0  0  0  0  0  0  0  0  0  0  0  0
  -11.6550   -1.4149   -2.8357 C   0  0  0  0  0  0  0  0  0  0  0  0
  -12.3697   -0.8479   -1.6428 C   0  0  0  0  0  0  0  0  0  0  0  0
  -11.9244    0.5937   -1.3890 C   0  0  0  0  0  0  0  0  0  0  0  0
  -10.4222   -2.0305   -2.6818 C   0  0  0  0  0  0  0  0  0  0  0  0
   -8.0378   -3.9470   -2.4743 C   0  0  0  0  0  0  0  0  0  0  0  0
   -8.7262   -4.2163   -0.8821 S   0  0  0  0  0  0  0  0  0  0  0  0
   -7.2210   -4.8973   -0.3430 C   0  0  0  0  0  0  0  0  0  0  0  0
   -6.5487   -5.2110    0.8597 C   0  0  0  0  0  0  0  0  0  0  0  0
   -6.9345   -5.3269    2.2154 C   0  0  0  0  0  0  0  0  0  0  0  0
   -5.9220   -5.5264    3.2280 C   0  0  0  0  0  0  0  0  0  0  0  0
   -6.4418   -5.6458    4.4378 N   0  0  0  0  0  0  0  0  0  0  0  0
   -8.0521   -5.5184    4.3279 S   0  0  0  0  0  0  0  0  0  0  0  0
   -8.1540   -5.2982    2.7259 N   0  0  0  0  0  0  0  0  0  0  0  0
   -4.5556   -5.4413    2.8673 C   0  0  0  0  0  0  0  0  0  0  0  0
   -3.3847   -5.1672    3.6056 C   0  0  0  0  0  0  0  0  0  0  0  0
   -2.8778   -4.9091    5.2471 S   0  0  0  0  0  0  0  0  0  0  0  0
   -1.3523   -4.2671    4.6670 C   0  0  0  0  0  0  0  0  0  0  0  0
   -0.2621   -3.6254    5.2993 C   0  0  0  0  0  0  0  0  0  0  0  0
   -0.1615   -3.4279    6.7459 C   0  0  0  0  0  0  0  0  0  0  0  0
   -1.2618   -2.9651    7.4625 C   0  0  0  0  0  0  0  0  0  0  0  0
   -1.1646   -2.7807    8.8283 C   0  0  0  0  0  0  0  0  0  0  0  0
    0.0237   -3.0449    9.4859 C   0  0  0  0  0  0  0  0  0  0  0  0
    1.1297   -3.5131    8.7870 C   0  0  0  0  0  0  0  0  0  0  0  0
    2.4367   -3.7359    9.4910 C   0  0  0  0  0  0  0  0  0  0  0  0
    3.1776   -2.4059    9.6378 C   0  0  0  0  0  0  0  0  0  0  0  0
    1.0214   -3.7118    7.4198 C   0  0  0  0  0  0  0  0  0  0  0  0
    0.6341   -3.1388    4.3660 C   0  0  0  0  0  0  0  0  0  0  0  0
    0.1876   -3.5530    2.7166 S   0  0  0  0  0  0  0  0  0  0  0  0
   -1.2461   -4.3177    3.2784 C   0  0  0  0  0  0  0  0  0  0  0  0
   -2.3912   -4.8492    2.6766 C   0  0  0  0  0  0  0  0  0  0  0  0
   -2.8585   -4.9920    1.3976 N   0  0  0  0  0  0  0  0  0  0  0  0
   -4.1938   -5.3353    1.4999 C   0  0  0  0  0  0  0  0  0  0  0  0
   -5.1900   -5.4043    0.5027 C   0  0  0  0  0  0  0  0  0  0  0  0
   -5.0560   -5.3488   -0.8709 N   0  0  0  0  0  0  0  0  0  0  0  0
   -6.2814   -4.9916   -1.3712 C   0  0  0  0  0  0  0  0  0  0  0  0
   -6.7532   -4.4731   -2.5805 C   0  0  0  0  0  0  0  0  0  0  0  0
   -6.0285   -4.1142   -4.1003 S   0  0  0  0  0  0  0  0  0  0  0  0
   -4.0968   -6.0785   -1.6710 C   0  0  0  0  0  0  0  0  0  0  0  0
   -4.7559   -7.2606   -2.3811 C   0  0  0  0  0  0  0  0  0  0  0  0
   -2.2030   -4.2694    0.3267 C   0  0  0  0  0  0  0  0  0  0  0  0
   -2.7499   -2.8506    0.1985 C   0  0  0  0  0  0  0  0  0  0  0  0
    1.7062   -2.1878    4.4549 C   0  0  0  0  0  0  0  0  0  0  0  0
    1.7949   -1.0925    3.6159 C   0  0  0  0  0  0  0  0  0  0  0  0
    0.7557   -0.6568    2.7657 N   0  0  0  0  0  0  0  0  0  0  0  0
   -0.0132    0.3788    3.3556 C   0  0  0  0  0  0  0  0  0  0  0  0
   -0.0082    1.6708    2.8376 C   0  0  0  0  0  0  0  0  0  0  0  0
   -0.7526    2.6610    3.4455 C   0  0  0  0  0  0  0  0  0  0  0  0
   -1.5042    2.3994    4.5864 C   0  0  0  0  0  0  0  0  0  0  0  0
   -2.3241    3.4812    5.2213 C   0  0  0  0  0  0  0  0  0  0  0  0
   -1.4818    1.1139    5.1101 C   0  0  0  0  0  0  0  0  0  0  0  0
   -0.7451    0.1116    4.5068 C   0  0  0  0  0  0  0  0  0  0  0  0
    0.8922   -0.7373    1.3817 C   0  0  0  0  0  0  0  0  0  0  0  0
   -0.1545   -0.3195    0.5579 C   0  0  0  0  0  0  0  0  0  0  0  0
   -0.0481   -0.4184   -0.8124 C   0  0  0  0  0  0  0  0  0  0  0  0
    1.0875   -0.9525   -1.4126 C   0  0  0  0  0  0  0  0  0  0  0  0
    1.1872   -1.0201   -2.9063 C   0  0  0  0  0  0  0  0  0  0  0  0
    2.1044   -1.4089   -0.5876 C   0  0  0  0  0  0  0  0  0  0  0  0
    2.0146   -1.3087    0.7886 C   0  0  0  0  0  0  0  0  0  0  0  0
    2.9834   -0.3660    3.8148 C   0  0  0  0  0  0  0  0  0  0  0  0
    3.6101    1.0584    3.0811 S   0  0  0  0  0  0  0  0  0  0  0  0
    5.0751    0.9102    4.0580 C   0  0  0  0  0  0  0  0  0  0  0  0
    4.9809   -0.1519    5.0045 C   0  0  0  0  0  0  0  0  0  0  0  0
    5.9075   -0.4303    5.9700 N   0  0  0  0  0  0  0  0  0  0  0  0
    6.0617   -1.7615    6.4035 C   0  0  0  0  0  0  0  0  0  0  0  0
    6.1098   -2.7969    5.4730 C   0  0  0  0  0  0  0  0  0  0  0  0
    6.2436   -4.1024    5.8977 C   0  0  0  0  0  0  0  0  0  0  0  0
    6.3445   -4.4102    7.2504 C   0  0  0  0  0  0  0  0  0  0  0  0
    6.4922   -5.8329    7.6933 C   0  0  0  0  0  0  0  0  0  0  0  0
    6.3187   -3.3683    8.1681 C   0  0  0  0  0  0  0  0  0  0  0  0
    6.1756   -2.0573    7.7574 C   0  0  0  0  0  0  0  0  0  0  0  0
    6.6251    0.5833    6.6356 C   0  0  0  0  0  0  0  0  0  0  0  0
    7.9405    0.3574    7.0329 C   0  0  0  0  0  0  0  0  0  0  0  0
    8.6421    1.3496    7.6874 C   0  0  0  0  0  0  0  0  0  0  0  0
    8.0623    2.5846    7.9543 C   0  0  0  0  0  0  0  0  0  0  0  0
    8.8534    3.6590    8.6341 C   0  0  0  0  0  0  0  0  0  0  0  0
    6.7430    2.7922    7.5696 C   0  0  0  0  0  0  0  0  0  0  0  0
    6.0238    1.8051    6.9259 C   0  0  0  0  0  0  0  0  0  0  0  0
    3.8037   -0.8919    4.8058 C   0  0  0  0  0  0  0  0  0  0  0  0
    3.0837   -2.3012    5.5311 S   0  0  0  0  0  0  0  0  0  0  0  0
    6.2498    1.6137    3.8170 C   0  0  0  0  0  0  0  0  0  0  0  0
    6.5168    2.6042    2.8899 C   0  0  0  0  0  0  0  0  0  0  0  0
    5.5292    3.2846    2.0542 C   0  0  0  0  0  0  0  0  0  0  0  0
    4.3209    3.1125    2.0283 O   0  0  0  0  0  0  0  0  0  0  0  0
    6.2741    4.2699    1.2524 C   0  0  0  0  0  0  0  0  0  0  0  0
    5.8093    5.1042    0.2793 C   0  0  0  0  0  0  0  0  0  0  0  0
    6.7201    5.9511   -0.3917 C   0  0  0  0  0  0  0  0  0  0  0  0
    6.3029    6.8106   -1.4275 C   0  0  0  0  0  0  0  0  0  0  0  0
    7.1946    7.6204   -2.0749 C   0  0  0  0  0  0  0  0  0  0  0  0
    8.5397    7.5885   -1.6860 C   0  0  0  0  0  0  0  0  0  0  0  0
    9.4065    8.3956   -2.3300 F   0  0  0  0  0  0  0  0  0  0  0  0
    8.9976    6.7726   -0.6887 C   0  0  0  0  0  0  0  0  0  0  0  0
    8.0947    5.9249   -0.0183 C   0  0  0  0  0  0  0  0  0  0  0  0
    8.5444    5.0477    0.9984 C   0  0  0  0  0  0  0  0  0  0  0  0
    7.6474    4.2219    1.6201 C   0  0  0  0  0  0  0  0  0  0  0  0
    7.8134    3.1813    2.6360 C   0  0  0  0  0  0  0  0  0  0  0  0
    9.0176    2.8150    3.1925 C   0  0  0  0  0  0  0  0  0  0  0  0
   10.2341    3.4804    2.9459 C   0  0  0  0  0  0  0  0  0  0  0  0
   11.2577    3.9833    2.8059 N   0  0  0  0  0  0  0  0  0  0  0  0
    9.2291    1.7207    4.0501 C   0  0  0  0  0  0  0  0  0  0  0  0
    9.5013    0.8251    4.7190 N   0  0  0  0  0  0  0  0  0  0  0  0
   -1.2777    1.3239  -10.9845 H   0  0  0  0  0  0  0  0  0  0  0  0
    2.8628    4.6841  -10.4776 H   0  0  0  0  0  0  0  0  0  0  0  0
    4.5136    6.3106   -9.6100 H   0  0  0  0  0  0  0  0  0  0  0  0
    5.5103    7.5478   -7.7046 H   0  0  0  0  0  0  0  0  0  0  0  0
    2.7670    5.6882   -5.0156 H   0  0  0  0  0  0  0  0  0  0  0  0
    1.1168    4.0903   -5.8447 H   0  0  0  0  0  0  0  0  0  0  0  0
   -2.6450   -0.8001  -10.0693 H   0  0  0  0  0  0  0  0  0  0  0  0
   -4.4538   -3.7284   -8.2905 H   0  0  0  0  0  0  0  0  0  0  0  0
   -3.2385   -2.8325   -9.2088 H   0  0  0  0  0  0  0  0  0  0  0  0
   -4.7179   -4.1379  -10.7377 H   0  0  0  0  0  0  0  0  0  0  0  0
   -4.9314   -2.4051  -11.0122 H   0  0  0  0  0  0  0  0  0  0  0  0
   -6.1367   -3.3063  -10.0903 H   0  0  0  0  0  0  0  0  0  0  0  0
   -4.9273    2.5575   -7.1698 H   0  0  0  0  0  0  0  0  0  0  0  0
   -2.8592    3.1330   -8.3915 H   0  0  0  0  0  0  0  0  0  0  0  0
   -6.9504    1.2031   -5.8645 H   0  0  0  0  0  0  0  0  0  0  0  0
   -8.0759   -0.5593   -4.5605 H   0  0  0  0  0  0  0  0  0  0  0  0
   -6.1447   -3.6106   -6.8557 H   0  0  0  0  0  0  0  0  0  0  0  0
   -9.7537   -2.7929   -5.9062 H   0  0  0  0  0  0  0  0  0  0  0  0
  -11.9333   -1.6887   -6.1974 H   0  0  0  0  0  0  0  0  0  0  0  0
  -13.1507   -0.8140   -4.2439 H   0  0  0  0  0  0  0  0  0  0  0  0
  -12.1513   -1.4526   -0.7606 H   0  0  0  0  0  0  0  0  0  0  0  0
  -13.4478   -0.8669   -1.8138 H   0  0  0  0  0  0  0  0  0  0  0  0
  -10.8541    0.6306   -1.1983 H   0  0  0  0  0  0  0  0  0  0  0  0
  -12.4447    1.0068   -0.5279 H   0  0  0  0  0  0  0  0  0  0  0  0
  -12.1392    1.2150   -2.2559 H   0  0  0  0  0  0  0  0  0  0  0  0
   -9.9958   -2.1144   -1.6934 H   0  0  0  0  0  0  0  0  0  0  0  0
   -2.1841   -2.7429    6.9474 H   0  0  0  0  0  0  0  0  0  0  0  0
   -2.0206   -2.4249    9.3826 H   0  0  0  0  0  0  0  0  0  0  0  0
    0.0936   -2.8931   10.5535 H   0  0  0  0  0  0  0  0  0  0  0  0
    2.2586   -4.1625   10.4805 H   0  0  0  0  0  0  0  0  0  0  0  0
    3.0567   -4.4296    8.9204 H   0  0  0  0  0  0  0  0  0  0  0  0
    3.3990   -1.9928    8.6562 H   0  0  0  0  0  0  0  0  0  0  0  0
    4.1128   -2.5471   10.1734 H   0  0  0  0  0  0  0  0  0  0  0  0
    2.5679   -1.6903   10.1849 H   0  0  0  0  0  0  0  0  0  0  0  0
    1.8601   -4.1176    6.8724 H   0  0  0  0  0  0  0  0  0  0  0  0
   -3.3203   -6.4628   -1.0083 H   0  0  0  0  0  0  0  0  0  0  0  0
   -3.6580   -5.4048   -2.4157 H   0  0  0  0  0  0  0  0  0  0  0  0
   -5.2397   -7.9133   -1.6576 H   0  0  0  0  0  0  0  0  0  0  0  0
   -5.4997   -6.9170   -3.0947 H   0  0  0  0  0  0  0  0  0  0  0  0
   -4.0009   -7.8302   -2.9163 H   0  0  0  0  0  0  0  0  0  0  0  0
   -1.1396   -4.2296    0.5754 H   0  0  0  0  0  0  0  0  0  0  0  0
   -2.3066   -4.7929   -0.6199 H   0  0  0  0  0  0  0  0  0  0  0  0
   -2.1952   -2.3132   -0.5649 H   0  0  0  0  0  0  0  0  0  0  0  0
   -2.6395   -2.3190    1.1406 H   0  0  0  0  0  0  0  0  0  0  0  0
   -3.8033   -2.8688   -0.0723 H   0  0  0  0  0  0  0  0  0  0  0  0
    0.5898    1.8935    1.9666 H   0  0  0  0  0  0  0  0  0  0  0  0
   -0.7390    3.6605    3.0352 H   0  0  0  0  0  0  0  0  0  0  0  0
   -3.2502    3.6238    4.6633 H   0  0  0  0  0  0  0  0  0  0  0  0
   -2.5813    3.2248    6.2460 H   0  0  0  0  0  0  0  0  0  0  0  0
   -1.7845    4.4261    5.2178 H   0  0  0  0  0  0  0  0  0  0  0  0
   -2.0478    0.8886    6.0028 H   0  0  0  0  0  0  0  0  0  0  0  0
   -0.7358   -0.8808    4.9323 H   0  0  0  0  0  0  0  0  0  0  0  0
   -1.0498    0.0901    1.0014 H   0  0  0  0  0  0  0  0  0  0  0  0
   -0.8588   -0.0676   -1.4356 H   0  0  0  0  0  0  0  0  0  0  0  0
    2.1506   -1.4181   -3.2156 H   0  0  0  0  0  0  0  0  0  0  0  0
    1.0645   -0.0259   -3.3358 H   0  0  0  0  0  0  0  0  0  0  0  0
    0.4009   -1.6539   -3.3170 H   0  0  0  0  0  0  0  0  0  0  0  0
    2.9931   -1.8427   -1.0244 H   0  0  0  0  0  0  0  0  0  0  0  0
    2.8243   -1.6716    1.4044 H   0  0  0  0  0  0  0  0  0  0  0  0
    6.0500   -2.5694    4.4187 H   0  0  0  0  0  0  0  0  0  0  0  0
    6.2773   -4.8977    5.1675 H   0  0  0  0  0  0  0  0  0  0  0  0
    5.7218   -6.4556    7.2414 H   0  0  0  0  0  0  0  0  0  0  0  0
    7.4602   -6.2255    7.3825 H   0  0  0  0  0  0  0  0  0  0  0  0
    6.4195   -5.9144    8.7747 H   0  0  0  0  0  0  0  0  0  0  0  0
    6.4048   -3.5853    9.2228 H   0  0  0  0  0  0  0  0  0  0  0  0
    6.1454   -1.2577    8.4824 H   0  0  0  0  0  0  0  0  0  0  0  0
    8.4110   -0.5878    6.8138 H   0  0  0  0  0  0  0  0  0  0  0  0
    9.6656    1.1679    7.9778 H   0  0  0  0  0  0  0  0  0  0  0  0
    9.2777    3.2895    9.5663 H   0  0  0  0  0  0  0  0  0  0  0  0
    9.6792    3.9750    7.9972 H   0  0  0  0  0  0  0  0  0  0  0  0
    8.2327    4.5248    8.8505 H   0  0  0  0  0  0  0  0  0  0  0  0
    6.2657    3.7380    7.7823 H   0  0  0  0  0  0  0  0  0  0  0  0
    4.9964    1.9796    6.6411 H   0  0  0  0  0  0  0  0  0  0  0  0
    7.0880    1.3019    4.4269 H   0  0  0  0  0  0  0  0  0  0  0  0
    4.7623    5.1094    0.0158 H   0  0  0  0  0  0  0  0  0  0  0  0
    5.2610    6.8177   -1.7100 H   0  0  0  0  0  0  0  0  0  0  0  0
    6.8889    8.2753   -2.8751 H   0  0  0  0  0  0  0  0  0  0  0  0
   10.0425    6.7726   -0.4195 H   0  0  0  0  0  0  0  0  0  0  0  0
    9.5929    5.0483    1.2493 H   0  0  0  0  0  0  0  0  0  0  0  0
  1  2  2  0  0  0  0
  2  3  1  0  0  0  0
  3  4  2  0  0  0  0
  3  5  1  0  0  0  0
  5  6  2  0  0  0  0
  6  7  1  0  0  0  0
  7  8  2  0  0  0  0
  8  9  1  0  0  0  0
  9 10  2  0  0  0  0
 10 11  1  0  0  0  0
 10 12  1  0  0  0  0
 12 13  2  0  0  0  0
 13 14  1  0  0  0  0
 14 15  2  0  0  0  0
 15 16  1  0  0  0  0
 16 17  2  0  0  0  0
 17 18  1  0  0  0  0
 18 19  3  0  0  0  0
 17 20  1  0  0  0  0
 20 21  3  0  0  0  0
  1 22  1  0  0  0  0
 22 23  2  0  0  0  0
 23 24  1  0  0  0  0
 24 25  1  0  0  0  0
 25 26  1  0  0  0  0
 26 27  1  0  0  0  0
 25 28  1  0  0  0  0
 28 29  2  0  0  0  0
 29 30  1  0  0  0  0
 30 31  1  0  0  0  0
 31 32  2  0  0  0  0
 29 33  1  0  0  0  0
 33 34  2  0  0  0  0
 34 35  1  0  0  0  0
 35 36  2  0  0  0  0
 35 37  1  0  0  0  0
 37 38  2  0  0  0  0
 38 39  1  0  0  0  0
 39 40  2  0  0  0  0
 40 41  1  0  0  0  0
 41 42  2  0  0  0  0
 42 43  1  0  0  0  0
 43 44  1  0  0  0  0
 44 45  1  0  0  0  0
 43 46  2  0  0  0  0
 38 47  1  0  0  0  0
 47 48  1  0  0  0  0
 48 49  1  0  0  0  0
 49 50  1  0  0  0  0
 50 51  1  0  0  0  0
 51 52  1  0  0  0  0
 52 53  2  0  0  0  0
 53 54  1  0  0  0  0
 54 55  1  0  0  0  0
 52 56  1  0  0  0  0
 56 57  1  0  0  0  0
 57 58  1  0  0  0  0
 58 59  1  0  0  0  0
 59 60  1  0  0  0  0
 60 61  1  0  0  0  0
 61 62  2  0  0  0  0
 62 63  1  0  0  0  0
 63 64  2  0  0  0  0
 64 65  1  0  0  0  0
 65 66  1  0  0  0  0
 66 67  1  0  0  0  0
 65 68  2  0  0  0  0
 60 69  2  0  0  0  0
 69 70  1  0  0  0  0
 70 71  1  0  0  0  0
 71 72  1  0  0  0  0
 72 73  1  0  0  0  0
 73 74  1  0  0  0  0
 74 75  1  0  0  0  0
 75 76  1  0  0  0  0
 76 77  1  0  0  0  0
 77 78  1  0  0  0  0
 78 79  1  0  0  0  0
 76 80  1  0  0  0  0
 80 81  1  0  0  0  0
 73 82  1  0  0  0  0
 82 83  1  0  0  0  0
 69 84  1  0  0  0  0
 84 85  2  0  0  0  0
 85 86  1  0  0  0  0
 86 87  1  0  0  0  0
 87 88  2  0  0  0  0
 88 89  1  0  0  0  0
 89 90  2  0  0  0  0
 90 91  1  0  0  0  0
 90 92  1  0  0  0  0
 92 93  2  0  0  0  0
 86 94  1  0  0  0  0
 94 95  2  0  0  0  0
 95 96  1  0  0  0  0
 96 97  2  0  0  0  0
 97 98  1  0  0  0  0
 97 99  1  0  0  0  0
 99100  2  0  0  0  0
 85101  1  0  0  0  0
101102  1  0  0  0  0
102103  1  0  0  0  0
103104  2  0  0  0  0
104105  1  0  0  0  0
105106  1  0  0  0  0
106107  2  0  0  0  0
107108  1  0  0  0  0
108109  2  0  0  0  0
109110  1  0  0  0  0
109111  1  0  0  0  0
111112  2  0  0  0  0
105113  1  0  0  0  0
113114  2  0  0  0  0
114115  1  0  0  0  0
115116  2  0  0  0  0
116117  1  0  0  0  0
116118  1  0  0  0  0
118119  2  0  0  0  0
104120  1  0  0  0  0
120121  1  0  0  0  0
103122  1  0  0  0  0
122123  2  0  0  0  0
123124  1  0  0  0  0
124125  2  0  0  0  0
124126  1  0  0  0  0
126127  2  0  0  0  0
127128  1  0  0  0  0
128129  2  0  0  0  0
129130  1  0  0  0  0
130131  2  0  0  0  0
131132  1  0  0  0  0
131133  1  0  0  0  0
133134  2  0  0  0  0
134135  1  0  0  0  0
135136  2  0  0  0  0
136137  1  0  0  0  0
137138  2  0  0  0  0
138139  1  0  0  0  0
139140  3  0  0  0  0
138141  1  0  0  0  0
141142  3  0  0  0  0
 16  2  1  0  0  0  0
 32 22  1  0  0  0  0
 79 37  1  0  0  0  0
121 84  1  0  0  0  0
137123  1  0  0  0  0
 15  5  1  0  0  0  0
 30 24  2  0  0  0  0
 46 39  1  0  0  0  0
 78 47  2  0  0  0  0
 93 87  1  0  0  0  0
100 94  1  0  0  0  0
120101  2  0  0  0  0
136126  1  0  0  0  0
 13  7  1  0  0  0  0
 36 28  1  0  0  0  0
 77 49  2  0  0  0  0
112106  1  0  0  0  0
119113  1  0  0  0  0
134128  1  0  0  0  0
 75 50  2  0  0  0  0
 55 51  2  0  0  0  0
 74 56  2  0  0  0  0
 72 57  2  0  0  0  0
 71 59  2  0  0  0  0
 68 61  1  0  0  0  0
  1143  1  0  0  0  0
  6144  1  0  0  0  0
  8145  1  0  0  0  0
  9146  1  0  0  0  0
 12147  1  0  0  0  0
 14148  1  0  0  0  0
 23149  1  0  0  0  0
 26150  1  0  0  0  0
 26151  1  0  0  0  0
 27152  1  0  0  0  0
 27153  1  0  0  0  0
 27154  1  0  0  0  0
 31155  1  0  0  0  0
 32156  1  0  0  0  0
 33157  1  0  0  0  0
 34158  1  0  0  0  0
 36159  1  0  0  0  0
 40160  1  0  0  0  0
 41161  1  0  0  0  0
 42162  1  0  0  0  0
 44163  1  0  0  0  0
 44164  1  0  0  0  0
 45165  1  0  0  0  0
 45166  1  0  0  0  0
 45167  1  0  0  0  0
 46168  1  0  0  0  0
 62169  1  0  0  0  0
 63170  1  0  0  0  0
 64171  1  0  0  0  0
 66172  1  0  0  0  0
 66173  1  0  0  0  0
 67174  1  0  0  0  0
 67175  1  0  0  0  0
 67176  1  0  0  0  0
 68177  1  0  0  0  0
 80178  1  0  0  0  0
 80179  1  0  0  0  0
 81180  1  0  0  0  0
 81181  1  0  0  0  0
 81182  1  0  0  0  0
 82183  1  0  0  0  0
 82184  1  0  0  0  0
 83185  1  0  0  0  0
 83186  1  0  0  0  0
 83187  1  0  0  0  0
 88188  1  0  0  0  0
 89189  1  0  0  0  0
 91190  1  0  0  0  0
 91191  1  0  0  0  0
 91192  1  0  0  0  0
 92193  1  0  0  0  0
 93194  1  0  0  0  0
 95195  1  0  0  0  0
 96196  1  0  0  0  0
 98197  1  0  0  0  0
 98198  1  0  0  0  0
 98199  1  0  0  0  0
 99200  1  0  0  0  0
100201  1  0  0  0  0
107202  1  0  0  0  0
108203  1  0  0  0  0
110204  1  0  0  0  0
110205  1  0  0  0  0
110206  1  0  0  0  0
111207  1  0  0  0  0
112208  1  0  0  0  0
114209  1  0  0  0  0
115210  1  0  0  0  0
117211  1  0  0  0  0
117212  1  0  0  0  0
117213  1  0  0  0  0
118214  1  0  0  0  0
119215  1  0  0  0  0
122216  1  0  0  0  0
127217  1  0  0  0  0
129218  1  0  0  0  0
130219  1  0  0  0  0
133220  1  0  0  0  0
135221  1  0  0  0  0
M  END
