221

C         -1.38630        1.54890       -9.92860
C         -0.34790        2.18720       -9.33980
C          0.72360        2.82410      -10.15610
O          0.90720        2.68500      -11.34340
C          1.46870        3.68660       -9.21710
C          2.49010        4.55650       -9.47230
C          3.06350        5.28180       -8.40360
C          4.13390        6.17690       -8.60820
C          4.68920        6.86300       -7.56400
C          4.17640        6.66700       -6.27440
F          4.73930        7.34610       -5.25630
C          3.13590        5.81820       -6.02100
C          2.55420        5.10050       -7.08470
C          1.49090        4.19930       -6.85030
C          0.96420        3.49340       -7.89870
C         -0.06940        2.46380       -7.94020
C         -0.47890        1.73090       -6.85950
C         -1.23980        0.54440       -6.91430
N         -1.76990       -0.47250       -6.85730
C         -0.06890        1.98270       -5.53350
N          0.22730        2.12260       -4.43290
C         -2.62980        1.19530       -9.28330
C         -3.15390       -0.08740       -9.43870
C         -4.22510       -0.44810       -8.63970
N         -4.75400       -1.68940       -8.39910
C         -4.30940       -2.91540       -9.00560
C         -5.07280       -3.21090      -10.29560
C         -5.70300       -1.57340       -7.41370
C         -5.86910       -0.20570       -7.07790
C         -4.88920        0.51090       -7.82850
C         -4.42520        1.82090       -7.77820
C         -3.27310        2.13690       -8.45910
C         -6.78360        0.16180       -6.09420
C         -7.41570       -0.82190       -5.37260
C         -7.13440       -2.18230       -5.60310
C         -6.32950       -2.56200       -6.67330
C         -7.42150       -3.14010       -4.54820
C         -8.42940       -3.18470       -3.60660
C         -9.72250       -2.52620       -3.77780
C        -10.28030       -2.39850       -5.04990
C        -11.50550       -1.78250       -5.20980
C        -12.19040       -1.29150       -4.11130
C        -11.65500       -1.41490       -2.83570
C        -12.36970       -0.84790       -1.64280
C        -11.92440        0.59370       -1.38900
C        -10.42220       -2.03050       -2.68180
C         -8.03780       -3.94700       -2.47430
S         -8.72620       -4.21630       -0.88210
C         -7.22100       -4.89730       -0.34300
C         -6.54870       -5.21100        0.85970
C         -6.93450       -5.32690        2.21540
C         -5.92200       -5.52640        3.22800
N         -6.44180       -5.64580        4.43780
S         -8.05210       -5.51840        4.32790
N         -8.15400       -5.29820        2.72590
C         -4.55560       -5.44130        2.86730
C         -3.38470       -5.16720        3.60560
S         -2.87780       -4.90910        5.24710
C         -1.35230       -4.26710        4.66700
C         -0.26210       -3.62540        5.29930
C         -0.16150       -3.42790        6.74590
C         -1.26180       -2.96510        7.46250
C         -1.16460       -2.78070        8.82830
C          0.02370       -3.04490        9.48590
C          1.12970       -3.51310        8.78700
C          2.43670       -3.73590        9.49100
C          3.17760       -2.40590        9.63780
C          1.02140       -3.71180        7.41980
C          0.63410       -3.13880        4.36600
S          0.18760       -3.55300        2.71660
C         -1.24610       -4.31770        3.27840
C         -2.39120       -4.84920        2.67660
N         -2.85850       -4.99200        1.39760
C         -4.19380       -5.33530        1.49990
C         -5.19000       -5.40430        0.50270
N         -5.05600       -5.34880       -0.87090
C         -6.28140       -4.99160       -1.37120
C         -6.75320       -4.47310       -2.58050
S         -6.02850       -4.11420       -4.10030
C         -4.09680       -6.07850       -1.67100
C         -4.75590       -7.26060       -2.38110
C         -2.20300       -4.26940        0.32670
C         -2.74990       -2.85060        0.19850
C          1.70620       -2.18780        4.45490
C          1.79490       -1.09250        3.61590
N          0.75570       -0.65680        2.76570
C         -0.01320        0.37880        3.35560
C         -0.00820        1.67080        2.83760
C         -0.75260        2.66100        3.44550
C         -1.50420        2.39940        4.58640
C         -2.32410        3.48120        5.22130
C         -1.48180        1.11390        5.11010
C         -0.74510        0.11160        4.50680
C          0.89220       -0.73730        1.38170
C         -0.15450       -0.31950        0.55790
C         -0.04810       -0.41840       -0.81240
C          1.08750       -0.95250       -1.41260
C          1.18720       -1.02010       -2.90630
C          2.10440       -1.40890       -0.58760
C          2.01460       -1.30870        0.78860
C          2.98340       -0.36600        3.81480
S          3.61010        1.05840        3.08110
C          5.07510        0.91020        4.05800
C          4.98090       -0.15190        5.00450
N          5.90750       -0.43030        5.97000
C          6.06170       -1.76150        6.40350
C          6.10980       -2.79690        5.47300
C          6.24360       -4.10240        5.89770
C          6.34450       -4.41020        7.25040
C          6.49220       -5.83290        7.69330
C          6.31870       -3.36830        8.16810
C          6.17560       -2.05730        7.75740
C          6.62510        0.58330        6.63560
C          7.94050        0.35740        7.03290
C          8.64210        1.34960        7.68740
C          8.06230        2.58460        7.95430
C          8.85340        3.65900        8.63410
C          6.74300        2.79220        7.56960
C          6.02380        1.80510        6.92590
C          3.80370       -0.89190        4.80580
S          3.08370       -2.30120        5.53110
C          6.24980        1.61370        3.81700
C          6.51680        2.60420        2.88990
C          5.52920        3.28460        2.05420
O          4.32090        3.11250        2.02830
C          6.27410        4.26990        1.25240
C          5.80930        5.10420        0.27930
C          6.72010        5.95110       -0.39170
C          6.30290        6.81060       -1.42750
C          7.19460        7.62040       -2.07490
C          8.53970        7.58850       -1.68600
F          9.40650        8.39560       -2.33000
C          8.99760        6.77260       -0.68870
C          8.09470        5.92490       -0.01830
C          8.54440        5.04770        0.99840
C          7.64740        4.22190        1.62010
C          7.81340        3.18130        2.63600
C          9.01760        2.81500        3.19250
C         10.23410        3.48040        2.94590
N         11.25770        3.98330        2.80590
C          9.22910        1.72070        4.05010
N          9.50130        0.82510        4.71900
H         -1.27770        1.32390      -10.98450
H          2.86280        4.68410      -10.47760
H          4.51360        6.31060       -9.61000
H          5.51030        7.54780       -7.70460
H          2.76700        5.68820       -5.01560
H          1.11680        4.09030       -5.84470
H         -2.64500       -0.80010      -10.06930
H         -4.45380       -3.72840       -8.29050
H         -3.23850       -2.83250       -9.20880
H         -4.71790       -4.13790      -10.73770
H         -4.93140       -2.40510      -11.01220
H         -6.13670       -3.30630      -10.09030
H         -4.92730        2.55750       -7.16980
H         -2.85920        3.13300       -8.39150
H         -6.95040        1.20310       -5.86450
H         -8.07590       -0.55930       -4.56050
H         -6.14470       -3.61060       -6.85570
H         -9.75370       -2.79290       -5.90620
H        -11.93330       -1.68870       -6.19740
H        -13.15070       -0.81400       -4.24390
H        -12.15130       -1.45260       -0.76060
H        -13.44780       -0.86690       -1.81380
H        -10.85410        0.63060       -1.19830
H        -12.44470        1.00680       -0.52790
H        -12.13920        1.21500       -2.25590
H         -9.99580       -2.11440       -1.69340
H         -2.18410       -2.74290        6.94740
H         -2.02060       -2.42490        9.38260
H          0.09360       -2.89310       10.55350
H          2.25860       -4.16250       10.48050
H          3.05670       -4.42960        8.92040
H          3.39900       -1.99280        8.65620
H          4.11280       -2.54710       10.17340
H          2.56790       -1.69030       10.18490
H          1.86010       -4.11760        6.87240
H         -3.32030       -6.46280       -1.00830
H         -3.65800       -5.40480       -2.41570
H         -5.23970       -7.91330       -1.65760
H         -5.49970       -6.91700       -3.09470
H         -4.00090       -7.83020       -2.91630
H         -1.13960       -4.22960        0.57540
H         -2.30660       -4.79290       -0.61990
H         -2.19520       -2.31320       -0.56490
H         -2.63950       -2.31900        1.14060
H         -3.80330       -2.86880       -0.07230
H          0.58980        1.89350        1.96660
H         -0.73900        3.66050        3.03520
H         -3.25020        3.62380        4.66330
H         -2.58130        3.22480        6.24600
H         -1.78450        4.42610        5.21780
H         -2.04780        0.88860        6.00280
H         -0.73580       -0.88080        4.93230
H         -1.04980        0.09010        1.00140
H         -0.85880       -0.06760       -1.43560
H          2.15060       -1.41810       -3.21560
H          1.06450       -0.02590       -3.33580
H          0.40090       -1.65390       -3.31700
H          2.99310       -1.84270       -1.02440
H          2.82430       -1.67160        1.40440
H          6.05000       -2.56940        4.41870
H          6.27730       -4.89770        5.16750
H          5.72180       -6.45560        7.24140
H          7.46020       -6.22550        7.38250
H          6.41950       -5.91440        8.77470
H          6.40480       -3.58530        9.22280
H          6.14540       -1.25770        8.48240
H          8.41100       -0.58780        6.81380
H          9.66560        1.16790        7.97780
H          9.27770        3.28950        9.56630
H          9.67920        3.97500        7.99720
H          8.23270        4.52480        8.85050
H          6.26570        3.73800        7.78230
H          4.99640        1.97960        6.64110
H          7.08800        1.30190        4.42690
H          4.76230        5.10940        0.01580
H          5.26100        6.81770       -1.71000
H          6.88890        8.27530       -2.87510
H         10.04250        6.77260       -0.41950
H          9.59290        5.04830        1.24930
