
  xtb     02112203423D
 energy: -348.014460081110 gnorm: 0.000517113734 xtb: 6.4.1 (unknown)
181202  0     0  0            999 V2000
  -11.7585    5.2607    5.5981 C   0  0  0  0  0  0  0  0  0  0  0  0
  -11.9829    6.1520    4.6079 C   0  0  0  0  0  0  0  0  0  0  0  0
  -11.2083    6.1849    3.3273 C   0  0  0  0  0  0  0  0  0  0  0  0
  -10.2465    5.5127    3.0352 O   0  0  0  0  0  0  0  0  0  0  0  0
  -11.9396    7.1176    2.4556 C   0  0  0  0  0  0  0  0  0  0  0  0
  -11.6506    7.4765    1.1697 C   0  0  0  0  0  0  0  0  0  0  0  0
  -12.4972    8.3874    0.5017 C   0  0  0  0  0  0  0  0  0  0  0  0
  -12.2396    8.7988   -0.8224 C   0  0  0  0  0  0  0  0  0  0  0  0
  -13.0702    9.6769   -1.4606 C   0  0  0  0  0  0  0  0  0  0  0  0
  -14.1917   10.1691   -0.7779 C   0  0  0  0  0  0  0  0  0  0  0  0
  -14.9967   11.0307   -1.4229 F   0  0  0  0  0  0  0  0  0  0  0  0
  -14.4871    9.8040    0.5061 C   0  0  0  0  0  0  0  0  0  0  0  0
  -13.6414    8.9014    1.1803 C   0  0  0  0  0  0  0  0  0  0  0  0
  -13.9176    8.5096    2.5103 C   0  0  0  0  0  0  0  0  0  0  0  0
  -13.0747    7.6340    3.1439 C   0  0  0  0  0  0  0  0  0  0  0  0
  -13.0991    7.0792    4.4909 C   0  0  0  0  0  0  0  0  0  0  0  0
  -13.9557    7.4338    5.4960 C   0  0  0  0  0  0  0  0  0  0  0  0
  -13.8844    6.9451    6.8191 C   0  0  0  0  0  0  0  0  0  0  0  0
  -13.8678    6.6044    7.9149 N   0  0  0  0  0  0  0  0  0  0  0  0
  -15.0055    8.3659    5.3472 C   0  0  0  0  0  0  0  0  0  0  0  0
  -15.8770    9.1094    5.2822 N   0  0  0  0  0  0  0  0  0  0  0  0
  -10.5592    4.4553    5.7030 C   0  0  0  0  0  0  0  0  0  0  0  0
  -10.6395    3.0933    6.0133 C   0  0  0  0  0  0  0  0  0  0  0  0
  -11.8511    2.5396    6.1569 F   0  0  0  0  0  0  0  0  0  0  0  0
   -9.5131    2.2999    6.1161 C   0  0  0  0  0  0  0  0  0  0  0  0
   -9.6665    0.9853    6.3196 F   0  0  0  0  0  0  0  0  0  0  0  0
   -8.2250    2.8376    5.9727 C   0  0  0  0  0  0  0  0  0  0  0  0
   -8.1475    4.2053    5.6750 C   0  0  0  0  0  0  0  0  0  0  0  0
   -6.9401    4.7785    5.5602 F   0  0  0  0  0  0  0  0  0  0  0  0
   -9.2763    4.9924    5.5436 C   0  0  0  0  0  0  0  0  0  0  0  0
   -9.1311    6.3072    5.3528 F   0  0  0  0  0  0  0  0  0  0  0  0
   -7.0422    2.0198    6.1186 C   0  0  0  0  0  0  0  0  0  0  0  0
   -6.8094    1.0416    7.0695 C   0  0  0  0  0  0  0  0  0  0  0  0
   -7.6788    0.7991    8.2193 C   0  0  0  0  0  0  0  0  0  0  0  0
   -7.9538   -0.4987    8.6398 C   0  0  0  0  0  0  0  0  0  0  0  0
   -8.8112   -0.7063    9.7028 C   0  0  0  0  0  0  0  0  0  0  0  0
   -9.4001    0.3668   10.3495 C   0  0  0  0  0  0  0  0  0  0  0  0
   -9.1183    1.6696    9.9585 C   0  0  0  0  0  0  0  0  0  0  0  0
   -9.7717    2.8465   10.6258 C   0  0  0  0  0  0  0  0  0  0  0  0
  -10.8248    3.4731    9.7094 C   0  0  0  0  0  0  0  0  0  0  0  0
   -8.2470    1.8721    8.8996 C   0  0  0  0  0  0  0  0  0  0  0  0
   -5.5868    0.3853    6.8268 C   0  0  0  0  0  0  0  0  0  0  0  0
   -4.7445   -0.9103    7.6429 S   0  0  0  0  0  0  0  0  0  0  0  0
   -3.4715   -0.7899    6.4761 C   0  0  0  0  0  0  0  0  0  0  0  0
   -2.2363   -1.3908    6.1747 C   0  0  0  0  0  0  0  0  0  0  0  0
   -1.4709   -2.3686    6.8475 C   0  0  0  0  0  0  0  0  0  0  0  0
   -0.1857   -2.7335    6.3185 C   0  0  0  0  0  0  0  0  0  0  0  0
    0.4392   -3.6194    7.0778 N   0  0  0  0  0  0  0  0  0  0  0  0
   -0.5059   -3.9691    8.3445 S   0  0  0  0  0  0  0  0  0  0  0  0
   -1.7515   -3.0041    7.9742 N   0  0  0  0  0  0  0  0  0  0  0  0
    0.2176   -2.2042    5.0721 C   0  0  0  0  0  0  0  0  0  0  0  0
    1.2865   -2.5313    4.2224 C   0  0  0  0  0  0  0  0  0  0  0  0
    2.6742   -3.5661    4.2029 S   0  0  0  0  0  0  0  0  0  0  0  0
    2.9795   -3.0837    2.5512 C   0  0  0  0  0  0  0  0  0  0  0  0
    3.9533   -3.4791    1.6135 C   0  0  0  0  0  0  0  0  0  0  0  0
    4.9544   -4.5072    1.9143 C   0  0  0  0  0  0  0  0  0  0  0  0
    5.7176   -4.4124    3.0738 C   0  0  0  0  0  0  0  0  0  0  0  0
    6.6146   -5.4153    3.3910 C   0  0  0  0  0  0  0  0  0  0  0  0
    6.7430   -6.5209    2.5696 C   0  0  0  0  0  0  0  0  0  0  0  0
    5.9860   -6.6342    1.4095 C   0  0  0  0  0  0  0  0  0  0  0  0
    6.0784   -7.8606    0.5490 C   0  0  0  0  0  0  0  0  0  0  0  0
    5.0436   -8.8984    0.9878 C   0  0  0  0  0  0  0  0  0  0  0  0
    5.0966   -5.6197    1.0909 C   0  0  0  0  0  0  0  0  0  0  0  0
    3.7668   -2.8346    0.4023 C   0  0  0  0  0  0  0  0  0  0  0  0
    2.3756   -1.7631    0.4161 S   0  0  0  0  0  0  0  0  0  0  0  0
    2.0467   -2.1652    2.0618 C   0  0  0  0  0  0  0  0  0  0  0  0
    1.0834   -1.8391    3.0241 C   0  0  0  0  0  0  0  0  0  0  0  0
   -0.0492   -1.0744    3.1121 N   0  0  0  0  0  0  0  0  0  0  0  0
   -0.5912   -1.2692    4.3682 C   0  0  0  0  0  0  0  0  0  0  0  0
   -1.7554   -0.7594    4.9949 C   0  0  0  0  0  0  0  0  0  0  0  0
   -2.6442    0.2370    4.6247 N   0  0  0  0  0  0  0  0  0  0  0  0
   -3.6862    0.2027    5.5168 C   0  0  0  0  0  0  0  0  0  0  0  0
   -4.8936    0.8799    5.7185 C   0  0  0  0  0  0  0  0  0  0  0  0
   -5.7433    2.1701    4.9533 S   0  0  0  0  0  0  0  0  0  0  0  0
   -2.3583    1.4817    3.9423 C   0  0  0  0  0  0  0  0  0  0  0  0
   -2.0246    2.5938    4.9367 C   0  0  0  0  0  0  0  0  0  0  0  0
   -0.6517   -0.5242    1.9180 C   0  0  0  0  0  0  0  0  0  0  0  0
    0.0842    0.7199    1.4199 C   0  0  0  0  0  0  0  0  0  0  0  0
    4.5604   -2.8706   -0.7792 C   0  0  0  0  0  0  0  0  0  0  0  0
    5.8490   -3.3015   -0.9362 C   0  0  0  0  0  0  0  0  0  0  0  0
    6.3337   -3.1617   -2.2555 C   0  0  0  0  0  0  0  0  0  0  0  0
    7.5945   -3.5320   -2.7576 C   0  0  0  0  0  0  0  0  0  0  0  0
    8.5893   -4.1555   -1.9005 C   0  0  0  0  0  0  0  0  0  0  0  0
    8.2083   -5.5751   -0.9710 S   0  0  0  0  0  0  0  0  0  0  0  0
    9.8028   -5.6640   -0.3057 C   0  0  0  0  0  0  0  0  0  0  0  0
   10.1818   -6.7614    0.6252 C   0  0  0  0  0  0  0  0  0  0  0  0
   10.3212   -8.0922   -0.1163 C   0  0  0  0  0  0  0  0  0  0  0  0
   10.5750   -4.6515   -0.7905 C   0  0  0  0  0  0  0  0  0  0  0  0
   12.2166   -4.4035   -0.3581 Cl  0  0  0  0  0  0  0  0  0  0  0  0
    9.8909   -3.7929   -1.6937 C   0  0  0  0  0  0  0  0  0  0  0  0
   10.6245   -2.4007   -2.3706 Cl  0  0  0  0  0  0  0  0  0  0  0  0
    7.8302   -3.3035   -4.1074 C   0  0  0  0  0  0  0  0  0  0  0  0
    6.8674   -2.7054   -4.9663 C   0  0  0  0  0  0  0  0  0  0  0  0
    5.6127   -2.3084   -4.4554 C   0  0  0  0  0  0  0  0  0  0  0  0
    4.6165   -1.6806   -5.3068 C   0  0  0  0  0  0  0  0  0  0  0  0
    4.0972   -2.4184   -6.7924 S   0  0  0  0  0  0  0  0  0  0  0  0
    2.9998   -1.1310   -7.1398 C   0  0  0  0  0  0  0  0  0  0  0  0
    2.1323   -1.1590   -8.3492 C   0  0  0  0  0  0  0  0  0  0  0  0
    0.8219   -1.8980   -8.0669 C   0  0  0  0  0  0  0  0  0  0  0  0
    3.0376   -0.1936   -6.1500 C   0  0  0  0  0  0  0  0  0  0  0  0
    3.9530   -0.4998   -5.1094 C   0  0  0  0  0  0  0  0  0  0  0  0
    4.2442    0.5666   -3.8004 Cl  0  0  0  0  0  0  0  0  0  0  0  0
    2.0857    1.2340   -6.1484 Cl  0  0  0  0  0  0  0  0  0  0  0  0
    5.3766   -2.5580   -3.1148 C   0  0  0  0  0  0  0  0  0  0  0  0
    3.8906   -2.2399   -2.2712 S   0  0  0  0  0  0  0  0  0  0  0  0
    7.3299   -2.5836   -6.2877 C   0  0  0  0  0  0  0  0  0  0  0  0
    8.5913   -3.0940   -6.4818 C   0  0  0  0  0  0  0  0  0  0  0  0
    9.2626   -3.7359   -4.9805 S   0  0  0  0  0  0  0  0  0  0  0  0
    9.4109   -3.1972   -7.6270 C   0  0  0  0  0  0  0  0  0  0  0  0
    9.2149   -2.8184   -8.9273 C   0  0  0  0  0  0  0  0  0  0  0  0
    8.0515   -2.1246   -9.5318 C   0  0  0  0  0  0  0  0  0  0  0  0
    7.0036   -1.7893   -9.0166 O   0  0  0  0  0  0  0  0  0  0  0  0
    8.4057   -1.8985  -10.9434 C   0  0  0  0  0  0  0  0  0  0  0  0
    7.6637   -1.2801  -11.9082 C   0  0  0  0  0  0  0  0  0  0  0  0
    8.1928   -1.1605  -13.2114 C   0  0  0  0  0  0  0  0  0  0  0  0
    7.4706   -0.5350  -14.2482 C   0  0  0  0  0  0  0  0  0  0  0  0
    7.9962   -0.4257  -15.5053 C   0  0  0  0  0  0  0  0  0  0  0  0
    9.2736   -0.9467  -15.7536 C   0  0  0  0  0  0  0  0  0  0  0  0
    9.7736   -0.8294  -16.9971 F   0  0  0  0  0  0  0  0  0  0  0  0
   10.0160   -1.5621  -14.7846 C   0  0  0  0  0  0  0  0  0  0  0  0
    9.4897   -1.6851  -13.4837 C   0  0  0  0  0  0  0  0  0  0  0  0
   10.2329   -2.3213  -12.4622 C   0  0  0  0  0  0  0  0  0  0  0  0
    9.6964   -2.4312  -11.2062 C   0  0  0  0  0  0  0  0  0  0  0  0
   10.2047   -3.0324   -9.9763 C   0  0  0  0  0  0  0  0  0  0  0  0
   11.3962   -3.7027   -9.8779 C   0  0  0  0  0  0  0  0  0  0  0  0
   11.9188   -4.3491   -8.7366 C   0  0  0  0  0  0  0  0  0  0  0  0
   12.4309   -4.9167   -7.8790 N   0  0  0  0  0  0  0  0  0  0  0  0
   12.2980   -3.8697  -10.9516 C   0  0  0  0  0  0  0  0  0  0  0  0
   13.0807   -4.0457  -11.7728 N   0  0  0  0  0  0  0  0  0  0  0  0
  -12.5078    5.0799    6.3583 H   0  0  0  0  0  0  0  0  0  0  0  0
  -10.7825    7.0715    0.6715 H   0  0  0  0  0  0  0  0  0  0  0  0
  -11.3700    8.4059   -1.3272 H   0  0  0  0  0  0  0  0  0  0  0  0
  -12.8882   10.0015   -2.4729 H   0  0  0  0  0  0  0  0  0  0  0  0
  -15.3581   10.2045    1.0010 H   0  0  0  0  0  0  0  0  0  0  0  0
  -14.7941    8.9098    2.9941 H   0  0  0  0  0  0  0  0  0  0  0  0
   -7.5170   -1.3358    8.1178 H   0  0  0  0  0  0  0  0  0  0  0  0
   -9.0309   -1.7136   10.0234 H   0  0  0  0  0  0  0  0  0  0  0  0
  -10.0813    0.1923   11.1696 H   0  0  0  0  0  0  0  0  0  0  0  0
   -9.0168    3.5980   10.8696 H   0  0  0  0  0  0  0  0  0  0  0  0
  -10.2456    2.5267   11.5550 H   0  0  0  0  0  0  0  0  0  0  0  0
  -11.5591    2.7277    9.4118 H   0  0  0  0  0  0  0  0  0  0  0  0
  -10.3592    3.8740    8.8105 H   0  0  0  0  0  0  0  0  0  0  0  0
  -11.3405    4.2833   10.2187 H   0  0  0  0  0  0  0  0  0  0  0  0
   -7.9955    2.8822    8.6060 H   0  0  0  0  0  0  0  0  0  0  0  0
    5.6123   -3.5515    3.7163 H   0  0  0  0  0  0  0  0  0  0  0  0
    7.2093   -5.3373    4.2889 H   0  0  0  0  0  0  0  0  0  0  0  0
    7.4300   -7.3117    2.8362 H   0  0  0  0  0  0  0  0  0  0  0  0
    7.0768   -8.2935    0.6290 H   0  0  0  0  0  0  0  0  0  0  0  0
    5.9054   -7.5922   -0.4946 H   0  0  0  0  0  0  0  0  0  0  0  0
    4.0391   -8.4900    0.9051 H   0  0  0  0  0  0  0  0  0  0  0  0
    5.1098   -9.7875    0.3654 H   0  0  0  0  0  0  0  0  0  0  0  0
    5.2106   -9.1855    2.0236 H   0  0  0  0  0  0  0  0  0  0  0  0
    4.4941   -5.6983    0.1973 H   0  0  0  0  0  0  0  0  0  0  0  0
   -1.5123    1.3472    3.2795 H   0  0  0  0  0  0  0  0  0  0  0  0
   -3.2398    1.7598    3.3562 H   0  0  0  0  0  0  0  0  0  0  0  0
   -1.7836    3.5047    4.3958 H   0  0  0  0  0  0  0  0  0  0  0  0
   -2.8657    2.7977    5.5932 H   0  0  0  0  0  0  0  0  0  0  0  0
   -1.1686    2.3096    5.5455 H   0  0  0  0  0  0  0  0  0  0  0  0
   -1.7054   -0.3231    2.1140 H   0  0  0  0  0  0  0  0  0  0  0  0
   -0.6015   -1.2912    1.1364 H   0  0  0  0  0  0  0  0  0  0  0  0
   -0.4687    1.1689    0.5996 H   0  0  0  0  0  0  0  0  0  0  0  0
    1.0729    0.4511    1.0592 H   0  0  0  0  0  0  0  0  0  0  0  0
    0.2074    1.4594    2.2082 H   0  0  0  0  0  0  0  0  0  0  0  0
    6.4350   -3.6883   -0.1243 H   0  0  0  0  0  0  0  0  0  0  0  0
    9.4169   -6.8527    1.3993 H   0  0  0  0  0  0  0  0  0  0  0  0
   11.1292   -6.5018    1.0998 H   0  0  0  0  0  0  0  0  0  0  0  0
   11.0910   -8.0190   -0.8800 H   0  0  0  0  0  0  0  0  0  0  0  0
    9.3822   -8.3566   -0.5971 H   0  0  0  0  0  0  0  0  0  0  0  0
   10.5951   -8.8817    0.5785 H   0  0  0  0  0  0  0  0  0  0  0  0
    1.9142   -0.1319   -8.6480 H   0  0  0  0  0  0  0  0  0  0  0  0
    2.6645   -1.6559   -9.1618 H   0  0  0  0  0  0  0  0  0  0  0  0
    0.2763   -1.4043   -7.2668 H   0  0  0  0  0  0  0  0  0  0  0  0
    1.0238   -2.9240   -7.7689 H   0  0  0  0  0  0  0  0  0  0  0  0
    0.2000   -1.9087   -8.9579 H   0  0  0  0  0  0  0  0  0  0  0  0
    6.7641   -2.1373   -7.0835 H   0  0  0  0  0  0  0  0  0  0  0  0
   10.3639   -3.6656   -7.4108 H   0  0  0  0  0  0  0  0  0  0  0  0
    6.6849   -0.8873  -11.6767 H   0  0  0  0  0  0  0  0  0  0  0  0
    6.4889   -0.1413  -14.0316 H   0  0  0  0  0  0  0  0  0  0  0  0
    7.4575    0.0491  -16.3100 H   0  0  0  0  0  0  0  0  0  0  0  0
   10.9958   -1.9521  -15.0124 H   0  0  0  0  0  0  0  0  0  0  0  0
   11.2106   -2.7039  -12.7050 H   0  0  0  0  0  0  0  0  0  0  0  0
  1  2  2  0  0  0  0
  2  3  1  0  0  0  0
  3  4  2  0  0  0  0
  3  5  1  0  0  0  0
  5  6  2  0  0  0  0
  6  7  1  0  0  0  0
  7  8  2  0  0  0  0
  8  9  1  0  0  0  0
  9 10  2  0  0  0  0
 10 11  1  0  0  0  0
 10 12  1  0  0  0  0
 12 13  2  0  0  0  0
 13 14  1  0  0  0  0
 14 15  2  0  0  0  0
 15 16  1  0  0  0  0
 16 17  2  0  0  0  0
 17 18  1  0  0  0  0
 18 19  3  0  0  0  0
 17 20  1  0  0  0  0
 20 21  3  0  0  0  0
  1 22  1  0  0  0  0
 22 23  2  0  0  0  0
 23 24  1  0  0  0  0
 23 25  1  0  0  0  0
 25 26  1  0  0  0  0
 25 27  2  0  0  0  0
 27 28  1  0  0  0  0
 28 29  1  0  0  0  0
 28 30  2  0  0  0  0
 30 31  1  0  0  0  0
 27 32  1  0  0  0  0
 32 33  2  0  0  0  0
 33 34  1  0  0  0  0
 34 35  2  0  0  0  0
 35 36  1  0  0  0  0
 36 37  2  0  0  0  0
 37 38  1  0  0  0  0
 38 39  1  0  0  0  0
 39 40  1  0  0  0  0
 38 41  2  0  0  0  0
 33 42  1  0  0  0  0
 42 43  1  0  0  0  0
 43 44  1  0  0  0  0
 44 45  1  0  0  0  0
 45 46  1  0  0  0  0
 46 47  1  0  0  0  0
 47 48  2  0  0  0  0
 48 49  1  0  0  0  0
 49 50  1  0  0  0  0
 47 51  1  0  0  0  0
 51 52  1  0  0  0  0
 52 53  1  0  0  0  0
 53 54  1  0  0  0  0
 54 55  1  0  0  0  0
 55 56  1  0  0  0  0
 56 57  2  0  0  0  0
 57 58  1  0  0  0  0
 58 59  2  0  0  0  0
 59 60  1  0  0  0  0
 60 61  1  0  0  0  0
 61 62  1  0  0  0  0
 60 63  2  0  0  0  0
 55 64  2  0  0  0  0
 64 65  1  0  0  0  0
 65 66  1  0  0  0  0
 66 67  1  0  0  0  0
 67 68  1  0  0  0  0
 68 69  1  0  0  0  0
 69 70  1  0  0  0  0
 70 71  1  0  0  0  0
 71 72  1  0  0  0  0
 72 73  1  0  0  0  0
 73 74  1  0  0  0  0
 71 75  1  0  0  0  0
 75 76  1  0  0  0  0
 68 77  1  0  0  0  0
 77 78  1  0  0  0  0
 64 79  1  0  0  0  0
 79 80  2  0  0  0  0
 80 81  1  0  0  0  0
 81 82  2  0  0  0  0
 82 83  1  0  0  0  0
 83 84  1  0  0  0  0
 84 85  1  0  0  0  0
 85 86  1  0  0  0  0
 86 87  1  0  0  0  0
 85 88  2  0  0  0  0
 88 89  1  0  0  0  0
 88 90  1  0  0  0  0
 90 91  1  0  0  0  0
 82 92  1  0  0  0  0
 92 93  2  0  0  0  0
 93 94  1  0  0  0  0
 94 95  1  0  0  0  0
 95 96  1  0  0  0  0
 96 97  1  0  0  0  0
 97 98  1  0  0  0  0
 98 99  1  0  0  0  0
 97100  2  0  0  0  0
100101  1  0  0  0  0
101102  1  0  0  0  0
100103  1  0  0  0  0
 94104  2  0  0  0  0
104105  1  0  0  0  0
 93106  1  0  0  0  0
106107  2  0  0  0  0
107108  1  0  0  0  0
107109  1  0  0  0  0
109110  2  0  0  0  0
110111  1  0  0  0  0
111112  2  0  0  0  0
111113  1  0  0  0  0
113114  2  0  0  0  0
114115  1  0  0  0  0
115116  2  0  0  0  0
116117  1  0  0  0  0
117118  2  0  0  0  0
118119  1  0  0  0  0
118120  1  0  0  0  0
120121  2  0  0  0  0
121122  1  0  0  0  0
122123  2  0  0  0  0
123124  1  0  0  0  0
124125  2  0  0  0  0
125126  1  0  0  0  0
126127  3  0  0  0  0
125128  1  0  0  0  0
128129  3  0  0  0  0
 16  2  1  0  0  0  0
 30 22  1  0  0  0  0
 74 32  1  0  0  0  0
105 79  1  0  0  0  0
124110  1  0  0  0  0
 15  5  1  0  0  0  0
 41 34  1  0  0  0  0
 73 42  2  0  0  0  0
104 81  1  0  0  0  0
123113  1  0  0  0  0
 13  7  1  0  0  0  0
 72 44  2  0  0  0  0
 90 83  2  0  0  0  0
108 92  1  0  0  0  0
121115  1  0  0  0  0
 70 45  2  0  0  0  0
101 95  2  0  0  0  0
 50 46  2  0  0  0  0
 69 51  2  0  0  0  0
 67 52  2  0  0  0  0
 66 54  2  0  0  0  0
 63 56  1  0  0  0  0
  1130  1  0  0  0  0
  6131  1  0  0  0  0
  8132  1  0  0  0  0
  9133  1  0  0  0  0
 12134  1  0  0  0  0
 14135  1  0  0  0  0
 35136  1  0  0  0  0
 36137  1  0  0  0  0
 37138  1  0  0  0  0
 39139  1  0  0  0  0
 39140  1  0  0  0  0
 40141  1  0  0  0  0
 40142  1  0  0  0  0
 40143  1  0  0  0  0
 41144  1  0  0  0  0
 57145  1  0  0  0  0
 58146  1  0  0  0  0
 59147  1  0  0  0  0
 61148  1  0  0  0  0
 61149  1  0  0  0  0
 62150  1  0  0  0  0
 62151  1  0  0  0  0
 62152  1  0  0  0  0
 63153  1  0  0  0  0
 75154  1  0  0  0  0
 75155  1  0  0  0  0
 76156  1  0  0  0  0
 76157  1  0  0  0  0
 76158  1  0  0  0  0
 77159  1  0  0  0  0
 77160  1  0  0  0  0
 78161  1  0  0  0  0
 78162  1  0  0  0  0
 78163  1  0  0  0  0
 80164  1  0  0  0  0
 86165  1  0  0  0  0
 86166  1  0  0  0  0
 87167  1  0  0  0  0
 87168  1  0  0  0  0
 87169  1  0  0  0  0
 98170  1  0  0  0  0
 98171  1  0  0  0  0
 99172  1  0  0  0  0
 99173  1  0  0  0  0
 99174  1  0  0  0  0
106175  1  0  0  0  0
109176  1  0  0  0  0
114177  1  0  0  0  0
116178  1  0  0  0  0
117179  1  0  0  0  0
120180  1  0  0  0  0
122181  1  0  0  0  0
M  END
