134

C          4.52820       -9.56410        0.82020
C          4.13230      -10.45560        1.75370
C          4.01320      -10.13440        3.21180
O          4.21040       -9.06490        3.74090
C          3.72680      -11.41700        3.87130
C          3.52800      -11.66000        5.20080
C          3.26480      -12.97920        5.62840
C          3.03910      -13.28360        6.98680
C          2.78710      -14.56570        7.38810
C          2.75520      -15.58490        6.42550
F          2.50580      -16.83860        6.84010
C          2.96700      -15.34490        5.09630
C          3.22640      -14.02950        4.66420
C          3.44250      -13.74950        3.29580
C          3.68350      -12.45910        2.90110
C          3.91330      -11.88530        1.58160
C          3.84500      -12.55240        0.39020
C          3.59440      -13.93700        0.27110
N          3.39720      -15.05570        0.11020
C          3.98690      -11.95200       -0.88030
N          4.07530      -11.52930       -1.94340
C          4.56970       -8.13130        1.04000
C          5.65290       -7.36720        0.59790
F          6.67600       -7.98710       -0.00430
C          5.70250       -5.99660        0.78080
F          6.75430       -5.32240        0.29560
C          4.66050       -5.30000        1.40480
C          3.55280       -6.06420        1.80010
F          2.50710       -5.45440        2.37530
C          3.50890       -7.43550        1.63090
F          2.39870       -8.09400        1.97780
C          4.67730       -3.86070        1.57320
C          5.66980       -3.04180        2.06700
C          6.95540       -3.47590        2.69710
C          6.70650       -4.29250        3.96630
C          5.26650       -1.69370        2.03090
S          6.06830       -0.21320        2.50220
C          4.67620        0.67620        1.98850
C          4.21410        2.00220        1.94270
C          4.77930        3.20240        2.42650
C          4.01240        4.41270        2.34840
N          4.64070        5.44470        2.88960
S          6.07450        4.93910        3.44430
N          5.95000        3.38320        3.01780
C          2.76690        4.38960        1.68350
C          1.88600        5.42410        1.33100
S          1.72560        7.13570        1.52840
C          0.29910        7.09110        0.52170
C         -0.58880        8.08750        0.07390
O         -0.48080        9.40470        0.39270
C          0.12080       10.23000       -0.60810
C          1.59980        9.92750       -0.80440
C         -1.59850        7.55440       -0.71910
S         -1.43170        5.82530       -0.92920
C         -0.02320        5.80720        0.07050
C          0.88410        4.85220        0.54000
N          1.10110        3.50740        0.40810
C          2.24120        3.19070        1.12170
C          2.91520        1.96580        1.36270
N          2.58460        0.64340        1.09860
C          3.65160       -0.12700        1.48410
C          3.98670       -1.48580        1.51260
S          3.23990       -2.97600        1.08210
C          1.27700        0.02120        1.07150
C          0.59980        0.11750        2.43700
C          0.39900        2.76750       -0.61550
C         -1.00820        2.36770       -0.17400
C         -2.68850        8.23120       -1.32590
C         -3.13150        9.51310       -1.10670
C         -4.25910        9.86590       -1.86720
S         -4.79120       11.52230       -1.70630
C         -6.58680       11.57440       -2.04000
C         -7.37550       10.67450       -1.10940
C         -4.67660        8.85370       -2.73360
S         -3.68260        7.42340       -2.49680
C         -5.72690        8.81100       -3.66730
C         -5.86160        7.98460       -4.74930
C         -7.21390        7.74370       -5.30630
O         -8.22500        8.36190       -5.04840
C         -7.06700        6.56430       -6.18240
C         -8.02850        5.85740       -6.84380
C         -7.65250        4.72700       -7.60460
C         -8.60620        3.96150       -8.30570
C         -8.23390        2.86510       -9.03300
C         -6.87970        2.50810       -9.07420
F         -6.53130        1.42460       -9.79360
C         -5.91420        3.21580       -8.41400
C         -6.27970        4.34880       -7.66150
C         -5.30280        5.10670       -6.97360
C         -5.69090        6.20020       -6.24960
C         -4.91900        7.17250       -5.47910
C         -3.58040        7.42920       -5.64410
C         -2.94060        8.56740       -5.11320
N         -2.39960        9.50980       -4.74080
C         -2.71930        6.63760       -6.42670
N         -1.97010        6.00640       -7.02640
H          4.85980       -9.89410       -0.15580
H          3.56510      -10.85140        5.91540
H          3.06870      -12.48210        7.70930
H          2.61220      -14.81580        8.42240
H          2.93340      -16.15360        4.38310
H          3.41360      -14.56600        2.59240
H          7.52220       -2.57770        2.95010
H          7.55140       -4.05990        1.99660
H          6.16710       -5.21040        3.74190
H          7.65420       -4.55400        4.42920
H          6.12170       -3.71520        4.67900
H         -0.01630       11.24510       -0.23040
H         -0.41940       10.12300       -1.55730
H          2.02930       10.65740       -1.48440
H          2.12270        9.97600        0.14770
H          1.73790        8.93500       -1.22810
H          1.43520       -1.02880        0.81250
H          0.64520        0.45930        0.30570
H          0.46170        1.15840        2.72320
H          1.20980       -0.36830        3.19520
H         -0.36900       -0.37350        2.40630
H          1.00400        1.90790       -0.90600
H          0.31460        3.41830       -1.49310
H         -0.99390        1.83280        0.77150
H         -1.62300        3.25520       -0.05110
H         -1.46680        1.73810       -0.93140
H         -2.68050       10.18030       -0.39600
H         -6.76010       11.35450       -3.09250
H         -6.83200       12.62230       -1.86440
H         -7.07800        9.63340       -1.21660
H         -8.43650       10.75380       -1.33650
H         -7.21610       10.97050       -0.07500
H         -6.59490        9.43200       -3.48490
H         -9.06500        6.15490       -6.78810
H         -9.64380        4.25640       -8.25840
H         -8.95130        2.26900       -9.57430
H         -4.88010        2.91380       -8.47160
H         -4.27120        4.79650       -7.02780
