
  xtb     02042221053D
 energy: -302.287224316360 gnorm: 0.000441311835 xtb: 6.4.1 (unknown)
166184  0     0  0            999 V2000
    8.7858   -0.5981   10.0076 C   0  0  0  0  0  0  0  0  0  0  0  0
    8.9140    0.7020   10.3517 C   0  0  0  0  0  0  0  0  0  0  0  0
    9.7508    1.0587   11.5425 C   0  0  0  0  0  0  0  0  0  0  0  0
   10.5134    0.3267   12.1256 O   0  0  0  0  0  0  0  0  0  0  0  0
    9.3950    2.4514   11.8612 C   0  0  0  0  0  0  0  0  0  0  0  0
    9.7916    3.2172   12.9206 C   0  0  0  0  0  0  0  0  0  0  0  0
    9.3040    4.5374   13.0377 C   0  0  0  0  0  0  0  0  0  0  0  0
    9.6916    5.3746   14.1044 C   0  0  0  0  0  0  0  0  0  0  0  0
    9.2115    6.6502   14.2087 C   0  0  0  0  0  0  0  0  0  0  0  0
    8.3194    7.1217   13.2352 C   0  0  0  0  0  0  0  0  0  0  0  0
    7.8586    8.3790   13.3549 F   0  0  0  0  0  0  0  0  0  0  0  0
    7.9099    6.3521   12.1821 C   0  0  0  0  0  0  0  0  0  0  0  0
    8.3976    5.0366   12.0565 C   0  0  0  0  0  0  0  0  0  0  0  0
    8.0049    4.2224   10.9697 C   0  0  0  0  0  0  0  0  0  0  0  0
    8.5062    2.9524   10.8661 C   0  0  0  0  0  0  0  0  0  0  0  0
    8.3186    1.9275    9.8453 C   0  0  0  0  0  0  0  0  0  0  0  0
    7.8703    2.1609    8.5742 C   0  0  0  0  0  0  0  0  0  0  0  0
    7.3857    3.4098    8.1278 C   0  0  0  0  0  0  0  0  0  0  0  0
    6.9771    4.3961    7.7077 N   0  0  0  0  0  0  0  0  0  0  0  0
    7.8990    1.2216    7.5241 C   0  0  0  0  0  0  0  0  0  0  0  0
    7.9200    0.5132    6.6207 N   0  0  0  0  0  0  0  0  0  0  0  0
    7.8302   -1.2032    9.1124 C   0  0  0  0  0  0  0  0  0  0  0  0
    6.4996   -0.7809    9.0018 C   0  0  0  0  0  0  0  0  0  0  0  0
    6.0499    0.2006    9.8017 F   0  0  0  0  0  0  0  0  0  0  0  0
    5.6221   -1.3680    8.1138 C   0  0  0  0  0  0  0  0  0  0  0  0
    4.3527   -0.9310    8.0851 F   0  0  0  0  0  0  0  0  0  0  0  0
    6.0126   -2.4041    7.2519 C   0  0  0  0  0  0  0  0  0  0  0  0
    7.3416   -2.8412    7.3772 C   0  0  0  0  0  0  0  0  0  0  0  0
    7.8150   -3.7814    6.5528 F   0  0  0  0  0  0  0  0  0  0  0  0
    8.2031   -2.2845    8.3023 C   0  0  0  0  0  0  0  0  0  0  0  0
    9.4615   -2.7339    8.3758 F   0  0  0  0  0  0  0  0  0  0  0  0
    5.1199   -2.9185    6.2436 C   0  0  0  0  0  0  0  0  0  0  0  0
    5.0009   -4.2130    5.7625 C   0  0  0  0  0  0  0  0  0  0  0  0
    5.6102   -5.3805    6.3942 C   0  0  0  0  0  0  0  0  0  0  0  0
    6.1328   -6.4156    5.6239 C   0  0  0  0  0  0  0  0  0  0  0  0
    6.7273   -7.4978    6.2427 C   0  0  0  0  0  0  0  0  0  0  0  0
    6.8100   -7.5587    7.6233 C   0  0  0  0  0  0  0  0  0  0  0  0
    6.2766   -6.5444    8.4080 C   0  0  0  0  0  0  0  0  0  0  0  0
    6.3900   -6.5716    9.9058 C   0  0  0  0  0  0  0  0  0  0  0  0
    7.4489   -5.5750   10.3822 C   0  0  0  0  0  0  0  0  0  0  0  0
    5.6699   -5.4669    7.7822 C   0  0  0  0  0  0  0  0  0  0  0  0
    4.1392   -4.2591    4.6495 C   0  0  0  0  0  0  0  0  0  0  0  0
    3.6173   -5.5530    3.5946 S   0  0  0  0  0  0  0  0  0  0  0  0
    2.6761   -4.4120    2.6950 C   0  0  0  0  0  0  0  0  0  0  0  0
    1.8823   -4.3565    1.5397 C   0  0  0  0  0  0  0  0  0  0  0  0
    1.5989   -5.3492    0.5774 C   0  0  0  0  0  0  0  0  0  0  0  0
    0.8752   -4.9797   -0.6026 C   0  0  0  0  0  0  0  0  0  0  0  0
    0.7272   -5.9911   -1.4441 N   0  0  0  0  0  0  0  0  0  0  0  0
    1.4351   -7.2983   -0.8019 S   0  0  0  0  0  0  0  0  0  0  0  0
    1.9599   -6.6229    0.5733 N   0  0  0  0  0  0  0  0  0  0  0  0
    0.3844   -3.6613   -0.7156 C   0  0  0  0  0  0  0  0  0  0  0  0
   -0.4249   -3.0735   -1.6994 C   0  0  0  0  0  0  0  0  0  0  0  0
   -1.1570   -3.4788   -3.2161 S   0  0  0  0  0  0  0  0  0  0  0  0
   -1.8887   -1.8920   -3.2561 C   0  0  0  0  0  0  0  0  0  0  0  0
   -2.7553   -1.2632   -4.1751 C   0  0  0  0  0  0  0  0  0  0  0  0
   -3.2615   -1.9179   -5.3863 C   0  0  0  0  0  0  0  0  0  0  0  0
   -4.6269   -1.9540   -5.6571 C   0  0  0  0  0  0  0  0  0  0  0  0
   -5.0823   -2.5593   -6.8120 C   0  0  0  0  0  0  0  0  0  0  0  0
   -4.1866   -3.1267   -7.7027 C   0  0  0  0  0  0  0  0  0  0  0  0
   -2.8231   -3.1144   -7.4389 C   0  0  0  0  0  0  0  0  0  0  0  0
   -1.8433   -3.6837   -8.4240 C   0  0  0  0  0  0  0  0  0  0  0  0
   -1.4029   -2.6053   -9.4167 C   0  0  0  0  0  0  0  0  0  0  0  0
   -2.3721   -2.5129   -6.2729 C   0  0  0  0  0  0  0  0  0  0  0  0
   -3.0954    0.0069   -3.7600 C   0  0  0  0  0  0  0  0  0  0  0  0
   -2.3671    0.4246   -2.2195 S   0  0  0  0  0  0  0  0  0  0  0  0
   -1.5759   -1.1096   -2.1448 C   0  0  0  0  0  0  0  0  0  0  0  0
   -0.7226   -1.7833   -1.2596 C   0  0  0  0  0  0  0  0  0  0  0  0
   -0.1156   -1.5464   -0.0581 N   0  0  0  0  0  0  0  0  0  0  0  0
    0.5972   -2.6796    0.2965 C   0  0  0  0  0  0  0  0  0  0  0  0
    1.4411   -3.0068    1.3954 C   0  0  0  0  0  0  0  0  0  0  0  0
    1.9981   -2.2682    2.4232 N   0  0  0  0  0  0  0  0  0  0  0  0
    2.7386   -3.1130    3.2026 C   0  0  0  0  0  0  0  0  0  0  0  0
    3.5850   -3.0200    4.3126 C   0  0  0  0  0  0  0  0  0  0  0  0
    4.1241   -1.7709    5.3691 S   0  0  0  0  0  0  0  0  0  0  0  0
    2.0461   -0.8523    2.7000 C   0  0  0  0  0  0  0  0  0  0  0  0
    1.1406   -0.4707    3.8717 C   0  0  0  0  0  0  0  0  0  0  0  0
   -0.4356   -0.3316    0.6533 C   0  0  0  0  0  0  0  0  0  0  0  0
    0.3238    0.8735    0.0961 C   0  0  0  0  0  0  0  0  0  0  0  0
   -3.9052    0.9883   -4.4450 C   0  0  0  0  0  0  0  0  0  0  0  0
   -3.9526    1.0199   -5.8439 C   0  0  0  0  0  0  0  0  0  0  0  0
   -4.7684    1.9102   -6.5001 C   0  0  0  0  0  0  0  0  0  0  0  0
   -5.1012    2.0768   -8.3551 Si  0  0  0  0  0  4  0  0  0  0  0  0
   -3.5979    2.6778   -9.3649 C   0  0  0  0  0  0  0  0  0  0  0  0
   -2.4792    1.6420   -9.4064 C   0  0  0  0  0  0  0  0  0  0  0  0
   -5.8833    0.4912   -9.0732 C   0  0  0  0  0  0  0  0  0  0  0  0
   -7.2870    0.2301   -8.5334 C   0  0  0  0  0  0  0  0  0  0  0  0
   -6.3558    3.4393   -7.9604 C   0  0  0  0  0  0  0  0  0  0  0  0
   -6.4154    3.6711   -6.5717 C   0  0  0  0  0  0  0  0  0  0  0  0
   -5.5518    2.8221   -5.7664 C   0  0  0  0  0  0  0  0  0  0  0  0
   -5.4648    2.8337   -4.3773 C   0  0  0  0  0  0  0  0  0  0  0  0
   -4.6522    1.9270   -3.7286 C   0  0  0  0  0  0  0  0  0  0  0  0
   -7.2654    4.6595   -6.0760 C   0  0  0  0  0  0  0  0  0  0  0  0
   -8.0791    5.3609   -6.9355 C   0  0  0  0  0  0  0  0  0  0  0  0
   -8.0985    5.0728   -8.3099 C   0  0  0  0  0  0  0  0  0  0  0  0
   -7.1880    4.1273   -8.8082 C   0  0  0  0  0  0  0  0  0  0  0  0
   -9.0158    5.7817   -9.1503 C   0  0  0  0  0  0  0  0  0  0  0  0
   -9.6492    5.3124  -10.2628 C   0  0  0  0  0  0  0  0  0  0  0  0
   -9.7892    3.8842  -10.6417 C   0  0  0  0  0  0  0  0  0  0  0  0
   -9.2484    2.9113  -10.1654 O   0  0  0  0  0  0  0  0  0  0  0  0
  -10.8271    3.8633  -11.6991 C   0  0  0  0  0  0  0  0  0  0  0  0
  -11.3531    2.7641  -12.3491 C   0  0  0  0  0  0  0  0  0  0  0  0
  -12.3292    2.9894  -13.3057 C   0  0  0  0  0  0  0  0  0  0  0  0
  -12.8653    1.9541  -13.9634 F   0  0  0  0  0  0  0  0  0  0  0  0
  -12.7608    4.2859  -13.5898 C   0  0  0  0  0  0  0  0  0  0  0  0
  -13.7101    4.4724  -14.5134 F   0  0  0  0  0  0  0  0  0  0  0  0
  -12.2333    5.3892  -12.9365 C   0  0  0  0  0  0  0  0  0  0  0  0
  -11.2529    5.1713  -11.9801 C   0  0  0  0  0  0  0  0  0  0  0  0
  -10.5092    6.0983  -11.1312 C   0  0  0  0  0  0  0  0  0  0  0  0
  -10.5624    7.4641  -11.2062 C   0  0  0  0  0  0  0  0  0  0  0  0
  -11.4017    8.1748  -12.0908 C   0  0  0  0  0  0  0  0  0  0  0  0
  -12.0661    8.8060  -12.7812 N   0  0  0  0  0  0  0  0  0  0  0  0
   -9.7712    8.3500  -10.4426 C   0  0  0  0  0  0  0  0  0  0  0  0
   -9.1535    9.1346   -9.8762 N   0  0  0  0  0  0  0  0  0  0  0  0
    9.4813   -1.2811   10.4860 H   0  0  0  0  0  0  0  0  0  0  0  0
   10.4715    2.8202   13.6594 H   0  0  0  0  0  0  0  0  0  0  0  0
   10.3793    4.9896   14.8422 H   0  0  0  0  0  0  0  0  0  0  0  0
    9.4987    7.3037   15.0171 H   0  0  0  0  0  0  0  0  0  0  0  0
    7.2249    6.7487   11.4491 H   0  0  0  0  0  0  0  0  0  0  0  0
    7.3085    4.6210   10.2495 H   0  0  0  0  0  0  0  0  0  0  0  0
    6.0946   -6.3561    4.5475 H   0  0  0  0  0  0  0  0  0  0  0  0
    7.1390   -8.2963    5.6438 H   0  0  0  0  0  0  0  0  0  0  0  0
    7.2893   -8.4031    8.0970 H   0  0  0  0  0  0  0  0  0  0  0  0
    5.4274   -6.3139   10.3540 H   0  0  0  0  0  0  0  0  0  0  0  0
    6.6626   -7.5745   10.2380 H   0  0  0  0  0  0  0  0  0  0  0  0
    7.1677   -4.5593   10.1092 H   0  0  0  0  0  0  0  0  0  0  0  0
    8.4103   -5.7972    9.9246 H   0  0  0  0  0  0  0  0  0  0  0  0
    7.5583   -5.6237   11.4631 H   0  0  0  0  0  0  0  0  0  0  0  0
    5.2255   -4.6854    8.3838 H   0  0  0  0  0  0  0  0  0  0  0  0
   -5.3223   -1.5083   -4.9614 H   0  0  0  0  0  0  0  0  0  0  0  0
   -6.1414   -2.5873   -7.0206 H   0  0  0  0  0  0  0  0  0  0  0  0
   -4.5498   -3.5906   -8.6086 H   0  0  0  0  0  0  0  0  0  0  0  0
   -2.3028   -4.5097   -8.9699 H   0  0  0  0  0  0  0  0  0  0  0  0
   -0.9684   -4.0668   -7.8957 H   0  0  0  0  0  0  0  0  0  0  0  0
   -2.2606   -2.2231   -9.9663 H   0  0  0  0  0  0  0  0  0  0  0  0
   -0.9353   -1.7744   -8.8929 H   0  0  0  0  0  0  0  0  0  0  0  0
   -0.6888   -3.0123  -10.1287 H   0  0  0  0  0  0  0  0  0  0  0  0
   -1.3133   -2.4908   -6.0573 H   0  0  0  0  0  0  0  0  0  0  0  0
    3.0801   -0.6077    2.9671 H   0  0  0  0  0  0  0  0  0  0  0  0
    1.8002   -0.2966    1.8006 H   0  0  0  0  0  0  0  0  0  0  0  0
    0.1248   -0.8331    3.7263 H   0  0  0  0  0  0  0  0  0  0  0  0
    1.1179    0.6096    3.9832 H   0  0  0  0  0  0  0  0  0  0  0  0
    1.5196   -0.9017    4.7944 H   0  0  0  0  0  0  0  0  0  0  0  0
   -0.2516   -0.4717    1.7144 H   0  0  0  0  0  0  0  0  0  0  0  0
   -1.5091   -0.1528    0.5251 H   0  0  0  0  0  0  0  0  0  0  0  0
    1.3934    0.6818    0.0393 H   0  0  0  0  0  0  0  0  0  0  0  0
    0.1536    1.7410    0.7276 H   0  0  0  0  0  0  0  0  0  0  0  0
   -0.0259    1.1047   -0.9062 H   0  0  0  0  0  0  0  0  0  0  0  0
   -3.3397    0.3385   -6.4123 H   0  0  0  0  0  0  0  0  0  0  0  0
   -3.2105    3.6059   -8.9434 H   0  0  0  0  0  0  0  0  0  0  0  0
   -3.9115    2.9050  -10.3841 H   0  0  0  0  0  0  0  0  0  0  0  0
   -2.8340    0.7089   -9.8367 H   0  0  0  0  0  0  0  0  0  0  0  0
   -1.6447    1.9986  -10.0075 H   0  0  0  0  0  0  0  0  0  0  0  0
   -2.1129    1.4367   -8.4039 H   0  0  0  0  0  0  0  0  0  0  0  0
   -5.9278    0.5599  -10.1606 H   0  0  0  0  0  0  0  0  0  0  0  0
   -5.2437   -0.3617   -8.8365 H   0  0  0  0  0  0  0  0  0  0  0  0
   -7.6785   -0.7075   -8.9237 H   0  0  0  0  0  0  0  0  0  0  0  0
   -7.9618    1.0306   -8.8249 H   0  0  0  0  0  0  0  0  0  0  0  0
   -7.2737    0.1703   -7.4473 H   0  0  0  0  0  0  0  0  0  0  0  0
   -6.0418    3.5355   -3.7938 H   0  0  0  0  0  0  0  0  0  0  0  0
   -4.6038    1.9237   -2.6485 H   0  0  0  0  0  0  0  0  0  0  0  0
   -7.2959    4.8778   -5.0191 H   0  0  0  0  0  0  0  0  0  0  0  0
   -8.7496    6.1150   -6.5487 H   0  0  0  0  0  0  0  0  0  0  0  0
   -7.1193    3.9652   -9.8715 H   0  0  0  0  0  0  0  0  0  0  0  0
   -9.2613    6.7845   -8.8193 H   0  0  0  0  0  0  0  0  0  0  0  0
  -11.0185    1.7641  -12.1235 H   0  0  0  0  0  0  0  0  0  0  0  0
  -12.6039    6.3694  -13.1876 H   0  0  0  0  0  0  0  0  0  0  0  0
  1  2  2  0  0  0  0
  2  3  1  0  0  0  0
  3  4  2  0  0  0  0
  3  5  1  0  0  0  0
  5  6  2  0  0  0  0
  6  7  1  0  0  0  0
  7  8  2  0  0  0  0
  8  9  1  0  0  0  0
  9 10  2  0  0  0  0
 10 11  1  0  0  0  0
 10 12  1  0  0  0  0
 12 13  2  0  0  0  0
 13 14  1  0  0  0  0
 14 15  2  0  0  0  0
 15 16  1  0  0  0  0
 16 17  2  0  0  0  0
 17 18  1  0  0  0  0
 18 19  3  0  0  0  0
 17 20  1  0  0  0  0
 20 21  3  0  0  0  0
  1 22  1  0  0  0  0
 22 23  2  0  0  0  0
 23 24  1  0  0  0  0
 23 25  1  0  0  0  0
 25 26  1  0  0  0  0
 25 27  2  0  0  0  0
 27 28  1  0  0  0  0
 28 29  1  0  0  0  0
 28 30  2  0  0  0  0
 30 31  1  0  0  0  0
 27 32  1  0  0  0  0
 32 33  2  0  0  0  0
 33 34  1  0  0  0  0
 34 35  2  0  0  0  0
 35 36  1  0  0  0  0
 36 37  2  0  0  0  0
 37 38  1  0  0  0  0
 38 39  1  0  0  0  0
 39 40  1  0  0  0  0
 38 41  2  0  0  0  0
 33 42  1  0  0  0  0
 42 43  1  0  0  0  0
 43 44  1  0  0  0  0
 44 45  1  0  0  0  0
 45 46  1  0  0  0  0
 46 47  1  0  0  0  0
 47 48  2  0  0  0  0
 48 49  1  0  0  0  0
 49 50  1  0  0  0  0
 47 51  1  0  0  0  0
 51 52  1  0  0  0  0
 52 53  1  0  0  0  0
 53 54  1  0  0  0  0
 54 55  1  0  0  0  0
 55 56  1  0  0  0  0
 56 57  2  0  0  0  0
 57 58  1  0  0  0  0
 58 59  2  0  0  0  0
 59 60  1  0  0  0  0
 60 61  1  0  0  0  0
 61 62  1  0  0  0  0
 60 63  2  0  0  0  0
 55 64  2  0  0  0  0
 64 65  1  0  0  0  0
 65 66  1  0  0  0  0
 66 67  1  0  0  0  0
 67 68  1  0  0  0  0
 68 69  1  0  0  0  0
 69 70  1  0  0  0  0
 70 71  1  0  0  0  0
 71 72  1  0  0  0  0
 72 73  1  0  0  0  0
 73 74  1  0  0  0  0
 71 75  1  0  0  0  0
 75 76  1  0  0  0  0
 68 77  1  0  0  0  0
 77 78  1  0  0  0  0
 64 79  1  0  0  0  0
 79 80  2  0  0  0  0
 80 81  1  0  0  0  0
 81 82  1  0  0  0  0
 82 83  1  0  0  0  0
 83 84  1  0  0  0  0
 82 85  1  0  0  0  0
 85 86  1  0  0  0  0
 82 87  1  0  0  0  0
 87 88  2  0  0  0  0
 88 89  1  0  0  0  0
 89 90  1  0  0  0  0
 90 91  2  0  0  0  0
 88 92  1  0  0  0  0
 92 93  2  0  0  0  0
 93 94  1  0  0  0  0
 94 95  2  0  0  0  0
 94 96  1  0  0  0  0
 96 97  2  0  0  0  0
 97 98  1  0  0  0  0
 98 99  2  0  0  0  0
 98100  1  0  0  0  0
100101  2  0  0  0  0
101102  1  0  0  0  0
102103  1  0  0  0  0
102104  2  0  0  0  0
104105  1  0  0  0  0
104106  1  0  0  0  0
106107  2  0  0  0  0
107108  1  0  0  0  0
108109  2  0  0  0  0
109110  1  0  0  0  0
110111  3  0  0  0  0
109112  1  0  0  0  0
112113  3  0  0  0  0
 16  2  1  0  0  0  0
 30 22  1  0  0  0  0
 74 32  1  0  0  0  0
 91 79  1  0  0  0  0
108 97  1  0  0  0  0
 15  5  1  0  0  0  0
 41 34  1  0  0  0  0
 73 42  2  0  0  0  0
 89 81  2  0  0  0  0
107100  1  0  0  0  0
 13  7  1  0  0  0  0
 72 44  2  0  0  0  0
 95 87  1  0  0  0  0
 70 45  2  0  0  0  0
 50 46  2  0  0  0  0
 69 51  2  0  0  0  0
 67 52  2  0  0  0  0
 66 54  2  0  0  0  0
 63 56  1  0  0  0  0
  1114  1  0  0  0  0
  6115  1  0  0  0  0
  8116  1  0  0  0  0
  9117  1  0  0  0  0
 12118  1  0  0  0  0
 14119  1  0  0  0  0
 35120  1  0  0  0  0
 36121  1  0  0  0  0
 37122  1  0  0  0  0
 39123  1  0  0  0  0
 39124  1  0  0  0  0
 40125  1  0  0  0  0
 40126  1  0  0  0  0
 40127  1  0  0  0  0
 41128  1  0  0  0  0
 57129  1  0  0  0  0
 58130  1  0  0  0  0
 59131  1  0  0  0  0
 61132  1  0  0  0  0
 61133  1  0  0  0  0
 62134  1  0  0  0  0
 62135  1  0  0  0  0
 62136  1  0  0  0  0
 63137  1  0  0  0  0
 75138  1  0  0  0  0
 75139  1  0  0  0  0
 76140  1  0  0  0  0
 76141  1  0  0  0  0
 76142  1  0  0  0  0
 77143  1  0  0  0  0
 77144  1  0  0  0  0
 78145  1  0  0  0  0
 78146  1  0  0  0  0
 78147  1  0  0  0  0
 80148  1  0  0  0  0
 83149  1  0  0  0  0
 83150  1  0  0  0  0
 84151  1  0  0  0  0
 84152  1  0  0  0  0
 84153  1  0  0  0  0
 85154  1  0  0  0  0
 85155  1  0  0  0  0
 86156  1  0  0  0  0
 86157  1  0  0  0  0
 86158  1  0  0  0  0
 90159  1  0  0  0  0
 91160  1  0  0  0  0
 92161  1  0  0  0  0
 93162  1  0  0  0  0
 95163  1  0  0  0  0
 96164  1  0  0  0  0
101165  1  0  0  0  0
106166  1  0  0  0  0
M  END
