181

C        -11.75850        5.26070        5.59810
C        -11.98290        6.15200        4.60790
C        -11.20830        6.18490        3.32730
O        -10.24650        5.51270        3.03520
C        -11.93960        7.11760        2.45560
C        -11.65060        7.47650        1.16970
C        -12.49720        8.38740        0.50170
C        -12.23960        8.79880       -0.82240
C        -13.07020        9.67690       -1.46060
C        -14.19170       10.16910       -0.77790
F        -14.99670       11.03070       -1.42290
C        -14.48710        9.80400        0.50610
C        -13.64140        8.90140        1.18030
C        -13.91760        8.50960        2.51030
C        -13.07470        7.63400        3.14390
C        -13.09910        7.07920        4.49090
C        -13.95570        7.43380        5.49600
C        -13.88440        6.94510        6.81910
N        -13.86780        6.60440        7.91490
C        -15.00550        8.36590        5.34720
N        -15.87700        9.10940        5.28220
C        -10.55920        4.45530        5.70300
C        -10.63950        3.09330        6.01330
F        -11.85110        2.53960        6.15690
C         -9.51310        2.29990        6.11610
F         -9.66650        0.98530        6.31960
C         -8.22500        2.83760        5.97270
C         -8.14750        4.20530        5.67500
F         -6.94010        4.77850        5.56020
C         -9.27630        4.99240        5.54360
F         -9.13110        6.30720        5.35280
C         -7.04220        2.01980        6.11860
C         -6.80940        1.04160        7.06950
C         -7.67880        0.79910        8.21930
C         -7.95380       -0.49870        8.63980
C         -8.81120       -0.70630        9.70280
C         -9.40010        0.36680       10.34950
C         -9.11830        1.66960        9.95850
C         -9.77170        2.84650       10.62580
C        -10.82480        3.47310        9.70940
C         -8.24700        1.87210        8.89960
C         -5.58680        0.38530        6.82680
S         -4.74450       -0.91030        7.64290
C         -3.47150       -0.78990        6.47610
C         -2.23630       -1.39080        6.17470
C         -1.47090       -2.36860        6.84750
C         -0.18570       -2.73350        6.31850
N          0.43920       -3.61940        7.07780
S         -0.50590       -3.96910        8.34450
N         -1.75150       -3.00410        7.97420
C          0.21760       -2.20420        5.07210
C          1.28650       -2.53130        4.22240
S          2.67420       -3.56610        4.20290
C          2.97950       -3.08370        2.55120
C          3.95330       -3.47910        1.61350
C          4.95440       -4.50720        1.91430
C          5.71760       -4.41240        3.07380
C          6.61460       -5.41530        3.39100
C          6.74300       -6.52090        2.56960
C          5.98600       -6.63420        1.40950
C          6.07840       -7.86060        0.54900
C          5.04360       -8.89840        0.98780
C          5.09660       -5.61970        1.09090
C          3.76680       -2.83460        0.40230
S          2.37560       -1.76310        0.41610
C          2.04670       -2.16520        2.06180
C          1.08340       -1.83910        3.02410
N         -0.04920       -1.07440        3.11210
C         -0.59120       -1.26920        4.36820
C         -1.75540       -0.75940        4.99490
N         -2.64420        0.23700        4.62470
C         -3.68620        0.20270        5.51680
C         -4.89360        0.87990        5.71850
S         -5.74330        2.17010        4.95330
C         -2.35830        1.48170        3.94230
C         -2.02460        2.59380        4.93670
C         -0.65170       -0.52420        1.91800
C          0.08420        0.71990        1.41990
C          4.56040       -2.87060       -0.77920
C          5.84900       -3.30150       -0.93620
C          6.33370       -3.16170       -2.25550
C          7.59450       -3.53200       -2.75760
C          8.58930       -4.15550       -1.90050
S          8.20830       -5.57510       -0.97100
C          9.80280       -5.66400       -0.30570
C         10.18180       -6.76140        0.62520
C         10.32120       -8.09220       -0.11630
C         10.57500       -4.65150       -0.79050
Cl        12.21660       -4.40350       -0.35810
C          9.89090       -3.79290       -1.69370
Cl        10.62450       -2.40070       -2.37060
C          7.83020       -3.30350       -4.10740
C          6.86740       -2.70540       -4.96630
C          5.61270       -2.30840       -4.45540
C          4.61650       -1.68060       -5.30680
S          4.09720       -2.41840       -6.79240
C          2.99980       -1.13100       -7.13980
C          2.13230       -1.15900       -8.34920
C          0.82190       -1.89800       -8.06690
C          3.03760       -0.19360       -6.15000
C          3.95300       -0.49980       -5.10940
Cl         4.24420        0.56660       -3.80040
Cl         2.08570        1.23400       -6.14840
C          5.37660       -2.55800       -3.11480
S          3.89060       -2.23990       -2.27120
C          7.32990       -2.58360       -6.28770
C          8.59130       -3.09400       -6.48180
S          9.26260       -3.73590       -4.98050
C          9.41090       -3.19720       -7.62700
C          9.21490       -2.81840       -8.92730
C          8.05150       -2.12460       -9.53180
O          7.00360       -1.78930       -9.01660
C          8.40570       -1.89850      -10.94340
C          7.66370       -1.28010      -11.90820
C          8.19280       -1.16050      -13.21140
C          7.47060       -0.53500      -14.24820
C          7.99620       -0.42570      -15.50530
C          9.27360       -0.94670      -15.75360
F          9.77360       -0.82940      -16.99710
C         10.01600       -1.56210      -14.78460
C          9.48970       -1.68510      -13.48370
C         10.23290       -2.32130      -12.46220
C          9.69640       -2.43120      -11.20620
C         10.20470       -3.03240       -9.97630
C         11.39620       -3.70270       -9.87790
C         11.91880       -4.34910       -8.73660
N         12.43090       -4.91670       -7.87900
C         12.29800       -3.86970      -10.95160
N         13.08070       -4.04570      -11.77280
H        -12.50780        5.07990        6.35830
H        -10.78250        7.07150        0.67150
H        -11.37000        8.40590       -1.32720
H        -12.88820       10.00150       -2.47290
H        -15.35810       10.20450        1.00100
H        -14.79410        8.90980        2.99410
H         -7.51700       -1.33580        8.11780
H         -9.03090       -1.71360       10.02340
H        -10.08130        0.19230       11.16960
H         -9.01680        3.59800       10.86960
H        -10.24560        2.52670       11.55500
H        -11.55910        2.72770        9.41180
H        -10.35920        3.87400        8.81050
H        -11.34050        4.28330       10.21870
H         -7.99550        2.88220        8.60600
H          5.61230       -3.55150        3.71630
H          7.20930       -5.33730        4.28890
H          7.43000       -7.31170        2.83620
H          7.07680       -8.29350        0.62900
H          5.90540       -7.59220       -0.49460
H          4.03910       -8.49000        0.90510
H          5.10980       -9.78750        0.36540
H          5.21060       -9.18550        2.02360
H          4.49410       -5.69830        0.19730
H         -1.51230        1.34720        3.27950
H         -3.23980        1.75980        3.35620
H         -1.78360        3.50470        4.39580
H         -2.86570        2.79770        5.59320
H         -1.16860        2.30960        5.54550
H         -1.70540       -0.32310        2.11400
H         -0.60150       -1.29120        1.13640
H         -0.46870        1.16890        0.59960
H          1.07290        0.45110        1.05920
H          0.20740        1.45940        2.20820
H          6.43500       -3.68830       -0.12430
H          9.41690       -6.85270        1.39930
H         11.12920       -6.50180        1.09980
H         11.09100       -8.01900       -0.88000
H          9.38220       -8.35660       -0.59710
H         10.59510       -8.88170        0.57850
H          1.91420       -0.13190       -8.64800
H          2.66450       -1.65590       -9.16180
H          0.27630       -1.40430       -7.26680
H          1.02380       -2.92400       -7.76890
H          0.20000       -1.90870       -8.95790
H          6.76410       -2.13730       -7.08350
H         10.36390       -3.66560       -7.41080
H          6.68490       -0.88730      -11.67670
H          6.48890       -0.14130      -14.03160
H          7.45750        0.04910      -16.31000
H         10.99580       -1.95210      -15.01240
H         11.21060       -2.70390      -12.70500
