139

C         -0.00450       10.61070       -2.04080
C          0.78410       10.70790       -3.13430
C          1.29740        9.52500       -3.89530
O          1.14290        8.35620       -3.62510
C          1.92350       10.08120       -5.10430
C          2.53320        9.40960       -6.12560
C          3.07430       10.14100       -7.20470
C          3.72510        9.49880       -8.27840
C          4.24450       10.21820       -9.31810
C          4.12180       11.61490       -9.30510
F          4.63950       12.30450      -10.33610
C          3.50000       12.28730       -8.28990
C          2.96000       11.56250       -7.20930
C          2.31650       12.23000       -6.14210
C          1.80910       11.50060       -5.09830
C          1.12720       11.91190       -3.87760
C          0.92540       13.19930       -3.46330
C          0.33560       13.56730       -2.23420
N         -0.11640       13.93800       -1.24690
C          1.30910       14.33840       -4.20420
N          1.59050       15.30100       -4.76170
C         -0.17840        9.38640       -1.28620
C         -1.44590        8.97500       -0.86110
F         -2.50740        9.72120       -1.19520
C         -1.63840        7.79250       -0.17120
F         -2.89010        7.41040        0.11460
C         -0.56010        6.96900        0.18510
C          0.71350        7.40410       -0.21160
F          1.78840        6.68310        0.14070
C          0.90170        8.57240       -0.92370
F          2.14820        8.96980       -1.19850
C         -0.74590        5.72060        0.88710
C         -1.61870        5.43530        1.92160
C         -2.41440        6.42050        2.65130
C         -1.87760        7.66050        2.99170
C         -2.64000        8.56770        3.70070
C         -3.93300        8.24920        4.08000
C         -4.48110        7.01560        3.75420
C         -5.86070        6.63340        4.20510
C         -5.78480        5.77460        5.46920
C         -3.71160        6.10870        3.04170
C         -1.57050        4.06720        2.25810
S         -2.39600        3.10980        3.46500
C         -1.52430        1.71520        2.92600
C         -1.45800        0.33410        3.17810
C         -2.24010       -0.51890        3.98980
C         -2.08840       -1.94370        3.86040
N         -2.94560       -2.61210        4.61560
S         -3.85630       -1.54810        5.42710
N         -3.19830       -0.19020        4.84170
C         -1.06710       -2.45110        3.02680
C         -0.63390       -3.75640        2.72860
S         -1.10300       -5.39500        3.02760
C          0.22570       -5.93780        2.03160
C          0.67290       -7.21730        1.63690
C          0.09960       -8.46750        2.13140
C          0.92130       -9.53030        2.50120
C          0.36210      -10.69170        2.99690
C         -1.01100      -10.80330        3.13540
C         -1.84420       -9.75270        2.77480
C         -3.33020       -9.83400        2.97040
C         -3.73410       -9.11480        4.25940
C         -1.27750       -8.59050        2.27420
C          1.77340       -7.11930        0.80840
S          2.29040       -5.46530        0.54410
C          0.99540       -4.88910        1.52550
C          0.50400       -3.63990        1.92480
N          0.79580       -2.31650        1.71020
C         -0.18730       -1.57450        2.33960
C         -0.47740       -0.19050        2.29380
N          0.00450        0.83220        1.49310
C         -0.63680        1.98090        1.87880
C         -0.66310        3.32720        1.49600
S          0.15940        4.31760        0.34960
C          0.58990        0.75050        0.16840
C         -0.21440       -0.16050       -0.75320
C          2.15030       -1.88400        1.43940
C          3.14130       -2.47120        2.44340
C          2.44850       -8.17570        0.08340
C          3.84300       -8.21430       -0.03280
F          4.58140       -7.28910        0.60010
C          4.48510       -9.19980       -0.76210
F          5.82290       -9.19640       -0.83840
C          3.77090      -10.17970       -1.45280
C          2.37860      -10.15370       -1.33010
F          1.64970      -11.11210       -1.91050
C          1.73580       -9.18190       -0.58370
F          0.39830       -9.18540       -0.53990
C          4.45690      -11.16540       -2.27540
C          4.12260      -11.44590       -3.54450
C          3.14030      -10.72660       -4.40330
O          2.53110       -9.71840       -4.13160
C          3.14740      -11.45020       -5.69320
C          2.38770      -11.21440       -6.82540
C          2.58580      -12.03190       -7.92930
C          3.52480      -13.05560       -7.90260
C          4.29130      -13.29400       -6.77030
C          4.09520      -12.48360       -5.66590
C          4.77140      -12.51740       -4.35090
O          5.65360      -13.25740       -3.98740
H         -0.57930       11.46030       -1.69550
H          2.60570        8.33260       -6.10430
H          3.80720        8.42250       -8.26540
H          4.74550        9.74330      -10.14670
H          3.42520       13.36320       -8.31310
H          2.23960       13.30480       -6.17890
H         -0.86030        7.90130        2.71740
H         -2.22210        9.52850        3.96320
H         -4.52140        8.96600        4.63400
H         -6.36230        6.06860        3.41680
H         -6.44740        7.53060        4.40980
H         -5.29900        6.32570        6.27140
H         -5.21090        4.87050        5.27940
H         -6.78230        5.49170        5.79680
H         -4.13430        5.15420        2.76560
H          1.99480       -9.43590        2.41950
H          1.00150      -11.51360        3.28410
H         -1.43850      -11.71470        3.52790
H         -3.83840       -9.36690        2.12440
H         -3.64250      -10.87850        3.02370
H         -4.81110       -9.16470        4.40080
H         -3.24920       -9.57630        5.11720
H         -3.43580       -8.06930        4.21970
H         -1.91810       -7.77590        1.97110
H          1.63090        0.42480        0.20800
H          0.58640        1.76740       -0.23110
H         -1.24730        0.17620       -0.80610
H         -0.20370       -1.18690       -0.39690
H          0.21170       -0.13440       -1.75220
H          2.18190       -0.80110        1.53270
H          2.42860       -2.17950        0.42250
H          4.12580       -2.04690        2.26650
H          2.83430       -2.22960        3.45900
H          3.21310       -3.55020        2.34660
H          5.30390      -11.67960       -1.83410
H          1.66100      -10.41680       -6.83600
H          2.00260      -11.87050       -8.82370
H          3.66010      -13.67360       -8.77770
H          5.02450      -14.08510       -6.74130
