
  xtb     02032221063D
 energy: -226.111777530173 gnorm: 0.000638173938 xtb: 6.4.1 (unknown)
121133  0     0  0            999 V2000
    0.8823    8.2991   -1.4212 C   0  0  0  0  0  0  0  0  0  0  0  0
   -0.1231    9.1989   -1.4606 C   0  0  0  0  0  0  0  0  0  0  0  0
    0.2085   10.6264   -1.7813 C   0  0  0  0  0  0  0  0  0  0  0  0
    1.2563   11.0331   -2.2205 O   0  0  0  0  0  0  0  0  0  0  0  0
   -0.9852   11.3962   -1.3983 C   0  0  0  0  0  0  0  0  0  0  0  0
   -1.1630   12.7504   -1.3852 C   0  0  0  0  0  0  0  0  0  0  0  0
   -2.3989   13.2787   -0.9523 C   0  0  0  0  0  0  0  0  0  0  0  0
   -2.6387   14.6683   -0.9287 C   0  0  0  0  0  0  0  0  0  0  0  0
   -3.8372   15.1684   -0.5021 C   0  0  0  0  0  0  0  0  0  0  0  0
   -4.8349   14.2766   -0.0834 C   0  0  0  0  0  0  0  0  0  0  0  0
   -6.0061   14.7876    0.3328 F   0  0  0  0  0  0  0  0  0  0  0  0
   -4.6549   12.9213   -0.0861 C   0  0  0  0  0  0  0  0  0  0  0  0
   -3.4275   12.3879   -0.5254 C   0  0  0  0  0  0  0  0  0  0  0  0
   -3.2166   10.9902   -0.5525 C   0  0  0  0  0  0  0  0  0  0  0  0
   -2.0168   10.4995   -0.9948 C   0  0  0  0  0  0  0  0  0  0  0  0
   -1.5459    9.1296   -1.1702 C   0  0  0  0  0  0  0  0  0  0  0  0
   -2.3559    8.0304   -1.2561 C   0  0  0  0  0  0  0  0  0  0  0  0
   -1.9382    6.7369   -1.6241 C   0  0  0  0  0  0  0  0  0  0  0  0
   -1.6753    5.6624   -1.9333 N   0  0  0  0  0  0  0  0  0  0  0  0
   -3.7527    8.0640   -1.0474 C   0  0  0  0  0  0  0  0  0  0  0  0
   -4.8883    8.0225   -0.8895 N   0  0  0  0  0  0  0  0  0  0  0  0
    0.8862    6.9549   -0.8952 C   0  0  0  0  0  0  0  0  0  0  0  0
    0.1814    6.5660    0.2494 C   0  0  0  0  0  0  0  0  0  0  0  0
   -0.4943    7.4895    0.9531 F   0  0  0  0  0  0  0  0  0  0  0  0
    0.1820    5.2563    0.6915 C   0  0  0  0  0  0  0  0  0  0  0  0
   -0.4698    4.9611    1.8233 F   0  0  0  0  0  0  0  0  0  0  0  0
    0.8548    4.2443    0.0006 C   0  0  0  0  0  0  0  0  0  0  0  0
    1.6256    4.6470   -1.0973 C   0  0  0  0  0  0  0  0  0  0  0  0
    2.3151    3.7317   -1.7870 F   0  0  0  0  0  0  0  0  0  0  0  0
    1.6548    5.9632   -1.5187 C   0  0  0  0  0  0  0  0  0  0  0  0
    2.3760    6.2933   -2.5963 F   0  0  0  0  0  0  0  0  0  0  0  0
    0.7629    2.8416    0.3710 C   0  0  0  0  0  0  0  0  0  0  0  0
    2.2554    1.9736    0.6655 S   0  0  0  0  0  0  0  0  0  0  0  0
    1.3499    0.5375    0.8518 C   0  0  0  0  0  0  0  0  0  0  0  0
    1.6034   -0.8210    1.0916 C   0  0  0  0  0  0  0  0  0  0  0  0
    2.7885   -1.5071    1.4301 C   0  0  0  0  0  0  0  0  0  0  0  0
    2.7102   -2.9070    1.7290 C   0  0  0  0  0  0  0  0  0  0  0  0
    3.8850   -3.4217    2.0578 N   0  0  0  0  0  0  0  0  0  0  0  0
    4.9958   -2.2457    1.9979 S   0  0  0  0  0  0  0  0  0  0  0  0
    4.0198   -1.0326    1.5482 N   0  0  0  0  0  0  0  0  0  0  0  0
    1.4801   -3.5714    1.5404 C   0  0  0  0  0  0  0  0  0  0  0  0
    1.1707   -4.9377    1.5479 C   0  0  0  0  0  0  0  0  0  0  0  0
    1.9397   -6.4456    1.9020 S   0  0  0  0  0  0  0  0  0  0  0  0
    0.5511   -7.2845    1.2481 C   0  0  0  0  0  0  0  0  0  0  0  0
    0.3209   -8.6385    0.9271 C   0  0  0  0  0  0  0  0  0  0  0  0
    1.1252   -9.8008    1.4282 C   0  0  0  0  0  0  0  0  0  0  0  0
    2.6357   -9.5968    1.3941 C   0  0  0  0  0  0  0  0  0  0  0  0
   -0.8207   -8.7755    0.1719 C   0  0  0  0  0  0  0  0  0  0  0  0
   -1.7078   -7.2692   -0.0067 S   0  0  0  0  0  0  0  0  0  0  0  0
   -0.4470   -6.4154    0.8022 C   0  0  0  0  0  0  0  0  0  0  0  0
   -0.1120   -5.0704    1.0144 C   0  0  0  0  0  0  0  0  0  0  0  0
   -0.6427   -3.8375    0.7557 N   0  0  0  0  0  0  0  0  0  0  0  0
    0.3181   -2.8913    1.0754 C   0  0  0  0  0  0  0  0  0  0  0  0
    0.3517   -1.4745    0.9964 C   0  0  0  0  0  0  0  0  0  0  0  0
   -0.6420   -0.5261    0.7840 N   0  0  0  0  0  0  0  0  0  0  0  0
   -0.0274    0.7142    0.6852 C   0  0  0  0  0  0  0  0  0  0  0  0
   -0.3764    2.0617    0.4126 C   0  0  0  0  0  0  0  0  0  0  0  0
   -1.7199    2.6122    0.0328 C   0  0  0  0  0  0  0  0  0  0  0  0
   -2.6719    2.8403    1.2089 C   0  0  0  0  0  0  0  0  0  0  0  0
   -2.0031   -0.7144    1.2491 C   0  0  0  0  0  0  0  0  0  0  0  0
   -3.0768   -0.6133    0.1633 C   0  0  0  0  0  0  0  0  0  0  0  0
   -1.7833   -3.7217   -0.1274 C   0  0  0  0  0  0  0  0  0  0  0  0
   -1.3565   -3.3161   -1.5345 C   0  0  0  0  0  0  0  0  0  0  0  0
   -1.2163   -9.8999   -0.6519 C   0  0  0  0  0  0  0  0  0  0  0  0
   -0.3737  -10.4564   -1.5417 C   0  0  0  0  0  0  0  0  0  0  0  0
    0.9529   -9.9634   -1.8244 C   0  0  0  0  0  0  0  0  0  0  0  0
    1.2829   -8.6505   -1.8687 C   0  0  0  0  0  0  0  0  0  0  0  0
    2.6259   -8.1989   -1.8572 C   0  0  0  0  0  0  0  0  0  0  0  0
    3.0027   -6.9068   -1.6223 C   0  0  0  0  0  0  0  0  0  0  0  0
    2.0966   -5.7333   -1.6229 C   0  0  0  0  0  0  0  0  0  0  0  0
    0.8834   -5.7277   -1.7189 O   0  0  0  0  0  0  0  0  0  0  0  0
    2.9722   -4.5520   -1.5161 C   0  0  0  0  0  0  0  0  0  0  0  0
    2.6407   -3.2146   -1.6140 C   0  0  0  0  0  0  0  0  0  0  0  0
    3.6500   -2.2578   -1.5440 C   0  0  0  0  0  0  0  0  0  0  0  0
    3.3630   -0.8040   -1.7331 C   0  0  0  0  0  0  0  0  0  0  0  0
    4.9620   -2.6791   -1.3231 C   0  0  0  0  0  0  0  0  0  0  0  0
    5.3032   -4.0175   -1.2182 C   0  0  0  0  0  0  0  0  0  0  0  0
    4.3029   -4.9708   -1.3418 C   0  0  0  0  0  0  0  0  0  0  0  0
    4.3503   -6.4271   -1.3634 C   0  0  0  0  0  0  0  0  0  0  0  0
    5.4604   -7.1915   -1.1204 C   0  0  0  0  0  0  0  0  0  0  0  0
    6.7379   -6.6639   -0.8350 C   0  0  0  0  0  0  0  0  0  0  0  0
    7.8043   -6.3074   -0.6046 N   0  0  0  0  0  0  0  0  0  0  0  0
    5.4944   -8.6012   -1.0984 C   0  0  0  0  0  0  0  0  0  0  0  0
    5.5988   -9.7443   -1.0545 N   0  0  0  0  0  0  0  0  0  0  0  0
    1.8277    8.6426   -1.8313 H   0  0  0  0  0  0  0  0  0  0  0  0
   -0.3693   13.4100   -1.7024 H   0  0  0  0  0  0  0  0  0  0  0  0
   -1.8553   15.3352   -1.2556 H   0  0  0  0  0  0  0  0  0  0  0  0
   -4.0372   16.2279   -0.4782 H   0  0  0  0  0  0  0  0  0  0  0  0
   -5.4461   12.2643    0.2395 H   0  0  0  0  0  0  0  0  0  0  0  0
   -4.0078   10.3416   -0.2121 H   0  0  0  0  0  0  0  0  0  0  0  0
    0.8583  -10.6886    0.8530 H   0  0  0  0  0  0  0  0  0  0  0  0
    0.8235   -9.9806    2.4663 H   0  0  0  0  0  0  0  0  0  0  0  0
    2.9713   -9.3401    0.3942 H   0  0  0  0  0  0  0  0  0  0  0  0
    3.1354  -10.5134    1.6971 H   0  0  0  0  0  0  0  0  0  0  0  0
    2.9381   -8.8047    2.0736 H   0  0  0  0  0  0  0  0  0  0  0  0
   -1.5723    3.5651   -0.4796 H   0  0  0  0  0  0  0  0  0  0  0  0
   -2.1779    1.9327   -0.6886 H   0  0  0  0  0  0  0  0  0  0  0  0
   -2.9284    1.9134    1.7131 H   0  0  0  0  0  0  0  0  0  0  0  0
   -3.5899    3.2961    0.8448 H   0  0  0  0  0  0  0  0  0  0  0  0
   -2.2278    3.5060    1.9412 H   0  0  0  0  0  0  0  0  0  0  0  0
   -2.0378   -1.6917    1.7348 H   0  0  0  0  0  0  0  0  0  0  0  0
   -2.2010    0.0297    2.0282 H   0  0  0  0  0  0  0  0  0  0  0  0
   -2.7328   -1.0466   -0.7709 H   0  0  0  0  0  0  0  0  0  0  0  0
   -3.9736   -1.1376    0.4859 H   0  0  0  0  0  0  0  0  0  0  0  0
   -3.3521    0.4180   -0.0248 H   0  0  0  0  0  0  0  0  0  0  0  0
   -2.2470   -4.7100   -0.1650 H   0  0  0  0  0  0  0  0  0  0  0  0
   -2.5177   -3.0277    0.2752 H   0  0  0  0  0  0  0  0  0  0  0  0
   -0.6570   -4.0517   -1.9245 H   0  0  0  0  0  0  0  0  0  0  0  0
   -2.2240   -3.2794   -2.1881 H   0  0  0  0  0  0  0  0  0  0  0  0
   -0.8776   -2.3386   -1.5268 H   0  0  0  0  0  0  0  0  0  0  0  0
   -2.2288  -10.2687   -0.5524 H   0  0  0  0  0  0  0  0  0  0  0  0
   -0.6740  -11.3588   -2.0588 H   0  0  0  0  0  0  0  0  0  0  0  0
    1.7210  -10.7095   -1.9972 H   0  0  0  0  0  0  0  0  0  0  0  0
    0.5119   -7.8988   -1.8082 H   0  0  0  0  0  0  0  0  0  0  0  0
    3.3936   -8.9571   -1.9523 H   0  0  0  0  0  0  0  0  0  0  0  0
    1.6125   -2.9222   -1.7639 H   0  0  0  0  0  0  0  0  0  0  0  0
    3.7636   -0.2237   -0.9034 H   0  0  0  0  0  0  0  0  0  0  0  0
    2.2950   -0.6189   -1.8112 H   0  0  0  0  0  0  0  0  0  0  0  0
    3.8436   -0.4486   -2.6442 H   0  0  0  0  0  0  0  0  0  0  0  0
    5.7385   -1.9318   -1.2479 H   0  0  0  0  0  0  0  0  0  0  0  0
    6.3322   -4.2970   -1.0625 H   0  0  0  0  0  0  0  0  0  0  0  0
  1  2  2  0  0  0  0
  2  3  1  0  0  0  0
  3  4  2  0  0  0  0
  3  5  1  0  0  0  0
  5  6  2  0  0  0  0
  6  7  1  0  0  0  0
  7  8  2  0  0  0  0
  8  9  1  0  0  0  0
  9 10  2  0  0  0  0
 10 11  1  0  0  0  0
 10 12  1  0  0  0  0
 12 13  2  0  0  0  0
 13 14  1  0  0  0  0
 14 15  2  0  0  0  0
 15 16  1  0  0  0  0
 16 17  2  0  0  0  0
 17 18  1  0  0  0  0
 18 19  3  0  0  0  0
 17 20  1  0  0  0  0
 20 21  3  0  0  0  0
  1 22  1  0  0  0  0
 22 23  2  0  0  0  0
 23 24  1  0  0  0  0
 23 25  1  0  0  0  0
 25 26  1  0  0  0  0
 25 27  2  0  0  0  0
 27 28  1  0  0  0  0
 28 29  1  0  0  0  0
 28 30  2  0  0  0  0
 30 31  1  0  0  0  0
 27 32  1  0  0  0  0
 32 33  1  0  0  0  0
 33 34  1  0  0  0  0
 34 35  1  0  0  0  0
 35 36  1  0  0  0  0
 36 37  1  0  0  0  0
 37 38  2  0  0  0  0
 38 39  1  0  0  0  0
 39 40  1  0  0  0  0
 37 41  1  0  0  0  0
 41 42  1  0  0  0  0
 42 43  1  0  0  0  0
 43 44  1  0  0  0  0
 44 45  1  0  0  0  0
 45 46  1  0  0  0  0
 46 47  1  0  0  0  0
 45 48  2  0  0  0  0
 48 49  1  0  0  0  0
 49 50  1  0  0  0  0
 50 51  1  0  0  0  0
 51 52  1  0  0  0  0
 52 53  1  0  0  0  0
 53 54  1  0  0  0  0
 54 55  1  0  0  0  0
 55 56  1  0  0  0  0
 56 57  1  0  0  0  0
 57 58  1  0  0  0  0
 58 59  1  0  0  0  0
 55 60  1  0  0  0  0
 60 61  1  0  0  0  0
 52 62  1  0  0  0  0
 62 63  1  0  0  0  0
 48 64  1  0  0  0  0
 64 65  2  0  0  0  0
 65 66  1  0  0  0  0
 66 67  2  0  0  0  0
 67 68  1  0  0  0  0
 68 69  2  0  0  0  0
 69 70  1  0  0  0  0
 70 71  2  0  0  0  0
 70 72  1  0  0  0  0
 72 73  2  0  0  0  0
 73 74  1  0  0  0  0
 74 75  1  0  0  0  0
 74 76  2  0  0  0  0
 76 77  1  0  0  0  0
 77 78  2  0  0  0  0
 78 79  1  0  0  0  0
 79 80  2  0  0  0  0
 80 81  1  0  0  0  0
 81 82  3  0  0  0  0
 80 83  1  0  0  0  0
 83 84  3  0  0  0  0
 16  2  1  0  0  0  0
 30 22  1  0  0  0  0
 57 32  2  0  0  0  0
 79 69  1  0  0  0  0
 15  5  1  0  0  0  0
 56 34  2  0  0  0  0
 78 72  1  0  0  0  0
 13  7  1  0  0  0  0
 54 35  2  0  0  0  0
 40 36  2  0  0  0  0
 53 41  2  0  0  0  0
 51 42  2  0  0  0  0
 50 44  2  0  0  0  0
  1 85  1  0  0  0  0
  6 86  1  0  0  0  0
  8 87  1  0  0  0  0
  9 88  1  0  0  0  0
 12 89  1  0  0  0  0
 14 90  1  0  0  0  0
 46 91  1  0  0  0  0
 46 92  1  0  0  0  0
 47 93  1  0  0  0  0
 47 94  1  0  0  0  0
 47 95  1  0  0  0  0
 58 96  1  0  0  0  0
 58 97  1  0  0  0  0
 59 98  1  0  0  0  0
 59 99  1  0  0  0  0
 59100  1  0  0  0  0
 60101  1  0  0  0  0
 60102  1  0  0  0  0
 61103  1  0  0  0  0
 61104  1  0  0  0  0
 61105  1  0  0  0  0
 62106  1  0  0  0  0
 62107  1  0  0  0  0
 63108  1  0  0  0  0
 63109  1  0  0  0  0
 63110  1  0  0  0  0
 64111  1  0  0  0  0
 65112  1  0  0  0  0
 66113  1  0  0  0  0
 67114  1  0  0  0  0
 68115  1  0  0  0  0
 73116  1  0  0  0  0
 75117  1  0  0  0  0
 75118  1  0  0  0  0
 75119  1  0  0  0  0
 76120  1  0  0  0  0
 77121  1  0  0  0  0
M  END
