146

C          8.91500       -4.05840        0.74060
C          8.91060       -4.00550       -0.61040
C          7.65890       -3.98010       -1.43370
O          6.51810       -4.01360       -1.03180
C          8.10780       -4.02700       -2.83200
C          7.34600       -3.99650       -3.96560
C          7.98270       -4.03980       -5.22430
C          7.24590       -3.99290       -6.42600
C          7.87480       -4.03470       -7.63880
C          9.27360       -4.12640       -7.67510
F          9.87350       -4.16600       -8.87710
C         10.03540       -4.17530       -6.54080
C          9.40480       -4.13090       -5.28180
C         10.16660       -4.17010       -4.09130
C          9.52860       -4.11190       -2.87930
C         10.04710       -4.10060       -1.51640
C         11.36730       -4.09240       -1.16040
C         11.84740       -4.00330        0.16460
N         12.30850       -3.91620        1.21180
C         12.43610       -4.15070       -2.08140
N         13.34560       -4.20070       -2.77910
C          7.73940       -3.77050        1.53830
C          7.37340       -4.56270        2.63000
F          8.15050       -5.60160        2.96220
C          6.21390       -4.32690        3.34790
F          5.94840       -5.10320        4.40700
C          5.34500       -3.27600        3.01960
C          5.77560       -2.41980        1.99270
F          5.03400       -1.35270        1.65970
C          6.92780       -2.66130        1.27300
F          7.29300       -1.78520        0.32990
C          4.05620       -3.10030        3.64680
C          3.14150       -4.08970        3.96610
C          3.35390       -5.51510        3.67280
C          3.60680       -5.86460        2.34710
C          3.81930       -7.18140        1.99360
C          3.79410       -8.16280        2.97040
C          3.55520       -7.81710        4.28620
C          3.32670       -6.49860        4.66250
C          3.12180       -6.17120        6.11520
C          1.86900       -6.83580        6.68570
C          1.92690       -3.53110        4.40810
S          0.35920       -4.21700        4.77150
C         -0.29790       -2.61850        4.88560
C         -1.54770       -1.98100        5.00460
C         -2.85550       -2.45400        5.25710
C         -3.95600       -1.52620        5.22890
N         -5.11080       -2.10750        5.50960
S         -4.84450       -3.68010        5.78540
N         -3.24300       -3.68440        5.55110
C         -3.72180       -0.19380        4.81520
C         -4.59000        0.81390        4.35930
S         -6.28560        1.07770        4.11440
C         -5.91060        2.50740        3.17690
C         -6.69490        3.39940        2.41440
C         -8.16240        3.41480        2.37460
C         -8.92430        2.29830        2.01930
C         -8.30470        1.03440        1.49090
C         -8.83220        0.67800        0.10040
C        -10.30800        2.39330        2.11260
C        -10.93090        3.56250        2.50430
C        -10.17120        4.67970        2.80850
C         -8.79510        4.60030        2.74790
C         -5.90470        4.36150        1.81560
S         -4.20130        4.19330        2.20550
C         -4.54200        2.78730        3.13750
C         -3.78840        1.82240        3.81420
N         -2.46590        1.50350        3.95550
C         -2.40050        0.26740        4.56400
C         -1.30600       -0.59530        4.80710
N          0.05490       -0.38230        4.67960
C          0.65590       -1.61480        4.68970
C          1.92610       -2.13320        4.42420
S          3.43920       -1.48270        3.92480
C          0.79650        0.79890        5.06870
C          1.48830        0.59990        6.41680
C         -1.45850        2.23510        3.22040
C         -1.13140        3.57630        3.87470
C         -6.25060        5.35360        0.82330
C         -5.65350        6.62380        0.81890
F         -4.87690        6.98540        1.85130
C         -5.83430        7.51470       -0.22100
F         -5.21600        8.70190       -0.18180
C         -6.59140        7.18270       -1.35290
C         -7.25050        5.94920       -1.31320
F         -8.07190        5.60830       -2.31620
C         -7.09170        5.06610       -0.25960
F         -7.69920        3.87740       -0.33420
C         -6.59680        8.06990       -2.49510
C         -6.50010        7.69780       -3.78540
S         -6.31680        6.07610       -4.41640
C         -5.98860        6.70300       -6.01820
C         -5.62300        5.88230       -7.04950
C         -5.52720        4.49020       -6.83980
N         -5.44390        3.35920       -6.67170
C         -5.27570        6.31380       -8.34420
N         -4.95820        6.58580       -9.41300
N         -6.11450        8.05790       -6.06550
C         -5.96970        8.80010       -7.27910
C         -6.98920        8.77450       -8.21850
C         -6.83950        9.48830       -9.39310
C         -5.68770       10.22310       -9.61730
C         -4.68450       10.25760       -8.66400
C         -4.82100        9.54630       -7.48580
C         -6.39470        8.69670       -4.87100
O         -6.51680        9.88860       -4.74900
H          9.80520       -4.33890        1.28770
H          6.27050       -3.93010       -3.89900
H          6.17000       -3.92210       -6.37190
H          7.32710       -3.99900       -8.56720
H         11.11000       -4.24380       -6.60740
H         11.23920       -4.24400       -4.17000
H          3.62890       -5.09220        1.59090
H          4.01190       -7.43720        0.96260
H          3.97180       -9.19480        2.70680
H          3.56230       -8.58390        5.04660
H          3.99620       -6.51830        6.67220
H          3.05370       -5.09130        6.25000
H          1.94410       -7.91850        6.63010
H          0.98680       -6.52650        6.13080
H          1.73840       -6.55430        7.72790
H         -8.51750        0.21340        2.18120
H         -7.22330        1.14770        1.42520
H         -9.89840        0.47120        0.12070
H         -8.32040       -0.20590       -0.27300
H         -8.65450        1.49960       -0.58810
H        -10.90910        1.52980        1.87050
H        -12.00810        3.60610        2.56640
H        -10.64710        5.60340        3.10180
H         -8.19150        5.45760        3.01250
H          0.10200        1.62940        5.15870
H          1.54470        1.02210        4.30070
H          0.75900        0.33380        7.17920
H          1.98030        1.52300        6.71060
H          2.23660       -0.18540        6.36070
H         -1.85480        2.42630        2.21660
H         -0.57210        1.61170        3.11210
H         -2.00070        4.22800        3.85100
H         -0.83100        3.45540        4.91300
H         -0.32490        4.06070        3.33200
H         -6.57400        9.13470       -2.29640
H         -7.88180        8.19560       -8.03240
H         -7.62330        9.46610      -10.13390
H         -5.57210       10.77210      -10.53910
H         -3.78930       10.83460       -8.83740
H         -4.04640        9.56250       -6.73400
