
  xtb     02042222203D
 energy: -285.506681200212 gnorm: 0.000862046617 xtb: 6.4.1 (unknown)
143159  0     0  0            999 V2000
   -1.6004  -10.6668   -2.2653 C   0  0  0  0  0  0  0  0  0  0  0  0
   -2.5216  -10.6311   -3.2516 C   0  0  0  0  0  0  0  0  0  0  0  0
   -3.5501   -9.5490   -3.3695 C   0  0  0  0  0  0  0  0  0  0  0  0
   -3.6975   -8.5986   -2.6335 O   0  0  0  0  0  0  0  0  0  0  0  0
   -4.4129   -9.9475   -4.4890 C   0  0  0  0  0  0  0  0  0  0  0  0
   -5.4904   -9.2843   -5.0046 C   0  0  0  0  0  0  0  0  0  0  0  0
   -6.1833   -9.8434   -6.0995 C   0  0  0  0  0  0  0  0  0  0  0  0
   -7.2921   -9.1936   -6.6805 C   0  0  0  0  0  0  0  0  0  0  0  0
   -7.9544   -9.7454   -7.7412 C   0  0  0  0  0  0  0  0  0  0  0  0
   -7.5157  -10.9764   -8.2496 C   0  0  0  0  0  0  0  0  0  0  0  0
   -8.1802  -11.5026   -9.2922 F   0  0  0  0  0  0  0  0  0  0  0  0
   -6.4469  -11.6481   -7.7242 C   0  0  0  0  0  0  0  0  0  0  0  0
   -5.7508  -11.0938   -6.6321 C   0  0  0  0  0  0  0  0  0  0  0  0
   -4.6379  -11.7619   -6.0717 C   0  0  0  0  0  0  0  0  0  0  0  0
   -3.9718  -11.1952   -5.0160 C   0  0  0  0  0  0  0  0  0  0  0  0
   -2.8012  -11.6369   -4.2680 C   0  0  0  0  0  0  0  0  0  0  0  0
   -2.0537  -12.7515   -4.5267 C   0  0  0  0  0  0  0  0  0  0  0  0
   -0.8827  -13.1165   -3.8267 C   0  0  0  0  0  0  0  0  0  0  0  0
    0.0806  -13.4663   -3.3105 N   0  0  0  0  0  0  0  0  0  0  0  0
   -2.3455  -13.6817   -5.5484 C   0  0  0  0  0  0  0  0  0  0  0  0
   -2.5305  -14.4740   -6.3573 N   0  0  0  0  0  0  0  0  0  0  0  0
   -1.3292   -9.5075   -1.4305 C   0  0  0  0  0  0  0  0  0  0  0  0
   -1.3375   -9.5827   -0.0365 C   0  0  0  0  0  0  0  0  0  0  0  0
   -1.5582  -10.7688    0.5448 F   0  0  0  0  0  0  0  0  0  0  0  0
   -1.1818   -8.4536    0.7480 C   0  0  0  0  0  0  0  0  0  0  0  0
   -1.2101   -8.5796    2.0809 F   0  0  0  0  0  0  0  0  0  0  0  0
   -0.9804   -7.1893    0.1781 C   0  0  0  0  0  0  0  0  0  0  0  0
   -0.8592   -7.1381   -1.2166 C   0  0  0  0  0  0  0  0  0  0  0  0
   -0.6161   -5.9623   -1.8132 F   0  0  0  0  0  0  0  0  0  0  0  0
   -1.0513   -8.2602   -1.9988 C   0  0  0  0  0  0  0  0  0  0  0  0
   -0.9516   -8.1538   -3.3296 F   0  0  0  0  0  0  0  0  0  0  0  0
   -0.9662   -5.9898    0.9869 C   0  0  0  0  0  0  0  0  0  0  0  0
   -1.8719   -5.6659    1.9795 C   0  0  0  0  0  0  0  0  0  0  0  0
   -3.0581   -6.4632    2.2910 C   0  0  0  0  0  0  0  0  0  0  0  0
   -3.4490   -6.6704    3.6096 C   0  0  0  0  0  0  0  0  0  0  0  0
   -4.5554   -7.4536    3.8807 C   0  0  0  0  0  0  0  0  0  0  0  0
   -5.2751   -8.0322    2.8502 C   0  0  0  0  0  0  0  0  0  0  0  0
   -4.9099   -7.8184    1.5260 C   0  0  0  0  0  0  0  0  0  0  0  0
   -5.7084   -8.4002    0.3951 C   0  0  0  0  0  0  0  0  0  0  0  0
   -6.8774   -7.4810    0.0365 C   0  0  0  0  0  0  0  0  0  0  0  0
   -3.8091   -7.0217    1.2594 C   0  0  0  0  0  0  0  0  0  0  0  0
   -1.5663   -4.4145    2.5503 C   0  0  0  0  0  0  0  0  0  0  0  0
   -2.3576   -3.4399    3.7650 S   0  0  0  0  0  0  0  0  0  0  0  0
   -1.2039   -2.1832    3.4721 C   0  0  0  0  0  0  0  0  0  0  0  0
   -0.9643   -0.8506    3.8448 C   0  0  0  0  0  0  0  0  0  0  0  0
   -1.7137    0.0270    4.6581 C   0  0  0  0  0  0  0  0  0  0  0  0
   -1.3541    1.4149    4.6922 C   0  0  0  0  0  0  0  0  0  0  0  0
   -2.1830    2.1345    5.4324 N   0  0  0  0  0  0  0  0  0  0  0  0
   -3.3138    1.1486    6.0405 S   0  0  0  0  0  0  0  0  0  0  0  0
   -2.7931   -0.2338    5.3790 N   0  0  0  0  0  0  0  0  0  0  0  0
   -0.1900    1.8334    4.0123 C   0  0  0  0  0  0  0  0  0  0  0  0
    0.4387    3.0862    3.9445 C   0  0  0  0  0  0  0  0  0  0  0  0
    0.1699    4.7132    4.4654 S   0  0  0  0  0  0  0  0  0  0  0  0
    1.6970    5.1653    3.7518 C   0  0  0  0  0  0  0  0  0  0  0  0
    2.3556    6.4031    3.6156 C   0  0  0  0  0  0  0  0  0  0  0  0
    1.8039    7.6963    4.0184 C   0  0  0  0  0  0  0  0  0  0  0  0
    1.1782    7.8498    5.2513 C   0  0  0  0  0  0  0  0  0  0  0  0
    0.6850    9.0876    5.6197 C   0  0  0  0  0  0  0  0  0  0  0  0
    0.8090   10.1734    4.7710 C   0  0  0  0  0  0  0  0  0  0  0  0
    1.4152   10.0331    3.5278 C   0  0  0  0  0  0  0  0  0  0  0  0
    1.5119   11.1903    2.5755 C   0  0  0  0  0  0  0  0  0  0  0  0
    0.2350   11.3024    1.7403 C   0  0  0  0  0  0  0  0  0  0  0  0
    1.8971    8.7884    3.1587 C   0  0  0  0  0  0  0  0  0  0  0  0
    3.5502    6.2536    2.9371 C   0  0  0  0  0  0  0  0  0  0  0  0
    3.8529    4.6079    2.4312 S   0  0  0  0  0  0  0  0  0  0  0  0
    2.3696    4.0960    3.1526 C   0  0  0  0  0  0  0  0  0  0  0  0
    1.6388    2.9045    3.2518 C   0  0  0  0  0  0  0  0  0  0  0  0
    1.7644    1.5946    2.8713 N   0  0  0  0  0  0  0  0  0  0  0  0
    0.6347    0.9186    3.2976 C   0  0  0  0  0  0  0  0  0  0  0  0
    0.1734   -0.4116    3.1096 C   0  0  0  0  0  0  0  0  0  0  0  0
    0.6013   -1.4553    2.3019 N   0  0  0  0  0  0  0  0  0  0  0  0
   -0.2474   -2.5113    2.5095 C   0  0  0  0  0  0  0  0  0  0  0  0
   -0.4569   -3.7889    1.9754 C   0  0  0  0  0  0  0  0  0  0  0  0
    0.2445   -4.7547    0.7291 S   0  0  0  0  0  0  0  0  0  0  0  0
    1.3424   -1.4208    1.0597 C   0  0  0  0  0  0  0  0  0  0  0  0
    0.5093   -0.7933   -0.0560 C   0  0  0  0  0  0  0  0  0  0  0  0
    3.0548    1.0886    2.4603 C   0  0  0  0  0  0  0  0  0  0  0  0
    3.3709    1.4147    1.0010 C   0  0  0  0  0  0  0  0  0  0  0  0
    4.4928    7.3093    2.6356 C   0  0  0  0  0  0  0  0  0  0  0  0
    4.8702    8.2424    3.6109 C   0  0  0  0  0  0  0  0  0  0  0  0
    4.4650    8.0750    4.8760 F   0  0  0  0  0  0  0  0  0  0  0  0
    5.6712    9.3265    3.3005 C   0  0  0  0  0  0  0  0  0  0  0  0
    5.9925   10.2094    4.2548 F   0  0  0  0  0  0  0  0  0  0  0  0
    6.1105    9.5570    1.9957 C   0  0  0  0  0  0  0  0  0  0  0  0
    5.7909    8.5923    1.0353 C   0  0  0  0  0  0  0  0  0  0  0  0
    6.2544    8.7329   -0.2124 F   0  0  0  0  0  0  0  0  0  0  0  0
    5.0256    7.4861    1.3524 C   0  0  0  0  0  0  0  0  0  0  0  0
    4.7357    6.5958    0.3933 F   0  0  0  0  0  0  0  0  0  0  0  0
    6.8667   10.7498    1.6466 C   0  0  0  0  0  0  0  0  0  0  0  0
    6.4954   11.5605    0.6341 C   0  0  0  0  0  0  0  0  0  0  0  0
    5.1472   11.4962   -0.0149 C   0  0  0  0  0  0  0  0  0  0  0  0
    4.2450   10.7335    0.2480 O   0  0  0  0  0  0  0  0  0  0  0  0
    5.1114   12.6296   -0.9497 C   0  0  0  0  0  0  0  0  0  0  0  0
    4.0856   13.0169   -1.7940 C   0  0  0  0  0  0  0  0  0  0  0  0
    4.2708   14.1305   -2.5948 C   0  0  0  0  0  0  0  0  0  0  0  0
    5.4680   14.8392   -2.5316 C   0  0  0  0  0  0  0  0  0  0  0  0
    5.6766   16.2220   -3.5326 Cl  0  0  0  0  0  0  0  0  0  0  0  0
    6.5043   14.4650   -1.6816 C   0  0  0  0  0  0  0  0  0  0  0  0
    6.3208   13.3465   -0.8846 C   0  0  0  0  0  0  0  0  0  0  0  0
    7.2075   12.7067    0.0834 C   0  0  0  0  0  0  0  0  0  0  0  0
    8.4915   13.0736    0.3669 C   0  0  0  0  0  0  0  0  0  0  0  0
    9.1499   14.1805   -0.2149 C   0  0  0  0  0  0  0  0  0  0  0  0
    9.7353   15.0667   -0.6475 N   0  0  0  0  0  0  0  0  0  0  0  0
    9.3441   12.3904    1.2635 C   0  0  0  0  0  0  0  0  0  0  0  0
   10.0908   11.8791    1.9687 N   0  0  0  0  0  0  0  0  0  0  0  0
   -1.0390  -11.5645   -2.0444 H   0  0  0  0  0  0  0  0  0  0  0  0
   -5.8027   -8.3398   -4.5848 H   0  0  0  0  0  0  0  0  0  0  0  0
   -7.6106   -8.2466   -6.2716 H   0  0  0  0  0  0  0  0  0  0  0  0
   -8.8034   -9.2619   -8.1979 H   0  0  0  0  0  0  0  0  0  0  0  0
   -6.1364  -12.5927   -8.1427 H   0  0  0  0  0  0  0  0  0  0  0  0
   -4.3397  -12.7081   -6.4939 H   0  0  0  0  0  0  0  0  0  0  0  0
   -2.8729   -6.2398    4.4141 H   0  0  0  0  0  0  0  0  0  0  0  0
   -4.8525   -7.6217    4.9052 H   0  0  0  0  0  0  0  0  0  0  0  0
   -6.1291   -8.6557    3.0730 H   0  0  0  0  0  0  0  0  0  0  0  0
   -5.0691   -8.5242   -0.4820 H   0  0  0  0  0  0  0  0  0  0  0  0
   -6.0949   -9.3804    0.6829 H   0  0  0  0  0  0  0  0  0  0  0  0
   -7.5292   -7.3406    0.8962 H   0  0  0  0  0  0  0  0  0  0  0  0
   -7.4602   -7.9079   -0.7765 H   0  0  0  0  0  0  0  0  0  0  0  0
   -6.5070   -6.5072   -0.2755 H   0  0  0  0  0  0  0  0  0  0  0  0
   -3.5399   -6.8285    0.2305 H   0  0  0  0  0  0  0  0  0  0  0  0
    1.1027    7.0092    5.9235 H   0  0  0  0  0  0  0  0  0  0  0  0
    0.2074    9.2073    6.5807 H   0  0  0  0  0  0  0  0  0  0  0  0
    0.4317   11.1396    5.0735 H   0  0  0  0  0  0  0  0  0  0  0  0
    2.3653   11.0492    1.9084 H   0  0  0  0  0  0  0  0  0  0  0  0
    1.6596   12.1166    3.1350 H   0  0  0  0  0  0  0  0  0  0  0  0
   -0.6302   11.4438    2.3845 H   0  0  0  0  0  0  0  0  0  0  0  0
    0.3015   12.1455    1.0566 H   0  0  0  0  0  0  0  0  0  0  0  0
    0.0851   10.3953    1.1596 H   0  0  0  0  0  0  0  0  0  0  0  0
    2.3421    8.6686    2.1810 H   0  0  0  0  0  0  0  0  0  0  0  0
    2.2807   -0.8897    1.1768 H   0  0  0  0  0  0  0  0  0  0  0  0
    1.5758   -2.4576    0.8037 H   0  0  0  0  0  0  0  0  0  0  0  0
    0.2331    0.2277    0.2006 H   0  0  0  0  0  0  0  0  0  0  0  0
   -0.4017   -1.3660   -0.2127 H   0  0  0  0  0  0  0  0  0  0  0  0
    1.0755   -0.7863   -0.9833 H   0  0  0  0  0  0  0  0  0  0  0  0
    3.8121    1.5647    3.0939 H   0  0  0  0  0  0  0  0  0  0  0  0
    3.0915    0.0172    2.6630 H   0  0  0  0  0  0  0  0  0  0  0  0
    4.2974    0.9280    0.7084 H   0  0  0  0  0  0  0  0  0  0  0  0
    3.4964    2.4867    0.8768 H   0  0  0  0  0  0  0  0  0  0  0  0
    2.5752    1.0908    0.3367 H   0  0  0  0  0  0  0  0  0  0  0  0
    7.7310   10.9680    2.2595 H   0  0  0  0  0  0  0  0  0  0  0  0
    3.1680   12.4503   -1.8234 H   0  0  0  0  0  0  0  0  0  0  0  0
    3.4962   14.4569   -3.2705 H   0  0  0  0  0  0  0  0  0  0  0  0
    7.4127   15.0439   -1.6587 H   0  0  0  0  0  0  0  0  0  0  0  0
  1  2  2  0  0  0  0
  2  3  1  0  0  0  0
  3  4  2  0  0  0  0
  3  5  1  0  0  0  0
  5  6  2  0  0  0  0
  6  7  1  0  0  0  0
  7  8  2  0  0  0  0
  8  9  1  0  0  0  0
  9 10  2  0  0  0  0
 10 11  1  0  0  0  0
 10 12  1  0  0  0  0
 12 13  2  0  0  0  0
 13 14  1  0  0  0  0
 14 15  2  0  0  0  0
 15 16  1  0  0  0  0
 16 17  2  0  0  0  0
 17 18  1  0  0  0  0
 18 19  3  0  0  0  0
 17 20  1  0  0  0  0
 20 21  3  0  0  0  0
  1 22  1  0  0  0  0
 22 23  2  0  0  0  0
 23 24  1  0  0  0  0
 23 25  1  0  0  0  0
 25 26  1  0  0  0  0
 25 27  2  0  0  0  0
 27 28  1  0  0  0  0
 28 29  1  0  0  0  0
 28 30  2  0  0  0  0
 30 31  1  0  0  0  0
 27 32  1  0  0  0  0
 32 33  2  0  0  0  0
 33 34  1  0  0  0  0
 34 35  2  0  0  0  0
 35 36  1  0  0  0  0
 36 37  2  0  0  0  0
 37 38  1  0  0  0  0
 38 39  1  0  0  0  0
 39 40  1  0  0  0  0
 38 41  2  0  0  0  0
 33 42  1  0  0  0  0
 42 43  1  0  0  0  0
 43 44  1  0  0  0  0
 44 45  1  0  0  0  0
 45 46  1  0  0  0  0
 46 47  1  0  0  0  0
 47 48  2  0  0  0  0
 48 49  1  0  0  0  0
 49 50  1  0  0  0  0
 47 51  1  0  0  0  0
 51 52  1  0  0  0  0
 52 53  1  0  0  0  0
 53 54  1  0  0  0  0
 54 55  1  0  0  0  0
 55 56  1  0  0  0  0
 56 57  2  0  0  0  0
 57 58  1  0  0  0  0
 58 59  2  0  0  0  0
 59 60  1  0  0  0  0
 60 61  1  0  0  0  0
 61 62  1  0  0  0  0
 60 63  2  0  0  0  0
 55 64  2  0  0  0  0
 64 65  1  0  0  0  0
 65 66  1  0  0  0  0
 66 67  1  0  0  0  0
 67 68  1  0  0  0  0
 68 69  1  0  0  0  0
 69 70  1  0  0  0  0
 70 71  1  0  0  0  0
 71 72  1  0  0  0  0
 72 73  1  0  0  0  0
 73 74  1  0  0  0  0
 71 75  1  0  0  0  0
 75 76  1  0  0  0  0
 68 77  1  0  0  0  0
 77 78  1  0  0  0  0
 64 79  1  0  0  0  0
 79 80  2  0  0  0  0
 80 81  1  0  0  0  0
 80 82  1  0  0  0  0
 82 83  1  0  0  0  0
 82 84  2  0  0  0  0
 84 85  1  0  0  0  0
 85 86  1  0  0  0  0
 85 87  2  0  0  0  0
 87 88  1  0  0  0  0
 84 89  1  0  0  0  0
 89 90  2  0  0  0  0
 90 91  1  0  0  0  0
 91 92  2  0  0  0  0
 91 93  1  0  0  0  0
 93 94  2  0  0  0  0
 94 95  1  0  0  0  0
 95 96  2  0  0  0  0
 96 97  1  0  0  0  0
 96 98  1  0  0  0  0
 98 99  2  0  0  0  0
 99100  1  0  0  0  0
100101  2  0  0  0  0
101102  1  0  0  0  0
102103  3  0  0  0  0
101104  1  0  0  0  0
104105  3  0  0  0  0
 16  2  1  0  0  0  0
 30 22  1  0  0  0  0
 74 32  1  0  0  0  0
 87 79  1  0  0  0  0
100 90  1  0  0  0  0
 15  5  1  0  0  0  0
 41 34  1  0  0  0  0
 73 42  2  0  0  0  0
 99 93  1  0  0  0  0
 13  7  1  0  0  0  0
 72 44  2  0  0  0  0
 70 45  2  0  0  0  0
 50 46  2  0  0  0  0
 69 51  2  0  0  0  0
 67 52  2  0  0  0  0
 66 54  2  0  0  0  0
 63 56  1  0  0  0  0
  1106  1  0  0  0  0
  6107  1  0  0  0  0
  8108  1  0  0  0  0
  9109  1  0  0  0  0
 12110  1  0  0  0  0
 14111  1  0  0  0  0
 35112  1  0  0  0  0
 36113  1  0  0  0  0
 37114  1  0  0  0  0
 39115  1  0  0  0  0
 39116  1  0  0  0  0
 40117  1  0  0  0  0
 40118  1  0  0  0  0
 40119  1  0  0  0  0
 41120  1  0  0  0  0
 57121  1  0  0  0  0
 58122  1  0  0  0  0
 59123  1  0  0  0  0
 61124  1  0  0  0  0
 61125  1  0  0  0  0
 62126  1  0  0  0  0
 62127  1  0  0  0  0
 62128  1  0  0  0  0
 63129  1  0  0  0  0
 75130  1  0  0  0  0
 75131  1  0  0  0  0
 76132  1  0  0  0  0
 76133  1  0  0  0  0
 76134  1  0  0  0  0
 77135  1  0  0  0  0
 77136  1  0  0  0  0
 78137  1  0  0  0  0
 78138  1  0  0  0  0
 78139  1  0  0  0  0
 89140  1  0  0  0  0
 94141  1  0  0  0  0
 95142  1  0  0  0  0
 98143  1  0  0  0  0
M  END
