146

C         -2.39720        6.92670       -9.41190
C         -3.30750        6.03070       -9.85210
C         -4.23550        5.27960       -8.94610
O         -4.35580        5.41830       -7.75010
C         -5.04350        4.42830       -9.82940
C         -5.99390        3.51040       -9.48250
C         -6.64430        2.77600      -10.49700
C         -7.61830        1.80200      -10.19410
C         -8.23770        1.09450      -11.18610
C         -7.89160        1.35110      -12.52050
F         -8.51130        0.64460      -13.48120
C         -6.95540        2.28450      -12.86920
C         -6.30480        3.02170      -11.86020
C         -5.32520        3.98640      -12.18950
C         -4.69580        4.67910      -11.18750
C         -3.64280        5.68740      -11.22840
C         -3.03870        6.16950      -12.35610
C         -1.98270        7.10680      -12.37480
N         -1.11590        7.85320      -12.46700
C         -3.38910        5.78410      -13.66890
N         -3.62940        5.51580      -14.75820
C         -2.01590        7.03720       -8.01620
C         -1.72720        5.90730       -7.24230
F         -1.72380        4.69740       -7.81410
C         -1.39660        6.01060       -5.90620
F         -1.16350        4.88060       -5.22370
C         -1.33630        7.24860       -5.24560
C         -1.55080        8.37900       -6.04320
F         -1.40440        9.60160       -5.51290
C         -1.87610        8.27570       -7.38580
F         -2.09480        9.39030       -8.09480
C         -1.06520        7.31040       -3.82380
C         -1.73640        7.99840       -2.83270
C         -2.94530        8.86310       -3.00220
C         -4.15540        8.04030       -3.44920
C         -1.24210        7.64980       -1.56230
S         -1.75900        8.06840        0.05670
C         -0.61190        6.93770        0.69400
C         -0.30860        6.30410        1.91100
C         -0.93690        6.34450        3.17770
C         -0.66050        5.30050        4.12950
N         -1.40230        5.40570        5.22000
S         -2.35390        6.70700        5.07460
N         -1.86600        7.18300        3.60630
C          0.33220        4.33960        3.83000
C          0.78340        3.18290        4.49290
S          0.34290        2.17710        5.83420
C          1.56010        1.02370        5.33890
C          1.86400       -0.28560        5.76090
O          1.18210       -0.87970        6.77590
C          0.34880       -1.97510        6.41900
C         -0.80390       -1.55010        5.51750
C          2.85430       -0.86010        4.96990
S          3.39310        0.22220        3.70110
C          2.29700        1.43970        4.22850
C          1.84220        2.66650        3.73740
N          2.06700        3.45020        2.63520
C          1.10660        4.44530        2.64300
C          0.68800        5.33140        1.62270
N          0.96360        5.36050        0.27120
C          0.16420        6.31730       -0.29150
C         -0.20210        6.71840       -1.58100
S          0.19510        6.26250       -3.19190
C          1.62230        4.38290       -0.56690
C          2.87840        4.94800       -1.22720
C          3.38020        3.50370        2.02740
C          4.46000        3.79880        3.06770
C          3.36470       -2.20140        5.02690
C          3.74730       -2.90960        3.89510
F          3.77890       -2.30440        2.69390
C          4.06050       -4.26860        3.93610
F          4.46470       -4.84420        2.79490
C          3.99650       -5.00870        5.10710
C          3.73820       -4.28650        6.30560
N          3.69020       -4.93990        7.47660
C          3.48870       -4.26990        8.58610
C          3.32100       -5.10180        9.82040
C          1.93730       -5.75740        9.81880
C          3.42910       -2.84580        8.56180
N          3.40060       -2.20780        7.41800
C          3.47850       -2.89360        6.27090
C          3.37660       -1.98080        9.78270
C          1.92410       -1.74470       10.20330
C          4.20870       -6.43140        5.14820
C          3.73060       -7.29500        4.21780
C          2.67040       -6.95030        3.22390
O          2.03360       -5.92270        3.15340
C          2.46380       -8.17100        2.42810
C          1.64270       -8.35160        1.35250
C          1.60980       -9.61110        0.71550
C          0.79420       -9.84800       -0.41010
C          0.77250      -11.07180       -1.01860
C          1.57780      -12.09830       -0.50560
F          1.54270      -13.29550       -1.11810
C          2.38650      -11.92220        0.58240
C          2.42300      -10.66710        1.22140
C          3.25500      -10.45270        2.34450
C          3.28050       -9.21840        2.93980
C          4.04320       -8.70760        4.07490
C          4.92970       -9.42830        4.82910
C          5.21150      -10.79620        4.62610
N          5.47880      -11.90720        4.51770
C          5.67940       -8.92350        5.91310
N          6.32770       -8.59390        6.80150
H         -1.91100        7.61380      -10.09160
H         -6.23610        3.34120       -8.44400
H         -7.86720        1.62240       -9.15910
H         -8.98350        0.34540      -10.97240
H         -6.71380        2.45420      -13.90680
H         -5.09460        4.14940      -13.22990
H         -2.75630        9.65990       -3.71980
H         -3.16200        9.32540       -2.03710
H         -4.36490        7.25440       -2.72690
H         -3.98010        7.57860       -4.41870
H         -5.02970        8.68110       -3.52540
H         -0.02750       -2.34800        7.37430
H          0.93180       -2.76930        5.93500
H         -0.42930       -1.21660        4.55160
H         -1.35690       -0.73450        5.97750
H         -1.47270       -2.39130        5.35960
H          1.84140        3.49460        0.02380
H          0.91770        4.09380       -1.35510
H          3.58050        5.33650       -0.49280
H          3.37000        4.16890       -1.80220
H          2.61420        5.75810       -1.90150
H          3.59020        2.54480        1.54210
H          3.38700        4.30080        1.28910
H          4.23820        4.72780        3.58890
H          5.42200        3.89680        2.57230
H          4.52930        2.99700        3.79700
H          3.44540       -4.50160       10.72000
H          4.07850       -5.88700        9.80770
H          1.82110       -6.37270        8.93040
H          1.15190       -5.00420        9.82180
H          1.81950       -6.38490       10.69850
H          3.82480       -1.02040        9.52600
H          3.94200       -2.42840       10.60090
H          1.38340       -1.27640        9.38480
H          1.43550       -2.68160       10.46090
H          1.88900       -1.08760       11.06840
H          4.75510       -6.78950        6.00980
H          1.03440       -7.53810        0.98650
H          0.18360       -9.04110       -0.78660
H          0.15530      -11.26990       -1.88050
H          2.99380      -12.73520        0.94870
H          3.85510      -11.27360        2.70280
