144

C         10.68840        2.51960        1.74420
C         11.15780        1.25920        1.61320
C         10.28200        0.04500        1.59170
O          9.07290        0.01220        1.60340
C         11.20160       -1.09960        1.67750
C         10.89410       -2.43020        1.71140
C         11.93760       -3.37600        1.80630
C         11.67660       -4.76160        1.83680
C         12.69540       -5.66750        1.93540
C         14.01540       -5.19960        2.00560
F         15.00300       -6.10590        2.10300
C         14.32390       -3.86790        1.97850
C         13.28700       -2.91980        1.87640
C         13.57490       -1.53610        1.84260
C         12.54670       -0.63570        1.73890
C         12.54500        0.81990        1.66790
C         13.64710        1.62410        1.57850
C         14.97650        1.14900        1.60200
N         16.07620        0.82180        1.62280
C         13.60790        3.02710        1.42170
N         13.64790        4.16400        1.27090
C          9.29710        2.87800        1.55570
C          8.64160        3.72020        2.45970
F          9.31980        4.16990        3.52410
C          7.30370        4.04030        2.32290
F          6.71400        4.76690        3.28120
C          6.54850        3.57800        1.23500
C          7.22050        2.76480        0.31000
F          6.56280        2.33070       -0.77590
C          8.54990        2.42270        0.46300
F          9.15040        1.70900       -0.49440
C          5.14370        3.88140        1.09200
C          4.48500        5.06830        1.35740
C          5.13270        6.34470        1.65250
C          6.28900        6.72940        0.97660
C          6.87110        7.95120        1.25080
C          6.30750        8.79930        2.18900
C          5.15160        8.43450        2.86670
C          4.49670        9.36630        3.84420
C          3.35090       10.12160        3.16740
C          4.57240        7.20580        2.58900
C          3.09210        4.91820        1.19640
S          1.75000        6.02630        1.36010
C          0.67160        4.75470        0.89540
C         -0.69730        4.54560        0.66700
C         -1.78530        5.44540        0.68070
C         -3.07940        4.97410        0.28240
N         -3.99220        5.93290        0.29100
S         -3.28460        7.30950        0.76590
N         -1.78570        6.73590        0.97640
C         -3.24530        3.60320       -0.01260
C         -4.39580        2.86170       -0.32000
S         -6.08790        3.10930       -0.59000
C         -6.27920        1.38440       -0.82040
C         -7.40260        0.58360       -1.08760
C         -8.75150        1.15060       -1.14300
C         -9.78280        0.61760       -0.37220
C        -11.02710        1.21700       -0.38300
C        -11.25350        2.34740       -1.15090
C        -10.23530        2.89410       -1.92070
C        -10.44550        4.15270       -2.71090
C         -9.90420        5.35740       -1.93810
C         -8.98710        2.28840       -1.90580
C         -7.05330       -0.75950       -1.19610
S         -5.33090       -1.01520       -0.90290
C         -5.08050        0.67500       -0.68380
C         -4.00460        1.52250       -0.40110
N         -2.65860        1.40910       -0.18090
C         -2.16050        2.68120        0.05170
C         -0.85300        3.17910        0.29510
N          0.40160        2.59080        0.27190
C          1.31540        3.54440        0.62910
C          2.70270        3.63800        0.79560
S          4.05930        2.59140        0.60740
C          0.85710        1.38300       -0.38000
C          0.52080        1.38800       -1.86900
C         -2.10210        0.11410        0.14240
C         -1.73620        0.01560        1.62120
C         -7.77970       -1.91080       -1.57490
C         -9.02920       -1.95780       -2.11630
C         -9.68310       -3.14770       -2.51640
C         -9.19520       -4.41820       -2.39440
C         -9.91220       -5.54060       -2.84490
C         -9.45370       -6.83230       -2.78770
C         -8.13390       -7.24000       -2.25230
O         -7.27090       -6.53820       -1.76180
C         -8.06440       -8.70310       -2.43910
C         -7.03650       -9.56230       -2.11570
C         -7.17930      -10.92200       -2.39010
C         -6.07090      -11.87170       -2.06300
C         -8.35670      -11.36920       -2.98220
C         -9.39640      -10.50970       -3.30850
C         -9.25350       -9.15860       -3.03520
C        -10.14150       -8.01900       -3.25240
C        -11.39980       -8.09080       -3.79570
C        -12.27410       -7.00410       -3.99960
N        -13.05020       -6.17970       -4.19630
C        -12.00730       -9.28710       -4.22930
N        -12.56200      -10.22010       -4.60430
H         11.34540        3.32710        2.04070
H          9.86550       -2.75440        1.66190
H         10.65200       -5.09730        1.78150
H         12.51360       -6.73020        1.96090
H         15.35160       -3.54430        2.03270
H         14.60470       -1.22270        1.90410
H          6.71600        6.08010        0.22540
H          7.76760        8.24690        0.72600
H          6.77000        9.75340        2.39590
H          5.22840       10.08110        4.22470
H          4.10260        8.79710        4.68830
H          2.60640        9.42350        2.79130
H          3.72610       10.70510        2.32950
H          2.87130       10.79580        3.87290
H          3.68490        6.90330        3.12450
H         -9.59900       -0.25400        0.23840
H        -11.82490        0.80420        0.21650
H        -12.22950        2.81050       -1.14970
H        -11.50950        4.29560       -2.90810
H         -9.92670        4.07820       -3.66920
H        -10.42010        5.45780       -0.98570
H        -10.04870        6.27100       -2.50960
H         -8.84200        5.23500       -1.73880
H         -8.18920        2.69910       -2.50740
H          1.94270        1.35560       -0.25930
H          0.45930        0.50070        0.12180
H         -0.54980        1.48550       -2.03300
H          1.01570        2.22430       -2.35720
H          0.86620        0.46640       -2.32930
H         -1.25120       -0.11190       -0.50020
H         -2.87720       -0.62170       -0.08520
H         -1.31010       -0.96120        1.83320
H         -1.01860        0.78270        1.90250
H         -2.62640        0.14470        2.23250
H         -7.23060       -2.83670       -1.46090
H         -9.56400       -1.03300       -2.27850
H        -10.66130       -3.02480       -2.96660
H         -8.22820       -4.59690       -1.95180
H        -10.88810       -5.35410       -3.27500
H         -6.13740       -9.17800       -1.65730
H         -6.39980      -12.90400       -2.14870
H         -5.23630      -11.71820       -2.74740
H         -5.70540      -11.69870       -1.05260
H         -8.46790      -12.42240       -3.19630
H        -10.28930      -10.90320       -3.76570
