
  xtb     02042219173D
 energy: -288.155720789557 gnorm: 0.000262623574 xtb: 6.4.1 (unknown)
146162  0     0  0            999 V2000
    8.9150   -4.0584    0.7406 C   0  0  0  0  0  0  0  0  0  0  0  0
    8.9106   -4.0055   -0.6104 C   0  0  0  0  0  0  0  0  0  0  0  0
    7.6589   -3.9801   -1.4337 C   0  0  0  0  0  0  0  0  0  0  0  0
    6.5181   -4.0136   -1.0318 O   0  0  0  0  0  0  0  0  0  0  0  0
    8.1078   -4.0270   -2.8320 C   0  0  0  0  0  0  0  0  0  0  0  0
    7.3460   -3.9965   -3.9656 C   0  0  0  0  0  0  0  0  0  0  0  0
    7.9827   -4.0398   -5.2243 C   0  0  0  0  0  0  0  0  0  0  0  0
    7.2459   -3.9929   -6.4260 C   0  0  0  0  0  0  0  0  0  0  0  0
    7.8748   -4.0347   -7.6388 C   0  0  0  0  0  0  0  0  0  0  0  0
    9.2736   -4.1264   -7.6751 C   0  0  0  0  0  0  0  0  0  0  0  0
    9.8735   -4.1660   -8.8771 F   0  0  0  0  0  0  0  0  0  0  0  0
   10.0354   -4.1753   -6.5408 C   0  0  0  0  0  0  0  0  0  0  0  0
    9.4048   -4.1309   -5.2818 C   0  0  0  0  0  0  0  0  0  0  0  0
   10.1666   -4.1701   -4.0913 C   0  0  0  0  0  0  0  0  0  0  0  0
    9.5286   -4.1119   -2.8793 C   0  0  0  0  0  0  0  0  0  0  0  0
   10.0471   -4.1006   -1.5164 C   0  0  0  0  0  0  0  0  0  0  0  0
   11.3673   -4.0924   -1.1604 C   0  0  0  0  0  0  0  0  0  0  0  0
   11.8474   -4.0033    0.1646 C   0  0  0  0  0  0  0  0  0  0  0  0
   12.3085   -3.9162    1.2118 N   0  0  0  0  0  0  0  0  0  0  0  0
   12.4361   -4.1507   -2.0814 C   0  0  0  0  0  0  0  0  0  0  0  0
   13.3456   -4.2007   -2.7791 N   0  0  0  0  0  0  0  0  0  0  0  0
    7.7394   -3.7705    1.5383 C   0  0  0  0  0  0  0  0  0  0  0  0
    7.3734   -4.5627    2.6300 C   0  0  0  0  0  0  0  0  0  0  0  0
    8.1505   -5.6016    2.9622 F   0  0  0  0  0  0  0  0  0  0  0  0
    6.2139   -4.3269    3.3479 C   0  0  0  0  0  0  0  0  0  0  0  0
    5.9484   -5.1032    4.4070 F   0  0  0  0  0  0  0  0  0  0  0  0
    5.3450   -3.2760    3.0196 C   0  0  0  0  0  0  0  0  0  0  0  0
    5.7756   -2.4198    1.9927 C   0  0  0  0  0  0  0  0  0  0  0  0
    5.0340   -1.3527    1.6597 F   0  0  0  0  0  0  0  0  0  0  0  0
    6.9278   -2.6613    1.2730 C   0  0  0  0  0  0  0  0  0  0  0  0
    7.2930   -1.7852    0.3299 F   0  0  0  0  0  0  0  0  0  0  0  0
    4.0562   -3.1003    3.6468 C   0  0  0  0  0  0  0  0  0  0  0  0
    3.1415   -4.0897    3.9661 C   0  0  0  0  0  0  0  0  0  0  0  0
    3.3539   -5.5151    3.6728 C   0  0  0  0  0  0  0  0  0  0  0  0
    3.6068   -5.8646    2.3471 C   0  0  0  0  0  0  0  0  0  0  0  0
    3.8193   -7.1814    1.9936 C   0  0  0  0  0  0  0  0  0  0  0  0
    3.7941   -8.1628    2.9704 C   0  0  0  0  0  0  0  0  0  0  0  0
    3.5552   -7.8171    4.2862 C   0  0  0  0  0  0  0  0  0  0  0  0
    3.3267   -6.4986    4.6625 C   0  0  0  0  0  0  0  0  0  0  0  0
    3.1218   -6.1712    6.1152 C   0  0  0  0  0  0  0  0  0  0  0  0
    1.8690   -6.8358    6.6857 C   0  0  0  0  0  0  0  0  0  0  0  0
    1.9269   -3.5311    4.4081 C   0  0  0  0  0  0  0  0  0  0  0  0
    0.3592   -4.2170    4.7715 S   0  0  0  0  0  0  0  0  0  0  0  0
   -0.2979   -2.6185    4.8856 C   0  0  0  0  0  0  0  0  0  0  0  0
   -1.5477   -1.9810    5.0046 C   0  0  0  0  0  0  0  0  0  0  0  0
   -2.8555   -2.4540    5.2571 C   0  0  0  0  0  0  0  0  0  0  0  0
   -3.9560   -1.5262    5.2289 C   0  0  0  0  0  0  0  0  0  0  0  0
   -5.1108   -2.1075    5.5096 N   0  0  0  0  0  0  0  0  0  0  0  0
   -4.8445   -3.6801    5.7854 S   0  0  0  0  0  0  0  0  0  0  0  0
   -3.2430   -3.6844    5.5511 N   0  0  0  0  0  0  0  0  0  0  0  0
   -3.7218   -0.1938    4.8152 C   0  0  0  0  0  0  0  0  0  0  0  0
   -4.5900    0.8139    4.3593 C   0  0  0  0  0  0  0  0  0  0  0  0
   -6.2856    1.0777    4.1144 S   0  0  0  0  0  0  0  0  0  0  0  0
   -5.9106    2.5074    3.1769 C   0  0  0  0  0  0  0  0  0  0  0  0
   -6.6949    3.3994    2.4144 C   0  0  0  0  0  0  0  0  0  0  0  0
   -8.1624    3.4148    2.3746 C   0  0  0  0  0  0  0  0  0  0  0  0
   -8.9243    2.2983    2.0193 C   0  0  0  0  0  0  0  0  0  0  0  0
   -8.3047    1.0344    1.4909 C   0  0  0  0  0  0  0  0  0  0  0  0
   -8.8322    0.6780    0.1004 C   0  0  0  0  0  0  0  0  0  0  0  0
  -10.3080    2.3933    2.1126 C   0  0  0  0  0  0  0  0  0  0  0  0
  -10.9309    3.5625    2.5043 C   0  0  0  0  0  0  0  0  0  0  0  0
  -10.1712    4.6797    2.8085 C   0  0  0  0  0  0  0  0  0  0  0  0
   -8.7951    4.6003    2.7479 C   0  0  0  0  0  0  0  0  0  0  0  0
   -5.9047    4.3615    1.8156 C   0  0  0  0  0  0  0  0  0  0  0  0
   -4.2013    4.1933    2.2055 S   0  0  0  0  0  0  0  0  0  0  0  0
   -4.5420    2.7873    3.1375 C   0  0  0  0  0  0  0  0  0  0  0  0
   -3.7884    1.8224    3.8142 C   0  0  0  0  0  0  0  0  0  0  0  0
   -2.4659    1.5035    3.9555 N   0  0  0  0  0  0  0  0  0  0  0  0
   -2.4005    0.2674    4.5640 C   0  0  0  0  0  0  0  0  0  0  0  0
   -1.3060   -0.5953    4.8071 C   0  0  0  0  0  0  0  0  0  0  0  0
    0.0549   -0.3823    4.6796 N   0  0  0  0  0  0  0  0  0  0  0  0
    0.6559   -1.6148    4.6897 C   0  0  0  0  0  0  0  0  0  0  0  0
    1.9261   -2.1332    4.4242 C   0  0  0  0  0  0  0  0  0  0  0  0
    3.4392   -1.4827    3.9248 S   0  0  0  0  0  0  0  0  0  0  0  0
    0.7965    0.7989    5.0687 C   0  0  0  0  0  0  0  0  0  0  0  0
    1.4883    0.5999    6.4168 C   0  0  0  0  0  0  0  0  0  0  0  0
   -1.4585    2.2351    3.2204 C   0  0  0  0  0  0  0  0  0  0  0  0
   -1.1314    3.5763    3.8747 C   0  0  0  0  0  0  0  0  0  0  0  0
   -6.2506    5.3536    0.8233 C   0  0  0  0  0  0  0  0  0  0  0  0
   -5.6535    6.6238    0.8189 C   0  0  0  0  0  0  0  0  0  0  0  0
   -4.8769    6.9854    1.8513 F   0  0  0  0  0  0  0  0  0  0  0  0
   -5.8343    7.5147   -0.2210 C   0  0  0  0  0  0  0  0  0  0  0  0
   -5.2160    8.7019   -0.1818 F   0  0  0  0  0  0  0  0  0  0  0  0
   -6.5914    7.1827   -1.3529 C   0  0  0  0  0  0  0  0  0  0  0  0
   -7.2505    5.9492   -1.3132 C   0  0  0  0  0  0  0  0  0  0  0  0
   -8.0719    5.6083   -2.3162 F   0  0  0  0  0  0  0  0  0  0  0  0
   -7.0917    5.0661   -0.2596 C   0  0  0  0  0  0  0  0  0  0  0  0
   -7.6992    3.8774   -0.3342 F   0  0  0  0  0  0  0  0  0  0  0  0
   -6.5968    8.0699   -2.4951 C   0  0  0  0  0  0  0  0  0  0  0  0
   -6.5001    7.6978   -3.7854 C   0  0  0  0  0  0  0  0  0  0  0  0
   -6.3168    6.0761   -4.4164 S   0  0  0  0  0  0  0  0  0  0  0  0
   -5.9886    6.7030   -6.0182 C   0  0  0  0  0  0  0  0  0  0  0  0
   -5.6230    5.8823   -7.0495 C   0  0  0  0  0  0  0  0  0  0  0  0
   -5.5272    4.4902   -6.8398 C   0  0  0  0  0  0  0  0  0  0  0  0
   -5.4439    3.3592   -6.6717 N   0  0  0  0  0  0  0  0  0  0  0  0
   -5.2757    6.3138   -8.3442 C   0  0  0  0  0  0  0  0  0  0  0  0
   -4.9582    6.5858   -9.4130 N   0  0  0  0  0  0  0  0  0  0  0  0
   -6.1145    8.0579   -6.0655 N   0  0  0  0  0  0  0  0  0  0  0  0
   -5.9697    8.8001   -7.2791 C   0  0  0  0  0  0  0  0  0  0  0  0
   -6.9892    8.7745   -8.2185 C   0  0  0  0  0  0  0  0  0  0  0  0
   -6.8395    9.4883   -9.3931 C   0  0  0  0  0  0  0  0  0  0  0  0
   -5.6877   10.2231   -9.6173 C   0  0  0  0  0  0  0  0  0  0  0  0
   -4.6845   10.2576   -8.6640 C   0  0  0  0  0  0  0  0  0  0  0  0
   -4.8210    9.5463   -7.4858 C   0  0  0  0  0  0  0  0  0  0  0  0
   -6.3947    8.6967   -4.8710 C   0  0  0  0  0  0  0  0  0  0  0  0
   -6.5168    9.8886   -4.7490 O   0  0  0  0  0  0  0  0  0  0  0  0
    9.8052   -4.3389    1.2877 H   0  0  0  0  0  0  0  0  0  0  0  0
    6.2705   -3.9301   -3.8990 H   0  0  0  0  0  0  0  0  0  0  0  0
    6.1700   -3.9221   -6.3719 H   0  0  0  0  0  0  0  0  0  0  0  0
    7.3271   -3.9990   -8.5672 H   0  0  0  0  0  0  0  0  0  0  0  0
   11.1100   -4.2438   -6.6074 H   0  0  0  0  0  0  0  0  0  0  0  0
   11.2392   -4.2440   -4.1700 H   0  0  0  0  0  0  0  0  0  0  0  0
    3.6289   -5.0922    1.5909 H   0  0  0  0  0  0  0  0  0  0  0  0
    4.0119   -7.4372    0.9626 H   0  0  0  0  0  0  0  0  0  0  0  0
    3.9718   -9.1948    2.7068 H   0  0  0  0  0  0  0  0  0  0  0  0
    3.5623   -8.5839    5.0466 H   0  0  0  0  0  0  0  0  0  0  0  0
    3.9962   -6.5183    6.6722 H   0  0  0  0  0  0  0  0  0  0  0  0
    3.0537   -5.0913    6.2500 H   0  0  0  0  0  0  0  0  0  0  0  0
    1.9441   -7.9185    6.6301 H   0  0  0  0  0  0  0  0  0  0  0  0
    0.9868   -6.5265    6.1308 H   0  0  0  0  0  0  0  0  0  0  0  0
    1.7384   -6.5543    7.7279 H   0  0  0  0  0  0  0  0  0  0  0  0
   -8.5175    0.2134    2.1812 H   0  0  0  0  0  0  0  0  0  0  0  0
   -7.2233    1.1477    1.4252 H   0  0  0  0  0  0  0  0  0  0  0  0
   -9.8984    0.4712    0.1207 H   0  0  0  0  0  0  0  0  0  0  0  0
   -8.3204   -0.2059   -0.2730 H   0  0  0  0  0  0  0  0  0  0  0  0
   -8.6545    1.4996   -0.5881 H   0  0  0  0  0  0  0  0  0  0  0  0
  -10.9091    1.5298    1.8705 H   0  0  0  0  0  0  0  0  0  0  0  0
  -12.0081    3.6061    2.5664 H   0  0  0  0  0  0  0  0  0  0  0  0
  -10.6471    5.6034    3.1018 H   0  0  0  0  0  0  0  0  0  0  0  0
   -8.1915    5.4576    3.0125 H   0  0  0  0  0  0  0  0  0  0  0  0
    0.1020    1.6294    5.1587 H   0  0  0  0  0  0  0  0  0  0  0  0
    1.5447    1.0221    4.3007 H   0  0  0  0  0  0  0  0  0  0  0  0
    0.7590    0.3338    7.1792 H   0  0  0  0  0  0  0  0  0  0  0  0
    1.9803    1.5230    6.7106 H   0  0  0  0  0  0  0  0  0  0  0  0
    2.2366   -0.1854    6.3607 H   0  0  0  0  0  0  0  0  0  0  0  0
   -1.8548    2.4263    2.2166 H   0  0  0  0  0  0  0  0  0  0  0  0
   -0.5721    1.6117    3.1121 H   0  0  0  0  0  0  0  0  0  0  0  0
   -2.0007    4.2280    3.8510 H   0  0  0  0  0  0  0  0  0  0  0  0
   -0.8310    3.4554    4.9130 H   0  0  0  0  0  0  0  0  0  0  0  0
   -0.3249    4.0607    3.3320 H   0  0  0  0  0  0  0  0  0  0  0  0
   -6.5740    9.1347   -2.2964 H   0  0  0  0  0  0  0  0  0  0  0  0
   -7.8818    8.1956   -8.0324 H   0  0  0  0  0  0  0  0  0  0  0  0
   -7.6233    9.4661  -10.1339 H   0  0  0  0  0  0  0  0  0  0  0  0
   -5.5721   10.7721  -10.5391 H   0  0  0  0  0  0  0  0  0  0  0  0
   -3.7893   10.8346   -8.8374 H   0  0  0  0  0  0  0  0  0  0  0  0
   -4.0464    9.5625   -6.7340 H   0  0  0  0  0  0  0  0  0  0  0  0
  1  2  2  0  0  0  0
  2  3  1  0  0  0  0
  3  4  2  0  0  0  0
  3  5  1  0  0  0  0
  5  6  2  0  0  0  0
  6  7  1  0  0  0  0
  7  8  2  0  0  0  0
  8  9  1  0  0  0  0
  9 10  2  0  0  0  0
 10 11  1  0  0  0  0
 10 12  1  0  0  0  0
 12 13  2  0  0  0  0
 13 14  1  0  0  0  0
 14 15  2  0  0  0  0
 15 16  1  0  0  0  0
 16 17  2  0  0  0  0
 17 18  1  0  0  0  0
 18 19  3  0  0  0  0
 17 20  1  0  0  0  0
 20 21  3  0  0  0  0
  1 22  1  0  0  0  0
 22 23  2  0  0  0  0
 23 24  1  0  0  0  0
 23 25  1  0  0  0  0
 25 26  1  0  0  0  0
 25 27  2  0  0  0  0
 27 28  1  0  0  0  0
 28 29  1  0  0  0  0
 28 30  2  0  0  0  0
 30 31  1  0  0  0  0
 27 32  1  0  0  0  0
 32 33  2  0  0  0  0
 33 34  1  0  0  0  0
 34 35  2  0  0  0  0
 35 36  1  0  0  0  0
 36 37  2  0  0  0  0
 37 38  1  0  0  0  0
 38 39  2  0  0  0  0
 39 40  1  0  0  0  0
 40 41  1  0  0  0  0
 33 42  1  0  0  0  0
 42 43  1  0  0  0  0
 43 44  1  0  0  0  0
 44 45  1  0  0  0  0
 45 46  1  0  0  0  0
 46 47  1  0  0  0  0
 47 48  2  0  0  0  0
 48 49  1  0  0  0  0
 49 50  1  0  0  0  0
 47 51  1  0  0  0  0
 51 52  1  0  0  0  0
 52 53  1  0  0  0  0
 53 54  1  0  0  0  0
 54 55  1  0  0  0  0
 55 56  1  0  0  0  0
 56 57  2  0  0  0  0
 57 58  1  0  0  0  0
 58 59  1  0  0  0  0
 57 60  1  0  0  0  0
 60 61  2  0  0  0  0
 61 62  1  0  0  0  0
 62 63  2  0  0  0  0
 55 64  2  0  0  0  0
 64 65  1  0  0  0  0
 65 66  1  0  0  0  0
 66 67  1  0  0  0  0
 67 68  1  0  0  0  0
 68 69  1  0  0  0  0
 69 70  1  0  0  0  0
 70 71  1  0  0  0  0
 71 72  1  0  0  0  0
 72 73  1  0  0  0  0
 73 74  1  0  0  0  0
 71 75  1  0  0  0  0
 75 76  1  0  0  0  0
 68 77  1  0  0  0  0
 77 78  1  0  0  0  0
 64 79  1  0  0  0  0
 79 80  2  0  0  0  0
 80 81  1  0  0  0  0
 80 82  1  0  0  0  0
 82 83  1  0  0  0  0
 82 84  2  0  0  0  0
 84 85  1  0  0  0  0
 85 86  1  0  0  0  0
 85 87  2  0  0  0  0
 87 88  1  0  0  0  0
 84 89  1  0  0  0  0
 89 90  2  0  0  0  0
 90 91  1  0  0  0  0
 91 92  1  0  0  0  0
 92 93  2  0  0  0  0
 93 94  1  0  0  0  0
 94 95  3  0  0  0  0
 93 96  1  0  0  0  0
 96 97  3  0  0  0  0
 92 98  1  0  0  0  0
 98 99  1  0  0  0  0
 99100  2  0  0  0  0
100101  1  0  0  0  0
101102  2  0  0  0  0
102103  1  0  0  0  0
103104  2  0  0  0  0
 98105  1  0  0  0  0
105106  2  0  0  0  0
 16  2  1  0  0  0  0
 30 22  1  0  0  0  0
 74 32  1  0  0  0  0
 87 79  1  0  0  0  0
105 90  1  0  0  0  0
 15  5  1  0  0  0  0
 39 34  1  0  0  0  0
 73 42  2  0  0  0  0
104 99  1  0  0  0  0
 13  7  1  0  0  0  0
 72 44  2  0  0  0  0
 70 45  2  0  0  0  0
 50 46  2  0  0  0  0
 69 51  2  0  0  0  0
 67 52  2  0  0  0  0
 66 54  2  0  0  0  0
 63 56  1  0  0  0  0
  1107  1  0  0  0  0
  6108  1  0  0  0  0
  8109  1  0  0  0  0
  9110  1  0  0  0  0
 12111  1  0  0  0  0
 14112  1  0  0  0  0
 35113  1  0  0  0  0
 36114  1  0  0  0  0
 37115  1  0  0  0  0
 38116  1  0  0  0  0
 40117  1  0  0  0  0
 40118  1  0  0  0  0
 41119  1  0  0  0  0
 41120  1  0  0  0  0
 41121  1  0  0  0  0
 58122  1  0  0  0  0
 58123  1  0  0  0  0
 59124  1  0  0  0  0
 59125  1  0  0  0  0
 59126  1  0  0  0  0
 60127  1  0  0  0  0
 61128  1  0  0  0  0
 62129  1  0  0  0  0
 63130  1  0  0  0  0
 75131  1  0  0  0  0
 75132  1  0  0  0  0
 76133  1  0  0  0  0
 76134  1  0  0  0  0
 76135  1  0  0  0  0
 77136  1  0  0  0  0
 77137  1  0  0  0  0
 78138  1  0  0  0  0
 78139  1  0  0  0  0
 78140  1  0  0  0  0
 89141  1  0  0  0  0
100142  1  0  0  0  0
101143  1  0  0  0  0
102144  1  0  0  0  0
103145  1  0  0  0  0
104146  1  0  0  0  0
M  END
