
  xtb     02042222353D
 energy: -283.922031559057 gnorm: 0.000318131893 xtb: 6.4.1 (unknown)
146162  0     0  0            999 V2000
   -2.3972    6.9267   -9.4119 C   0  0  0  0  0  0  0  0  0  0  0  0
   -3.3075    6.0307   -9.8521 C   0  0  0  0  0  0  0  0  0  0  0  0
   -4.2355    5.2796   -8.9461 C   0  0  0  0  0  0  0  0  0  0  0  0
   -4.3558    5.4183   -7.7501 O   0  0  0  0  0  0  0  0  0  0  0  0
   -5.0435    4.4283   -9.8294 C   0  0  0  0  0  0  0  0  0  0  0  0
   -5.9939    3.5104   -9.4825 C   0  0  0  0  0  0  0  0  0  0  0  0
   -6.6443    2.7760  -10.4970 C   0  0  0  0  0  0  0  0  0  0  0  0
   -7.6183    1.8020  -10.1941 C   0  0  0  0  0  0  0  0  0  0  0  0
   -8.2377    1.0945  -11.1861 C   0  0  0  0  0  0  0  0  0  0  0  0
   -7.8916    1.3511  -12.5205 C   0  0  0  0  0  0  0  0  0  0  0  0
   -8.5113    0.6446  -13.4812 F   0  0  0  0  0  0  0  0  0  0  0  0
   -6.9554    2.2845  -12.8692 C   0  0  0  0  0  0  0  0  0  0  0  0
   -6.3048    3.0217  -11.8602 C   0  0  0  0  0  0  0  0  0  0  0  0
   -5.3252    3.9864  -12.1895 C   0  0  0  0  0  0  0  0  0  0  0  0
   -4.6958    4.6791  -11.1875 C   0  0  0  0  0  0  0  0  0  0  0  0
   -3.6428    5.6874  -11.2284 C   0  0  0  0  0  0  0  0  0  0  0  0
   -3.0387    6.1695  -12.3561 C   0  0  0  0  0  0  0  0  0  0  0  0
   -1.9827    7.1068  -12.3748 C   0  0  0  0  0  0  0  0  0  0  0  0
   -1.1159    7.8532  -12.4670 N   0  0  0  0  0  0  0  0  0  0  0  0
   -3.3891    5.7841  -13.6689 C   0  0  0  0  0  0  0  0  0  0  0  0
   -3.6294    5.5158  -14.7582 N   0  0  0  0  0  0  0  0  0  0  0  0
   -2.0159    7.0372   -8.0162 C   0  0  0  0  0  0  0  0  0  0  0  0
   -1.7272    5.9073   -7.2423 C   0  0  0  0  0  0  0  0  0  0  0  0
   -1.7238    4.6974   -7.8141 F   0  0  0  0  0  0  0  0  0  0  0  0
   -1.3966    6.0106   -5.9062 C   0  0  0  0  0  0  0  0  0  0  0  0
   -1.1635    4.8806   -5.2237 F   0  0  0  0  0  0  0  0  0  0  0  0
   -1.3363    7.2486   -5.2456 C   0  0  0  0  0  0  0  0  0  0  0  0
   -1.5508    8.3790   -6.0432 C   0  0  0  0  0  0  0  0  0  0  0  0
   -1.4044    9.6016   -5.5129 F   0  0  0  0  0  0  0  0  0  0  0  0
   -1.8761    8.2757   -7.3858 C   0  0  0  0  0  0  0  0  0  0  0  0
   -2.0948    9.3903   -8.0948 F   0  0  0  0  0  0  0  0  0  0  0  0
   -1.0652    7.3104   -3.8238 C   0  0  0  0  0  0  0  0  0  0  0  0
   -1.7364    7.9984   -2.8327 C   0  0  0  0  0  0  0  0  0  0  0  0
   -2.9453    8.8631   -3.0022 C   0  0  0  0  0  0  0  0  0  0  0  0
   -4.1554    8.0403   -3.4492 C   0  0  0  0  0  0  0  0  0  0  0  0
   -1.2421    7.6498   -1.5623 C   0  0  0  0  0  0  0  0  0  0  0  0
   -1.7590    8.0684    0.0567 S   0  0  0  0  0  0  0  0  0  0  0  0
   -0.6119    6.9377    0.6940 C   0  0  0  0  0  0  0  0  0  0  0  0
   -0.3086    6.3041    1.9110 C   0  0  0  0  0  0  0  0  0  0  0  0
   -0.9369    6.3445    3.1777 C   0  0  0  0  0  0  0  0  0  0  0  0
   -0.6605    5.3005    4.1295 C   0  0  0  0  0  0  0  0  0  0  0  0
   -1.4023    5.4057    5.2200 N   0  0  0  0  0  0  0  0  0  0  0  0
   -2.3539    6.7070    5.0746 S   0  0  0  0  0  0  0  0  0  0  0  0
   -1.8660    7.1830    3.6063 N   0  0  0  0  0  0  0  0  0  0  0  0
    0.3322    4.3396    3.8300 C   0  0  0  0  0  0  0  0  0  0  0  0
    0.7834    3.1829    4.4929 C   0  0  0  0  0  0  0  0  0  0  0  0
    0.3429    2.1771    5.8342 S   0  0  0  0  0  0  0  0  0  0  0  0
    1.5601    1.0237    5.3389 C   0  0  0  0  0  0  0  0  0  0  0  0
    1.8640   -0.2856    5.7609 C   0  0  0  0  0  0  0  0  0  0  0  0
    1.1821   -0.8797    6.7759 O   0  0  0  0  0  0  0  0  0  0  0  0
    0.3488   -1.9751    6.4190 C   0  0  0  0  0  0  0  0  0  0  0  0
   -0.8039   -1.5501    5.5175 C   0  0  0  0  0  0  0  0  0  0  0  0
    2.8543   -0.8601    4.9699 C   0  0  0  0  0  0  0  0  0  0  0  0
    3.3931    0.2222    3.7011 S   0  0  0  0  0  0  0  0  0  0  0  0
    2.2970    1.4397    4.2285 C   0  0  0  0  0  0  0  0  0  0  0  0
    1.8422    2.6665    3.7374 C   0  0  0  0  0  0  0  0  0  0  0  0
    2.0670    3.4502    2.6352 N   0  0  0  0  0  0  0  0  0  0  0  0
    1.1066    4.4453    2.6430 C   0  0  0  0  0  0  0  0  0  0  0  0
    0.6880    5.3314    1.6227 C   0  0  0  0  0  0  0  0  0  0  0  0
    0.9636    5.3605    0.2712 N   0  0  0  0  0  0  0  0  0  0  0  0
    0.1642    6.3173   -0.2915 C   0  0  0  0  0  0  0  0  0  0  0  0
   -0.2021    6.7184   -1.5810 C   0  0  0  0  0  0  0  0  0  0  0  0
    0.1951    6.2625   -3.1919 S   0  0  0  0  0  0  0  0  0  0  0  0
    1.6223    4.3829   -0.5669 C   0  0  0  0  0  0  0  0  0  0  0  0
    2.8784    4.9480   -1.2272 C   0  0  0  0  0  0  0  0  0  0  0  0
    3.3802    3.5037    2.0274 C   0  0  0  0  0  0  0  0  0  0  0  0
    4.4600    3.7988    3.0677 C   0  0  0  0  0  0  0  0  0  0  0  0
    3.3647   -2.2014    5.0269 C   0  0  0  0  0  0  0  0  0  0  0  0
    3.7473   -2.9096    3.8951 C   0  0  0  0  0  0  0  0  0  0  0  0
    3.7789   -2.3044    2.6939 F   0  0  0  0  0  0  0  0  0  0  0  0
    4.0605   -4.2686    3.9361 C   0  0  0  0  0  0  0  0  0  0  0  0
    4.4647   -4.8442    2.7949 F   0  0  0  0  0  0  0  0  0  0  0  0
    3.9965   -5.0087    5.1071 C   0  0  0  0  0  0  0  0  0  0  0  0
    3.7382   -4.2865    6.3056 C   0  0  0  0  0  0  0  0  0  0  0  0
    3.6902   -4.9399    7.4766 N   0  0  0  0  0  0  0  0  0  0  0  0
    3.4887   -4.2699    8.5861 C   0  0  0  0  0  0  0  0  0  0  0  0
    3.3210   -5.1018    9.8204 C   0  0  0  0  0  0  0  0  0  0  0  0
    1.9373   -5.7574    9.8188 C   0  0  0  0  0  0  0  0  0  0  0  0
    3.4291   -2.8458    8.5618 C   0  0  0  0  0  0  0  0  0  0  0  0
    3.4006   -2.2078    7.4180 N   0  0  0  0  0  0  0  0  0  0  0  0
    3.4785   -2.8936    6.2709 C   0  0  0  0  0  0  0  0  0  0  0  0
    3.3766   -1.9808    9.7827 C   0  0  0  0  0  0  0  0  0  0  0  0
    1.9241   -1.7447   10.2033 C   0  0  0  0  0  0  0  0  0  0  0  0
    4.2087   -6.4314    5.1482 C   0  0  0  0  0  0  0  0  0  0  0  0
    3.7306   -7.2950    4.2178 C   0  0  0  0  0  0  0  0  0  0  0  0
    2.6704   -6.9503    3.2239 C   0  0  0  0  0  0  0  0  0  0  0  0
    2.0336   -5.9227    3.1534 O   0  0  0  0  0  0  0  0  0  0  0  0
    2.4638   -8.1710    2.4281 C   0  0  0  0  0  0  0  0  0  0  0  0
    1.6427   -8.3516    1.3525 C   0  0  0  0  0  0  0  0  0  0  0  0
    1.6098   -9.6111    0.7155 C   0  0  0  0  0  0  0  0  0  0  0  0
    0.7942   -9.8480   -0.4101 C   0  0  0  0  0  0  0  0  0  0  0  0
    0.7725  -11.0718   -1.0186 C   0  0  0  0  0  0  0  0  0  0  0  0
    1.5778  -12.0983   -0.5056 C   0  0  0  0  0  0  0  0  0  0  0  0
    1.5427  -13.2955   -1.1181 F   0  0  0  0  0  0  0  0  0  0  0  0
    2.3865  -11.9222    0.5824 C   0  0  0  0  0  0  0  0  0  0  0  0
    2.4230  -10.6671    1.2214 C   0  0  0  0  0  0  0  0  0  0  0  0
    3.2550  -10.4527    2.3445 C   0  0  0  0  0  0  0  0  0  0  0  0
    3.2805   -9.2184    2.9398 C   0  0  0  0  0  0  0  0  0  0  0  0
    4.0432   -8.7076    4.0749 C   0  0  0  0  0  0  0  0  0  0  0  0
    4.9297   -9.4283    4.8291 C   0  0  0  0  0  0  0  0  0  0  0  0
    5.2115  -10.7962    4.6261 C   0  0  0  0  0  0  0  0  0  0  0  0
    5.4788  -11.9072    4.5177 N   0  0  0  0  0  0  0  0  0  0  0  0
    5.6794   -8.9235    5.9131 C   0  0  0  0  0  0  0  0  0  0  0  0
    6.3277   -8.5939    6.8015 N   0  0  0  0  0  0  0  0  0  0  0  0
   -1.9110    7.6138  -10.0916 H   0  0  0  0  0  0  0  0  0  0  0  0
   -6.2361    3.3412   -8.4440 H   0  0  0  0  0  0  0  0  0  0  0  0
   -7.8672    1.6224   -9.1591 H   0  0  0  0  0  0  0  0  0  0  0  0
   -8.9835    0.3454  -10.9724 H   0  0  0  0  0  0  0  0  0  0  0  0
   -6.7138    2.4542  -13.9068 H   0  0  0  0  0  0  0  0  0  0  0  0
   -5.0946    4.1494  -13.2299 H   0  0  0  0  0  0  0  0  0  0  0  0
   -2.7563    9.6599   -3.7198 H   0  0  0  0  0  0  0  0  0  0  0  0
   -3.1620    9.3254   -2.0371 H   0  0  0  0  0  0  0  0  0  0  0  0
   -4.3649    7.2544   -2.7269 H   0  0  0  0  0  0  0  0  0  0  0  0
   -3.9801    7.5786   -4.4187 H   0  0  0  0  0  0  0  0  0  0  0  0
   -5.0297    8.6811   -3.5254 H   0  0  0  0  0  0  0  0  0  0  0  0
   -0.0275   -2.3480    7.3743 H   0  0  0  0  0  0  0  0  0  0  0  0
    0.9318   -2.7693    5.9350 H   0  0  0  0  0  0  0  0  0  0  0  0
   -0.4293   -1.2166    4.5516 H   0  0  0  0  0  0  0  0  0  0  0  0
   -1.3569   -0.7345    5.9775 H   0  0  0  0  0  0  0  0  0  0  0  0
   -1.4727   -2.3913    5.3596 H   0  0  0  0  0  0  0  0  0  0  0  0
    1.8414    3.4946    0.0238 H   0  0  0  0  0  0  0  0  0  0  0  0
    0.9177    4.0938   -1.3551 H   0  0  0  0  0  0  0  0  0  0  0  0
    3.5805    5.3365   -0.4928 H   0  0  0  0  0  0  0  0  0  0  0  0
    3.3700    4.1689   -1.8022 H   0  0  0  0  0  0  0  0  0  0  0  0
    2.6142    5.7581   -1.9015 H   0  0  0  0  0  0  0  0  0  0  0  0
    3.5902    2.5448    1.5421 H   0  0  0  0  0  0  0  0  0  0  0  0
    3.3870    4.3008    1.2891 H   0  0  0  0  0  0  0  0  0  0  0  0
    4.2382    4.7278    3.5889 H   0  0  0  0  0  0  0  0  0  0  0  0
    5.4220    3.8968    2.5723 H   0  0  0  0  0  0  0  0  0  0  0  0
    4.5293    2.9970    3.7970 H   0  0  0  0  0  0  0  0  0  0  0  0
    3.4454   -4.5016   10.7200 H   0  0  0  0  0  0  0  0  0  0  0  0
    4.0785   -5.8870    9.8077 H   0  0  0  0  0  0  0  0  0  0  0  0
    1.8211   -6.3727    8.9304 H   0  0  0  0  0  0  0  0  0  0  0  0
    1.1519   -5.0042    9.8218 H   0  0  0  0  0  0  0  0  0  0  0  0
    1.8195   -6.3849   10.6985 H   0  0  0  0  0  0  0  0  0  0  0  0
    3.8248   -1.0204    9.5260 H   0  0  0  0  0  0  0  0  0  0  0  0
    3.9420   -2.4284   10.6009 H   0  0  0  0  0  0  0  0  0  0  0  0
    1.3834   -1.2764    9.3848 H   0  0  0  0  0  0  0  0  0  0  0  0
    1.4355   -2.6816   10.4609 H   0  0  0  0  0  0  0  0  0  0  0  0
    1.8890   -1.0876   11.0684 H   0  0  0  0  0  0  0  0  0  0  0  0
    4.7551   -6.7895    6.0098 H   0  0  0  0  0  0  0  0  0  0  0  0
    1.0344   -7.5381    0.9865 H   0  0  0  0  0  0  0  0  0  0  0  0
    0.1836   -9.0411   -0.7866 H   0  0  0  0  0  0  0  0  0  0  0  0
    0.1553  -11.2699   -1.8805 H   0  0  0  0  0  0  0  0  0  0  0  0
    2.9938  -12.7352    0.9487 H   0  0  0  0  0  0  0  0  0  0  0  0
    3.8551  -11.2736    2.7028 H   0  0  0  0  0  0  0  0  0  0  0  0
  1  2  2  0  0  0  0
  2  3  1  0  0  0  0
  3  4  2  0  0  0  0
  3  5  1  0  0  0  0
  5  6  2  0  0  0  0
  6  7  1  0  0  0  0
  7  8  2  0  0  0  0
  8  9  1  0  0  0  0
  9 10  2  0  0  0  0
 10 11  1  0  0  0  0
 10 12  1  0  0  0  0
 12 13  2  0  0  0  0
 13 14  1  0  0  0  0
 14 15  2  0  0  0  0
 15 16  1  0  0  0  0
 16 17  2  0  0  0  0
 17 18  1  0  0  0  0
 18 19  3  0  0  0  0
 17 20  1  0  0  0  0
 20 21  3  0  0  0  0
  1 22  1  0  0  0  0
 22 23  2  0  0  0  0
 23 24  1  0  0  0  0
 23 25  1  0  0  0  0
 25 26  1  0  0  0  0
 25 27  2  0  0  0  0
 27 28  1  0  0  0  0
 28 29  1  0  0  0  0
 28 30  2  0  0  0  0
 30 31  1  0  0  0  0
 27 32  1  0  0  0  0
 32 33  2  0  0  0  0
 33 34  1  0  0  0  0
 34 35  1  0  0  0  0
 33 36  1  0  0  0  0
 36 37  1  0  0  0  0
 37 38  1  0  0  0  0
 38 39  1  0  0  0  0
 39 40  1  0  0  0  0
 40 41  1  0  0  0  0
 41 42  2  0  0  0  0
 42 43  1  0  0  0  0
 43 44  1  0  0  0  0
 41 45  1  0  0  0  0
 45 46  1  0  0  0  0
 46 47  1  0  0  0  0
 47 48  1  0  0  0  0
 48 49  1  0  0  0  0
 49 50  1  0  0  0  0
 50 51  1  0  0  0  0
 51 52  1  0  0  0  0
 49 53  2  0  0  0  0
 53 54  1  0  0  0  0
 54 55  1  0  0  0  0
 55 56  1  0  0  0  0
 56 57  1  0  0  0  0
 57 58  1  0  0  0  0
 58 59  1  0  0  0  0
 59 60  1  0  0  0  0
 60 61  1  0  0  0  0
 61 62  1  0  0  0  0
 62 63  1  0  0  0  0
 60 64  1  0  0  0  0
 64 65  1  0  0  0  0
 57 66  1  0  0  0  0
 66 67  1  0  0  0  0
 53 68  1  0  0  0  0
 68 69  2  0  0  0  0
 69 70  1  0  0  0  0
 69 71  1  0  0  0  0
 71 72  1  0  0  0  0
 71 73  2  0  0  0  0
 73 74  1  0  0  0  0
 74 75  2  0  0  0  0
 75 76  1  0  0  0  0
 76 77  1  0  0  0  0
 77 78  1  0  0  0  0
 76 79  2  0  0  0  0
 79 80  1  0  0  0  0
 80 81  2  0  0  0  0
 79 82  1  0  0  0  0
 82 83  1  0  0  0  0
 73 84  1  0  0  0  0
 84 85  2  0  0  0  0
 85 86  1  0  0  0  0
 86 87  2  0  0  0  0
 86 88  1  0  0  0  0
 88 89  2  0  0  0  0
 89 90  1  0  0  0  0
 90 91  2  0  0  0  0
 91 92  1  0  0  0  0
 92 93  2  0  0  0  0
 93 94  1  0  0  0  0
 93 95  1  0  0  0  0
 95 96  2  0  0  0  0
 96 97  1  0  0  0  0
 97 98  2  0  0  0  0
 98 99  1  0  0  0  0
 99100  2  0  0  0  0
100101  1  0  0  0  0
101102  3  0  0  0  0
100103  1  0  0  0  0
103104  3  0  0  0  0
 16  2  1  0  0  0  0
 30 22  1  0  0  0  0
 63 32  1  0  0  0  0
 81 68  1  0  0  0  0
 99 85  1  0  0  0  0
 15  5  1  0  0  0  0
 62 36  2  0  0  0  0
 81 74  1  0  0  0  0
 98 88  1  0  0  0  0
 13  7  1  0  0  0  0
 61 38  2  0  0  0  0
 96 90  1  0  0  0  0
 59 39  2  0  0  0  0
 44 40  2  0  0  0  0
 58 45  2  0  0  0  0
 56 46  2  0  0  0  0
 55 48  2  0  0  0  0
  1105  1  0  0  0  0
  6106  1  0  0  0  0
  8107  1  0  0  0  0
  9108  1  0  0  0  0
 12109  1  0  0  0  0
 14110  1  0  0  0  0
 34111  1  0  0  0  0
 34112  1  0  0  0  0
 35113  1  0  0  0  0
 35114  1  0  0  0  0
 35115  1  0  0  0  0
 51116  1  0  0  0  0
 51117  1  0  0  0  0
 52118  1  0  0  0  0
 52119  1  0  0  0  0
 52120  1  0  0  0  0
 64121  1  0  0  0  0
 64122  1  0  0  0  0
 65123  1  0  0  0  0
 65124  1  0  0  0  0
 65125  1  0  0  0  0
 66126  1  0  0  0  0
 66127  1  0  0  0  0
 67128  1  0  0  0  0
 67129  1  0  0  0  0
 67130  1  0  0  0  0
 77131  1  0  0  0  0
 77132  1  0  0  0  0
 78133  1  0  0  0  0
 78134  1  0  0  0  0
 78135  1  0  0  0  0
 82136  1  0  0  0  0
 82137  1  0  0  0  0
 83138  1  0  0  0  0
 83139  1  0  0  0  0
 83140  1  0  0  0  0
 84141  1  0  0  0  0
 89142  1  0  0  0  0
 91143  1  0  0  0  0
 92144  1  0  0  0  0
 95145  1  0  0  0  0
 97146  1  0  0  0  0
M  END
