128

C         -6.14760       -0.50640        7.91470
C         -6.04890       -0.64810        9.25490
C         -6.86270        0.25840       10.12930
O         -7.78080        0.95810        9.77640
C         -6.25680        0.14720       11.46610
C         -6.52860        0.86970       12.59280
C         -5.79020        0.61440       13.76910
C         -6.03060        1.33180       14.95930
C         -5.30490        1.08230       16.09050
C         -4.30970        0.09550       16.05430
F         -3.60650       -0.13500       17.17670
C         -4.03580       -0.62890       14.92760
C         -4.77430       -0.38650       13.75300
C         -4.51810       -1.12320       12.57350
C         -5.25370       -0.86510       11.44810
C         -5.22030       -1.46790       10.12010
C         -4.69010       -2.69210        9.81720
C         -3.99380       -3.49610       10.74500
N         -3.42180       -4.18560       11.46150
C         -4.83820       -3.32090        8.56530
N         -4.94930       -3.86390        7.56000
C         -5.27760       -0.96630        6.86230
C         -3.88670       -1.08360        6.98480
F         -3.29840       -0.78460        8.15410
C         -3.08740       -1.45590        5.92150
F         -1.76400       -1.54130        6.11820
C         -3.61900       -1.76330        4.66140
C         -5.00830       -1.62340        4.53180
F         -5.58220       -1.80440        3.33620
C         -5.80350       -1.22580        5.58890
F         -7.12040       -1.08650        5.39620
C         -2.77230       -2.11390        3.54320
C         -2.93320       -3.09770        2.59090
C         -3.96770       -4.17710        2.60320
C         -4.87210       -4.12620        1.37150
C         -1.91040       -3.03090        1.62500
S         -1.59320       -3.94920        0.17100
C         -0.23220       -2.93270       -0.15060
C          0.75890       -2.75650       -1.12790
C          1.04410       -3.49290       -2.29770
C          2.15520       -3.09550       -3.11150
N          2.32600       -3.88900       -4.15750
S          1.18200       -5.03440       -4.12280
N          0.42690       -4.56460       -2.77020
C          2.87360       -1.93270       -2.76020
C          3.88230       -1.24010       -3.44440
S          4.76920       -1.35110       -4.92290
C          5.47860        0.21030       -4.58950
C          6.34470        1.06550       -5.31850
O          6.98150        0.73570       -6.48190
C          6.29810        0.90370       -7.71770
C          5.02420        0.08400       -7.86630
C          6.61370        2.22800       -4.63230
S          5.84870        2.25950       -3.05540
C          5.07690        0.74210       -3.36640
C          4.14760       -0.08010       -2.71470
N          3.36410       -0.03880       -1.59510
C          2.55890       -1.16710       -1.60180
C          1.54430       -1.63750       -0.72680
N          1.05890       -1.18040        0.48930
C         -0.01850       -1.95650        0.82530
C         -0.97860       -2.01200        1.84160
S         -1.33590       -1.13160        3.27860
C          1.70910       -0.39300        1.51410
C          3.06980       -0.97490        1.88820
C          3.18130        1.22280       -0.91310
C          1.81830        1.82990       -1.23340
C          7.36380        3.38450       -5.10190
C          6.95080        4.14850       -6.12850
C          5.66450        4.00430       -6.75960
C          4.55190        3.70070       -6.03950
C          3.29470        3.21590       -6.46270
C          2.80310        2.85840       -7.69160
C          3.26000        3.27590       -9.03570
O          4.25790        3.89920       -9.33790
C          2.20570        2.82940       -9.96680
C          2.10770        3.05340      -11.30960
C          0.98250        2.56300      -12.00940
C          0.82470        2.77630      -13.39390
C         -0.27320        2.30480      -14.05870
C         -1.24830        1.59790      -13.34200
F         -2.32070        1.14170      -14.01320
C         -1.14440        1.36270      -11.99910
C         -0.02140        1.84310      -11.29820
C          0.11040        1.62150       -9.90740
C          1.20860        2.10900       -9.25140
C          1.60750        2.05070       -7.85080
C          1.02960        1.25750       -6.89070
C          1.49100        1.09280       -5.56930
N          1.80300        0.88730       -4.48140
C         -0.10440        0.44950       -7.11970
N         -1.02960       -0.21870       -7.24110
H         -6.98990        0.09290        7.57960
H         -7.29580        1.62940       12.58520
H         -6.80190        2.08710       14.96230
H         -5.47550        1.62210       17.00840
H         -3.26420       -1.38280       14.93700
H         -3.73530       -1.86500       12.58450
H         -4.56600       -4.11400        3.51210
H         -3.44260       -5.13680        2.61260
H         -4.28840       -4.25080        0.46320
H         -5.39880       -3.17790        1.32190
H         -5.60470       -4.92690        1.42420
H          6.07390        1.96650       -7.87060
H          7.03720        0.58940       -8.45830
H          4.27180        0.40550       -7.14910
H          5.22810       -0.97200       -7.70860
H          4.63020        0.22250       -8.87030
H          1.78890        0.65110        1.20990
H          1.05420       -0.42120        2.38870
H          2.94800       -1.98250        2.27890
H          3.53670       -0.36150        2.65420
H          3.72870       -1.02350        1.02450
H          3.33700        1.10800        0.16010
H          3.96610        1.88880       -1.28030
H          1.72390        2.80550       -0.76370
H          1.00950        1.19080       -0.88820
H          1.71750        1.94120       -2.31020
H          8.30310        3.59510       -4.60620
H          7.61700        4.89660       -6.53720
H          5.59810        4.18810       -7.82400
H          4.64760        3.73660       -4.96170
H          2.63510        2.99220       -5.63170
H          2.87670        3.60330      -11.83150
H          1.58890        3.32390      -13.92470
H         -0.41020        2.46150      -15.11680
H         -1.91380        0.81350      -11.47930
H         -0.66940        1.08160       -9.39450
