153

C         -8.03680       -7.51130        1.38300
C         -9.21380       -7.66380        2.02860
C         -9.88960       -6.56580        2.78890
O         -9.47190       -5.44700        2.98680
C        -11.21970       -7.09130        3.13130
C        -12.22730       -6.46890        3.81240
C        -13.44190       -7.15550        4.02630
C        -14.51080       -6.56320        4.73030
C        -15.68330       -7.23760        4.92740
C        -15.81320       -8.53740        4.41770
F        -16.97350       -9.18370        4.62190
C        -14.80890       -9.15830        3.72830
C        -13.59320       -8.47880        3.51660
C        -12.53540       -9.09630        2.81100
C        -11.36100       -8.41500        2.62420
C        -10.12180       -8.79990        1.96150
C         -9.83170      -10.03240        1.44570
C         -8.58810      -10.39740        0.88480
N         -7.60060      -10.76320        0.42870
C        -10.73530      -11.11730        1.43310
N        -11.43090      -12.02850        1.38690
C         -7.14310       -6.39520        1.61610
C         -6.78930       -5.97940        2.90530
F         -7.20970       -6.68700        3.95880
C         -5.94750       -4.90430        3.11380
F         -5.56380       -4.62960        4.36630
C         -5.44800       -4.13860        2.04810
C         -5.75450       -4.59980        0.75900
F         -5.29080       -3.93210       -0.30970
C         -6.55940       -5.70350        0.55160
F         -6.84760       -6.08320       -0.70050
C         -4.67710       -2.93680        2.26100
C         -4.86780       -1.96610        3.22960
C         -5.92400       -1.95770        4.24940
C         -5.51460       -1.83160        5.57700
C         -6.42860       -1.88240        6.60820
C         -7.77060       -2.06910        6.32210
C         -8.18400       -2.16230        5.00780
C         -7.28310       -2.09080        3.95120
C         -7.83140       -2.09330        2.55010
C         -8.66760       -0.83740        2.29280
C         -3.89120       -0.95730        3.12720
S         -3.59540        0.49530        4.05240
C         -2.23210        0.83110        3.04030
C         -1.17550        1.75120        2.95180
C         -0.77400        2.79640        3.81310
C          0.49330        3.43290        3.58870
N          0.77750        4.33330        4.51640
S         -0.44550        4.38340        5.57560
N         -1.38410        3.25380        4.89500
C          1.23770        3.08930        2.43870
C          2.44540        3.59010        1.92470
S          3.69290        4.71240        2.35350
C          4.49280        4.35850        0.83860
C          5.68980        4.81840        0.26980
C          6.57800        5.77890        0.94560
C          7.80120        5.37870        1.49130
C          8.23890        3.94130        1.46680
C          7.55280        3.15360        2.58480
C          8.58810        6.33360        2.12020
C          8.18040        7.65230        2.21570
C          6.95880        8.03630        1.69110
C          6.16020        7.09970        1.06180
C          5.91070        4.24130       -0.97190
S          4.64820        3.10170       -1.42000
C          3.81190        3.41870        0.05570
C          2.64550        2.97480        0.68560
N          1.62700        2.09510        0.42040
C          0.75910        2.13160        1.50080
C         -0.38380        1.36120        1.83450
N         -0.92350        0.20860        1.29700
C         -2.03690       -0.11210        2.02610
C         -2.98200       -1.14340        2.08150
S         -3.32520       -2.58380        1.19990
C         -0.34780       -0.76070        0.39230
C         -1.10670       -0.82980       -0.93360
C          1.34750        1.78400       -0.96550
C          0.82200        3.01230       -1.70810
C          6.98300        4.45550       -1.87420
C          7.94510        5.45580       -1.83000
C          8.86080        5.35430       -2.86170
S         10.20440        6.49310       -3.05260
C         11.54370        5.51360       -2.27180
C         11.30430        5.30980       -0.79060
C          8.61940        4.29070       -3.74680
S          7.20450        3.40380       -3.23770
C          9.43460        4.01610       -4.84830
C          9.30600        3.05980       -5.82530
C          8.15110        2.17610       -6.01000
O          7.20720        2.01630       -5.25450
C          8.34230        1.52540       -7.31800
C          7.51690        0.65850       -7.97270
C          7.89840        0.17240       -9.24350
C          7.08390       -0.72370       -9.96500
C          7.46050       -1.18260      -11.19670
C          8.67720       -0.74780      -11.73870
F          9.03090       -1.20950      -12.95230
C          9.50490        0.11940      -11.08090
C          9.13330        0.60110       -9.81090
C          9.97160        1.49580       -9.10420
C          9.58360        1.94900       -7.87260
C         10.23020        2.84630       -6.91830
C         11.51890        3.30840       -7.00690
C         12.18720        4.02580       -5.99390
N         12.80580        4.56450       -5.18950
C         12.37230        3.05510       -8.09980
N         13.11030        2.88670       -8.96310
H         -7.72470       -8.21550        0.62280
H        -12.09480       -5.46520        4.18750
H        -14.38750       -5.56150        5.11340
H        -16.51050       -6.79950        5.46290
H        -14.94320      -10.16010        3.35130
H        -12.68330      -10.09450        2.43130
H         -4.46240       -1.72330        5.79320
H         -6.09390       -1.79240        7.63040
H         -8.49270       -2.13770        7.12210
H         -9.23110       -2.30480        4.78540
H         -8.45420       -2.98140        2.41260
H         -7.02830       -2.12220        1.81490
H         -9.05790       -0.84960        1.27770
H         -8.05570        0.05370        2.41850
H         -9.50460       -0.77630        2.98300
H          7.99920        3.48400        0.50510
H          9.32040        3.88980        1.60710
H          7.88650        2.11870        2.57740
H          7.78920        3.58930        3.55270
H          6.47300        3.17030        2.45870
H          9.53700        6.03460        2.54240
H          8.81320        8.37770        2.70470
H          6.62800        9.06070        1.77010
H          5.20690        7.38890        0.64400
H         -0.40670       -1.74200        0.87690
H          0.70870       -0.52960        0.25050
H         -0.57120       -1.46710       -1.63180
H         -2.09610       -1.25080       -0.77760
H         -1.23100        0.15550       -1.37750
H          2.28230        1.44630       -1.42320
H          0.61280        0.99190       -1.03370
H          0.61350        2.75270       -2.74230
H         -0.09460        3.37070       -1.24360
H          1.55460        3.81490       -1.69500
H          7.97860        6.23090       -1.08750
H         12.43940        6.10340       -2.45750
H         11.62670        4.56880       -2.80740
H         10.39680        4.73240       -0.62250
H         12.14440        4.77240       -0.35490
H         11.20050        6.26770       -0.28560
H         10.27170        4.70070       -4.93660
H          6.58310        0.34800       -7.52810
H          6.15060       -1.04390       -9.52670
H          6.84890       -1.86790      -11.76180
H         10.43570        0.43140      -11.52820
H         10.89820        1.80390       -9.56130
