163

C         -0.59120       -1.41310      -11.94990
C         -0.88590       -2.72670      -11.84740
C         -1.64730       -3.30330      -10.69420
O         -2.08850       -2.70500       -9.73770
C         -1.85060       -4.71910      -11.02500
C         -2.48140       -5.67840      -10.28430
C         -2.55930       -6.99490      -10.78640
C         -3.18490       -8.02700      -10.05680
C         -3.25150       -9.29870      -10.55320
C         -2.68600       -9.56810      -11.80780
F         -2.76100      -10.82450      -12.27820
C         -2.06900       -8.60460      -12.55660
C         -1.98940       -7.28850      -12.06050
C         -1.35250       -6.27240      -12.80950
C         -1.27830       -5.00260      -12.29820
C         -0.67510       -3.78500      -12.82660
C          0.02770       -3.67590      -13.99380
C          0.65510       -2.49530      -14.44860
N          1.19850       -1.57640      -14.86930
C          0.23420       -4.74210      -14.89630
N          0.43060       -5.56770      -15.66850
C         -0.71730       -0.51610      -10.81160
C         -1.45620        0.66620      -10.87720
F         -2.01480        1.01520      -12.04340
C         -1.67470        1.44310       -9.75300
F         -2.40650        2.55900       -9.86660
C         -1.14070        1.09240       -8.50570
C         -0.29700       -0.02610       -8.47380
F          0.28760       -0.37890       -7.32030
C         -0.11120       -0.82000       -9.58830
F          0.67430       -1.90060       -9.49770
C         -1.51730        1.79140       -7.29670
C         -2.80530        2.13030       -6.92610
C         -4.00110        1.76460       -7.68590
C         -5.03650        2.67660       -7.85950
C         -6.14750        2.31840       -8.60020
C         -6.23640        1.05910       -9.16650
C         -5.21990        0.12840       -8.98370
C         -5.32550       -1.25870       -9.54890
C         -6.10980       -2.16570       -8.59890
C         -4.11370        0.48870       -8.23250
C         -2.82060        2.74060       -5.65690
S         -4.11930        3.27210       -4.61650
C         -2.95980        3.57300       -3.36640
C         -2.92520        3.94050       -2.01200
C         -3.95890        4.33450       -1.13540
C         -3.64400        4.57890        0.24160
N         -4.70160        4.95250        0.94450
S         -5.98420        4.99320       -0.04300
N         -5.24010        4.53070       -1.40450
C         -2.32740        4.33670        0.69040
C         -1.80970        4.25510        1.99160
S         -2.35650        4.35990        3.63210
C         -0.79400        3.77780        4.16800
C         -0.30960        3.36870        5.42650
C         -1.17810        3.32070        6.60280
C         -1.21800        2.19300        7.41980
C         -2.09810        2.14360        8.48310
C         -2.96970        3.19210        8.72040
C         -2.97170        4.30900        7.89360
C         -3.94850        5.42730        8.12740
C         -3.49690        6.35130        9.25890
C         -2.06240        4.36700        6.84920
C          0.98600        2.87880        5.32750
S          1.58670        2.90930        3.67870
C          0.10120        3.56950        3.11610
C         -0.48340        3.83420        1.87170
N         -0.15180        3.68940        0.55320
C         -1.27980        3.96210       -0.20190
C         -1.56820        3.84420       -1.58840
N         -0.79570        3.49260       -2.68690
C         -1.64270        3.30870       -3.74690
C         -1.55960        2.83620       -5.06250
S         -0.32280        2.20430       -6.08730
C          0.61430        3.69420       -2.94440
C          1.02910        5.13870       -2.67590
C          1.08170        3.02180        0.20820
C          0.84320        1.55970       -0.16130
C          1.82850        2.34690        6.36120
C          2.77530        1.35670        6.10850
F          3.00630        0.94260        4.84760
C          3.49420        0.72860        7.12110
F          4.43750       -0.15270        6.75780
C          3.29860        1.03700        8.46030
C          2.44220        2.13710        8.73930
N          2.28630        2.51580       10.02380
C          1.53230        3.55350       10.28020
O          1.33970        3.96050       11.52690
C          1.95640        3.19880       12.56860
C          1.23020        1.88800       12.83110
C          0.92380        4.31370        9.22210
N          1.03110        3.91680        7.98940
C          1.74540        2.80530        7.70810
C          0.17600        5.56160        9.52560
C          3.94690        0.36790        9.55410
C          4.22660       -0.95570        9.61980
C          3.75010       -1.99620        8.66130
O          2.82920       -1.90720        7.88270
C          4.55830       -3.19330        8.95710
C          4.62710       -4.36880        8.26750
C          5.51090       -5.37680        8.71210
C          5.63830       -6.60110        8.02440
C          6.50320       -7.56640        8.45890
C          7.26880       -7.32340        9.60780
F          8.11540       -8.28490       10.01920
C          7.18360       -6.15520       10.31230
C          6.29860       -5.14850        9.87830
C          6.19320       -3.92690       10.58260
C          5.33560       -2.96020       10.12760
C          5.03740       -1.62190       10.62760
C          5.41790       -1.11600       11.84120
C          6.20300       -1.82460       12.77570
N          6.83780       -2.35170       13.57350
C          5.02830        0.13960       12.35300
N          4.73130        1.13210       12.84890
H         -0.26940       -0.97260      -12.88380
H         -2.90710       -5.43390       -9.32260
H         -3.61230       -7.79480       -9.09300
H         -3.72520      -10.09990      -10.00840
H         -1.64380       -8.84910      -13.51740
H         -0.93810       -6.52620      -13.77180
H         -4.95640        3.66580       -7.43570
H         -6.94630        3.03070       -8.74340
H         -7.10230        0.79290       -9.75540
H         -5.83100       -1.22550      -10.51650
H         -4.32540       -1.67330       -9.69400
H         -7.11060       -1.77190       -8.43530
H         -5.60460       -2.22820       -7.63790
H         -6.19330       -3.16780       -9.01360
H         -3.33420       -0.24120       -8.06510
H         -0.57090        1.35310        7.21270
H         -2.11900        1.27030        9.11900
H         -3.66990        3.13380        9.54160
H         -4.06320        6.00920        7.21160
H         -4.92220        5.00360        8.38350
H         -4.24390        7.12150        9.43660
H         -3.35810        5.78800       10.17900
H         -2.55720        6.83480        9.00450
H         -2.03960        5.23990        6.21350
H          0.76980        3.46700       -4.00200
H          1.22110        2.98810       -2.37740
H          2.09220        5.26030       -2.86550
H          0.48100        5.81100       -3.33210
H          0.81890        5.42530       -1.64800
H          1.71870        3.06570        1.09510
H          1.59720        3.56360       -0.58340
H          0.13870        1.47070       -0.98520
H          1.78110        1.08970       -0.44390
H          0.43550        1.02600        0.69380
H          1.91160        3.85040       13.44320
H          2.99840        2.99790       12.30510
H          0.18950        2.07220       13.08760
H          1.71690        1.37320       13.65370
H          1.27350        1.25540       11.94830
H         -0.67260        5.32950       10.16600
H          0.81570        6.25890       10.06380
H         -0.17120        6.00710        8.59900
H          4.19340        1.01450       10.38540
H          4.02510       -4.52130        7.38440
H          5.03840       -6.76430        7.14180
H          6.61390       -8.50740        7.94370
H          7.78820       -6.00310       11.19280
H          6.80440       -3.78240       11.45920
