
  xtb     02042222193D
 energy: -259.781484834325 gnorm: 0.000469674786 xtb: 6.4.1 (unknown)
124138  0     0  0            999 V2000
   -7.1484    2.5612    8.3950 C   0  0  0  0  0  0  0  0  0  0  0  0
   -8.2761    3.1454    7.9405 C   0  0  0  0  0  0  0  0  0  0  0  0
   -8.4504    3.6271    6.5323 C   0  0  0  0  0  0  0  0  0  0  0  0
   -7.6187    3.6330    5.6549 O   0  0  0  0  0  0  0  0  0  0  0  0
   -9.8737    3.9770    6.4148 C   0  0  0  0  0  0  0  0  0  0  0  0
  -10.5412    4.4475    5.3197 C   0  0  0  0  0  0  0  0  0  0  0  0
  -11.9242    4.7121    5.4170 C   0  0  0  0  0  0  0  0  0  0  0  0
  -12.6593    5.2066    4.3197 C   0  0  0  0  0  0  0  0  0  0  0  0
  -13.9995    5.4543    4.4248 C   0  0  0  0  0  0  0  0  0  0  0  0
  -14.6413    5.2093    5.6474 C   0  0  0  0  0  0  0  0  0  0  0  0
  -15.9590    5.4587    5.7307 F   0  0  0  0  0  0  0  0  0  0  0  0
  -13.9763    4.7308    6.7421 C   0  0  0  0  0  0  0  0  0  0  0  0
  -12.5947    4.4708    6.6526 C   0  0  0  0  0  0  0  0  0  0  0  0
  -11.8791    3.9796    7.7682 C   0  0  0  0  0  0  0  0  0  0  0  0
  -10.5339    3.7405    7.6548 C   0  0  0  0  0  0  0  0  0  0  0  0
   -9.5588    3.2573    8.6233 C   0  0  0  0  0  0  0  0  0  0  0  0
   -9.7839    3.0334    9.9526 C   0  0  0  0  0  0  0  0  0  0  0  0
   -8.7939    2.6429   10.8813 C   0  0  0  0  0  0  0  0  0  0  0  0
   -8.0366    2.3433   11.6895 N   0  0  0  0  0  0  0  0  0  0  0  0
  -11.0387    3.1932   10.5806 C   0  0  0  0  0  0  0  0  0  0  0  0
  -12.0326    3.3011   11.1431 N   0  0  0  0  0  0  0  0  0  0  0  0
   -5.8803    2.6025    7.6871 C   0  0  0  0  0  0  0  0  0  0  0  0
   -5.1254    1.4417    7.5033 C   0  0  0  0  0  0  0  0  0  0  0  0
   -5.6035    0.2808    7.9702 F   0  0  0  0  0  0  0  0  0  0  0  0
   -3.9191    1.4598    6.8262 C   0  0  0  0  0  0  0  0  0  0  0  0
   -3.2436    0.3119    6.6752 F   0  0  0  0  0  0  0  0  0  0  0  0
   -3.3730    2.6501    6.3303 C   0  0  0  0  0  0  0  0  0  0  0  0
   -4.1222    3.8147    6.5350 C   0  0  0  0  0  0  0  0  0  0  0  0
   -3.6730    4.9795    6.0526 F   0  0  0  0  0  0  0  0  0  0  0  0
   -5.3403    3.7935    7.1926 C   0  0  0  0  0  0  0  0  0  0  0  0
   -5.9833    4.9461    7.4036 F   0  0  0  0  0  0  0  0  0  0  0  0
   -2.1067    2.6561    5.6206 C   0  0  0  0  0  0  0  0  0  0  0  0
   -0.9998    3.4465    5.8247 C   0  0  0  0  0  0  0  0  0  0  0  0
   -0.8237    4.4688    6.9012 C   0  0  0  0  0  0  0  0  0  0  0  0
   -0.6461    5.8736    6.3243 C   0  0  0  0  0  0  0  0  0  0  0  0
    0.0295    3.1074    4.9229 C   0  0  0  0  0  0  0  0  0  0  0  0
    1.6589    3.7037    4.7132 S   0  0  0  0  0  0  0  0  0  0  0  0
    1.8881    2.5633    3.4338 C   0  0  0  0  0  0  0  0  0  0  0  0
    2.9005    2.1285    2.5628 C   0  0  0  0  0  0  0  0  0  0  0  0
    4.2676    2.4729    2.4838 C   0  0  0  0  0  0  0  0  0  0  0  0
    5.1161    1.7423    1.5866 C   0  0  0  0  0  0  0  0  0  0  0  0
    6.3816    2.1228    1.6659 N   0  0  0  0  0  0  0  0  0  0  0  0
    6.4950    3.3027    2.7677 S   0  0  0  0  0  0  0  0  0  0  0  0
    4.9339    3.3726    3.1904 N   0  0  0  0  0  0  0  0  0  0  0  0
    4.5329    0.7945    0.7175 C   0  0  0  0  0  0  0  0  0  0  0  0
    5.0781    0.0555   -0.3443 C   0  0  0  0  0  0  0  0  0  0  0  0
    6.6125   -0.2240   -1.0929 S   0  0  0  0  0  0  0  0  0  0  0  0
    5.8124   -1.2175   -2.2826 C   0  0  0  0  0  0  0  0  0  0  0  0
    6.3017   -1.9471   -3.3871 C   0  0  0  0  0  0  0  0  0  0  0  0
    7.6270   -1.9683   -3.6413 O   0  0  0  0  0  0  0  0  0  0  0  0
    8.2568   -3.2066   -3.9330 C   0  0  0  0  0  0  0  0  0  0  0  0
    8.1015   -4.2109   -2.7973 C   0  0  0  0  0  0  0  0  0  0  0  0
    5.2726   -2.5956   -4.0578 C   0  0  0  0  0  0  0  0  0  0  0  0
    3.7162   -2.3477   -3.2800 S   0  0  0  0  0  0  0  0  0  0  0  0
    4.4327   -1.3200   -2.0965 C   0  0  0  0  0  0  0  0  0  0  0  0
    4.0131   -0.5992   -0.9723 C   0  0  0  0  0  0  0  0  0  0  0  0
    2.8404   -0.3120   -0.3266 N   0  0  0  0  0  0  0  0  0  0  0  0
    3.1346    0.5240    0.7334 C   0  0  0  0  0  0  0  0  0  0  0  0
    2.3362    1.1015    1.7556 C   0  0  0  0  0  0  0  0  0  0  0  0
    1.0233    0.8962    2.1564 N   0  0  0  0  0  0  0  0  0  0  0  0
    0.7652    1.7745    3.1770 C   0  0  0  0  0  0  0  0  0  0  0  0
   -0.2968    2.0773    4.0394 C   0  0  0  0  0  0  0  0  0  0  0  0
   -1.8909    1.4885    4.3263 S   0  0  0  0  0  0  0  0  0  0  0  0
    0.2210   -0.3064    2.0764 C   0  0  0  0  0  0  0  0  0  0  0  0
    0.8163   -1.4177    2.9383 C   0  0  0  0  0  0  0  0  0  0  0  0
    1.5778   -0.5941   -0.9711 C   0  0  0  0  0  0  0  0  0  0  0  0
    1.1643   -2.0570   -0.8161 C   0  0  0  0  0  0  0  0  0  0  0  0
    5.2998   -3.3418   -5.2908 C   0  0  0  0  0  0  0  0  0  0  0  0
    6.0816   -2.9399   -6.3851 C   0  0  0  0  0  0  0  0  0  0  0  0
    6.8279   -1.8317   -6.2938 F   0  0  0  0  0  0  0  0  0  0  0  0
    6.0755   -3.6322   -7.5812 C   0  0  0  0  0  0  0  0  0  0  0  0
    6.8772   -3.2050   -8.5699 F   0  0  0  0  0  0  0  0  0  0  0  0
    5.2860   -4.7726   -7.7767 C   0  0  0  0  0  0  0  0  0  0  0  0
    4.5193   -5.1847   -6.6766 C   0  0  0  0  0  0  0  0  0  0  0  0
    3.7632   -6.2818   -6.7947 F   0  0  0  0  0  0  0  0  0  0  0  0
    4.5069   -4.4835   -5.4879 C   0  0  0  0  0  0  0  0  0  0  0  0
    3.7491   -4.9364   -4.4786 F   0  0  0  0  0  0  0  0  0  0  0  0
    5.2777   -5.5563   -8.9868 C   0  0  0  0  0  0  0  0  0  0  0  0
    5.4588   -5.1815  -10.2713 C   0  0  0  0  0  0  0  0  0  0  0  0
    5.7634   -6.2441  -11.2874 C   0  0  0  0  0  0  0  0  0  0  0  0
    5.6334   -7.4318  -11.1298 O   0  0  0  0  0  0  0  0  0  0  0  0
    6.2920   -5.5137  -12.4528 C   0  0  0  0  0  0  0  0  0  0  0  0
    6.8607   -5.9994  -13.6214 C   0  0  0  0  0  0  0  0  0  0  0  0
    6.9955   -7.6849  -13.9011 Cl  0  0  0  0  0  0  0  0  0  0  0  0
    7.3253   -5.0881  -14.5678 C   0  0  0  0  0  0  0  0  0  0  0  0
    7.2248   -3.7271  -14.3359 C   0  0  0  0  0  0  0  0  0  0  0  0
    6.6503   -3.2257  -13.1738 C   0  0  0  0  0  0  0  0  0  0  0  0
    6.1769   -4.1253  -12.2348 C   0  0  0  0  0  0  0  0  0  0  0  0
    5.5151   -3.9008  -10.9515 C   0  0  0  0  0  0  0  0  0  0  0  0
    4.8734   -2.7523  -10.5822 C   0  0  0  0  0  0  0  0  0  0  0  0
    4.8666   -1.5681  -11.3519 C   0  0  0  0  0  0  0  0  0  0  0  0
    4.8254   -0.5817  -11.9354 N   0  0  0  0  0  0  0  0  0  0  0  0
    4.0806   -2.6377   -9.4221 C   0  0  0  0  0  0  0  0  0  0  0  0
    3.4170   -2.5133   -8.4941 N   0  0  0  0  0  0  0  0  0  0  0  0
   -7.1487    1.9945    9.3173 H   0  0  0  0  0  0  0  0  0  0  0  0
  -10.0159    4.6189    4.3921 H   0  0  0  0  0  0  0  0  0  0  0  0
  -12.1428    5.3871    3.3891 H   0  0  0  0  0  0  0  0  0  0  0  0
  -14.5767    5.8319    3.5958 H   0  0  0  0  0  0  0  0  0  0  0  0
  -14.5030    4.5558    7.6672 H   0  0  0  0  0  0  0  0  0  0  0  0
  -12.4155    3.8004    8.6862 H   0  0  0  0  0  0  0  0  0  0  0  0
   -1.6753    4.4495    7.5821 H   0  0  0  0  0  0  0  0  0  0  0  0
    0.0723    4.2054    7.4705 H   0  0  0  0  0  0  0  0  0  0  0  0
   -1.5191    6.1609    5.7456 H   0  0  0  0  0  0  0  0  0  0  0  0
    0.2297    5.9126    5.6819 H   0  0  0  0  0  0  0  0  0  0  0  0
   -0.5148    6.5881    7.1323 H   0  0  0  0  0  0  0  0  0  0  0  0
    7.8874   -3.6403   -4.8695 H   0  0  0  0  0  0  0  0  0  0  0  0
    9.3060   -2.9349   -4.0664 H   0  0  0  0  0  0  0  0  0  0  0  0
    8.6850   -5.1007   -3.0148 H   0  0  0  0  0  0  0  0  0  0  0  0
    7.0584   -4.4980   -2.6769 H   0  0  0  0  0  0  0  0  0  0  0  0
    8.4527   -3.7754   -1.8650 H   0  0  0  0  0  0  0  0  0  0  0  0
   -0.7732   -0.0453    2.4481 H   0  0  0  0  0  0  0  0  0  0  0  0
    0.1141   -0.6423    1.0501 H   0  0  0  0  0  0  0  0  0  0  0  0
    1.8187   -1.6707    2.5981 H   0  0  0  0  0  0  0  0  0  0  0  0
    0.8763   -1.0984    3.9763 H   0  0  0  0  0  0  0  0  0  0  0  0
    0.1897   -2.3037    2.8854 H   0  0  0  0  0  0  0  0  0  0  0  0
    1.6971   -0.3783   -2.0388 H   0  0  0  0  0  0  0  0  0  0  0  0
    0.8252    0.0936   -0.5831 H   0  0  0  0  0  0  0  0  0  0  0  0
    1.8502   -2.6972   -1.3642 H   0  0  0  0  0  0  0  0  0  0  0  0
    0.1668   -2.2024   -1.2216 H   0  0  0  0  0  0  0  0  0  0  0  0
    1.1725   -2.3663    0.2254 H   0  0  0  0  0  0  0  0  0  0  0  0
    5.1449   -6.6245   -8.8372 H   0  0  0  0  0  0  0  0  0  0  0  0
    7.7676   -5.4555  -15.4800 H   0  0  0  0  0  0  0  0  0  0  0  0
    7.6014   -3.0380  -15.0762 H   0  0  0  0  0  0  0  0  0  0  0  0
    6.5933   -2.1619  -13.0121 H   0  0  0  0  0  0  0  0  0  0  0  0
  1  2  2  0  0  0  0
  2  3  1  0  0  0  0
  3  4  2  0  0  0  0
  3  5  1  0  0  0  0
  5  6  2  0  0  0  0
  6  7  1  0  0  0  0
  7  8  2  0  0  0  0
  8  9  1  0  0  0  0
  9 10  2  0  0  0  0
 10 11  1  0  0  0  0
 10 12  1  0  0  0  0
 12 13  2  0  0  0  0
 13 14  1  0  0  0  0
 14 15  2  0  0  0  0
 15 16  1  0  0  0  0
 16 17  2  0  0  0  0
 17 18  1  0  0  0  0
 18 19  3  0  0  0  0
 17 20  1  0  0  0  0
 20 21  3  0  0  0  0
  1 22  1  0  0  0  0
 22 23  2  0  0  0  0
 23 24  1  0  0  0  0
 23 25  1  0  0  0  0
 25 26  1  0  0  0  0
 25 27  2  0  0  0  0
 27 28  1  0  0  0  0
 28 29  1  0  0  0  0
 28 30  2  0  0  0  0
 30 31  1  0  0  0  0
 27 32  1  0  0  0  0
 32 33  2  0  0  0  0
 33 34  1  0  0  0  0
 34 35  1  0  0  0  0
 33 36  1  0  0  0  0
 36 37  1  0  0  0  0
 37 38  1  0  0  0  0
 38 39  1  0  0  0  0
 39 40  1  0  0  0  0
 40 41  1  0  0  0  0
 41 42  2  0  0  0  0
 42 43  1  0  0  0  0
 43 44  1  0  0  0  0
 41 45  1  0  0  0  0
 45 46  1  0  0  0  0
 46 47  1  0  0  0  0
 47 48  1  0  0  0  0
 48 49  1  0  0  0  0
 49 50  1  0  0  0  0
 50 51  1  0  0  0  0
 51 52  1  0  0  0  0
 49 53  2  0  0  0  0
 53 54  1  0  0  0  0
 54 55  1  0  0  0  0
 55 56  1  0  0  0  0
 56 57  1  0  0  0  0
 57 58  1  0  0  0  0
 58 59  1  0  0  0  0
 59 60  1  0  0  0  0
 60 61  1  0  0  0  0
 61 62  1  0  0  0  0
 62 63  1  0  0  0  0
 60 64  1  0  0  0  0
 64 65  1  0  0  0  0
 57 66  1  0  0  0  0
 66 67  1  0  0  0  0
 53 68  1  0  0  0  0
 68 69  2  0  0  0  0
 69 70  1  0  0  0  0
 69 71  1  0  0  0  0
 71 72  1  0  0  0  0
 71 73  2  0  0  0  0
 73 74  1  0  0  0  0
 74 75  1  0  0  0  0
 74 76  2  0  0  0  0
 76 77  1  0  0  0  0
 73 78  1  0  0  0  0
 78 79  2  0  0  0  0
 79 80  1  0  0  0  0
 80 81  2  0  0  0  0
 80 82  1  0  0  0  0
 82 83  2  0  0  0  0
 83 84  1  0  0  0  0
 83 85  1  0  0  0  0
 85 86  2  0  0  0  0
 86 87  1  0  0  0  0
 87 88  2  0  0  0  0
 88 89  1  0  0  0  0
 89 90  2  0  0  0  0
 90 91  1  0  0  0  0
 91 92  3  0  0  0  0
 90 93  1  0  0  0  0
 93 94  3  0  0  0  0
 16  2  1  0  0  0  0
 30 22  1  0  0  0  0
 63 32  1  0  0  0  0
 76 68  1  0  0  0  0
 89 79  1  0  0  0  0
 15  5  1  0  0  0  0
 62 36  2  0  0  0  0
 88 82  1  0  0  0  0
 13  7  1  0  0  0  0
 61 38  2  0  0  0  0
 59 39  2  0  0  0  0
 44 40  2  0  0  0  0
 58 45  2  0  0  0  0
 56 46  2  0  0  0  0
 55 48  2  0  0  0  0
  1 95  1  0  0  0  0
  6 96  1  0  0  0  0
  8 97  1  0  0  0  0
  9 98  1  0  0  0  0
 12 99  1  0  0  0  0
 14100  1  0  0  0  0
 34101  1  0  0  0  0
 34102  1  0  0  0  0
 35103  1  0  0  0  0
 35104  1  0  0  0  0
 35105  1  0  0  0  0
 51106  1  0  0  0  0
 51107  1  0  0  0  0
 52108  1  0  0  0  0
 52109  1  0  0  0  0
 52110  1  0  0  0  0
 64111  1  0  0  0  0
 64112  1  0  0  0  0
 65113  1  0  0  0  0
 65114  1  0  0  0  0
 65115  1  0  0  0  0
 66116  1  0  0  0  0
 66117  1  0  0  0  0
 67118  1  0  0  0  0
 67119  1  0  0  0  0
 67120  1  0  0  0  0
 78121  1  0  0  0  0
 85122  1  0  0  0  0
 86123  1  0  0  0  0
 87124  1  0  0  0  0
M  END
