
  xtb     02052211543D
 energy: -300.298313027414 gnorm: 0.000854239567 xtb: 6.4.1 (unknown)
169187  0     0  0            999 V2000
    7.0869    1.8809   -7.4769 C   0  0  0  0  0  0  0  0  0  0  0  0
    8.3430    1.5283   -7.9031 C   0  0  0  0  0  0  0  0  0  0  0  0
    9.6500    1.9731   -7.3733 C   0  0  0  0  0  0  0  0  0  0  0  0
    9.8950    2.8827   -6.6041 O   0  0  0  0  0  0  0  0  0  0  0  0
   10.6482    1.0530   -7.9497 C   0  0  0  0  0  0  0  0  0  0  0  0
   11.9903    0.9990   -7.7084 C   0  0  0  0  0  0  0  0  0  0  0  0
   12.7668    0.0120   -8.3554 C   0  0  0  0  0  0  0  0  0  0  0  0
   14.1558   -0.0938   -8.1397 C   0  0  0  0  0  0  0  0  0  0  0  0
   14.8946   -1.0586   -8.7663 C   0  0  0  0  0  0  0  0  0  0  0  0
   14.2491   -1.9494   -9.6344 C   0  0  0  0  0  0  0  0  0  0  0  0
   14.9926   -2.8932  -10.2410 F   0  0  0  0  0  0  0  0  0  0  0  0
   12.9054   -1.8902   -9.8797 C   0  0  0  0  0  0  0  0  0  0  0  0
   12.1291   -0.9025   -9.2431 C   0  0  0  0  0  0  0  0  0  0  0  0
   10.7365   -0.8168   -9.4775 C   0  0  0  0  0  0  0  0  0  0  0  0
   10.0058    0.1501   -8.8407 C   0  0  0  0  0  0  0  0  0  0  0  0
    8.5842    0.4781   -8.8763 C   0  0  0  0  0  0  0  0  0  0  0  0
    7.6717   -0.0723   -9.7402 C   0  0  0  0  0  0  0  0  0  0  0  0
    7.9823   -1.0839  -10.6725 C   0  0  0  0  0  0  0  0  0  0  0  0
    8.1657   -1.9093  -11.4493 N   0  0  0  0  0  0  0  0  0  0  0  0
    6.3193    0.3091   -9.8664 C   0  0  0  0  0  0  0  0  0  0  0  0
    5.2147    0.5672  -10.0493 N   0  0  0  0  0  0  0  0  0  0  0  0
    6.6635    2.8633   -6.5661 C   0  0  0  0  0  0  0  0  0  0  0  0
    7.3132    3.9231   -5.9584 C   0  0  0  0  0  0  0  0  0  0  0  0
    6.5138    4.6523   -5.0800 C   0  0  0  0  0  0  0  0  0  0  0  0
    7.0832    5.9660   -4.0671 S   0  0  0  0  0  0  0  0  0  0  0  0
    8.8741    5.6084   -3.9262 C   0  0  0  0  0  0  0  0  0  0  0  0
    9.1596    4.3047   -3.2090 C   0  0  0  0  0  0  0  0  0  0  0  0
    5.1990    4.1795   -5.0176 C   0  0  0  0  0  0  0  0  0  0  0  0
    4.9840    2.8147   -6.0634 S   0  0  0  0  0  0  0  0  0  0  0  0
    4.1254    4.5986   -4.1865 C   0  0  0  0  0  0  0  0  0  0  0  0
    3.7912    5.8618   -3.7198 C   0  0  0  0  0  0  0  0  0  0  0  0
    4.3481    7.1144   -4.2213 C   0  0  0  0  0  0  0  0  0  0  0  0
    4.5576    8.1920   -3.3645 C   0  0  0  0  0  0  0  0  0  0  0  0
    5.0627    9.3776   -3.8610 C   0  0  0  0  0  0  0  0  0  0  0  0
    5.3547    9.5051   -5.2076 C   0  0  0  0  0  0  0  0  0  0  0  0
    5.1397    8.4455   -6.0805 C   0  0  0  0  0  0  0  0  0  0  0  0
    5.4046    8.5952   -7.5510 C   0  0  0  0  0  0  0  0  0  0  0  0
    4.1663    9.1420   -8.2638 C   0  0  0  0  0  0  0  0  0  0  0  0
    4.6308    7.2595   -5.5779 C   0  0  0  0  0  0  0  0  0  0  0  0
    2.7286    5.7916   -2.7955 C   0  0  0  0  0  0  0  0  0  0  0  0
    1.8851    7.0011   -1.8564 S   0  0  0  0  0  0  0  0  0  0  0  0
    0.8741    5.7616   -1.1949 C   0  0  0  0  0  0  0  0  0  0  0  0
   -0.1916    5.6209   -0.2862 C   0  0  0  0  0  0  0  0  0  0  0  0
   -0.9964    6.5448    0.4195 C   0  0  0  0  0  0  0  0  0  0  0  0
   -2.1198    6.0621    1.1830 C   0  0  0  0  0  0  0  0  0  0  0  0
   -2.8177    7.0471    1.7249 N   0  0  0  0  0  0  0  0  0  0  0  0
   -2.1264    8.4540    1.3239 S   0  0  0  0  0  0  0  0  0  0  0  0
   -0.9066    7.8649    0.4382 N   0  0  0  0  0  0  0  0  0  0  0  0
   -2.3095    4.6685    1.3297 C   0  0  0  0  0  0  0  0  0  0  0  0
   -3.1880    3.8889    2.1036 C   0  0  0  0  0  0  0  0  0  0  0  0
   -4.5548    4.0899    3.1470 S   0  0  0  0  0  0  0  0  0  0  0  0
   -4.5942    2.3577    3.3952 C   0  0  0  0  0  0  0  0  0  0  0  0
   -5.4129    1.5219    4.1751 C   0  0  0  0  0  0  0  0  0  0  0  0
   -6.4057    2.0318    5.1178 C   0  0  0  0  0  0  0  0  0  0  0  0
   -7.2499    3.0797    4.7632 C   0  0  0  0  0  0  0  0  0  0  0  0
   -8.1598    3.5694    5.6803 C   0  0  0  0  0  0  0  0  0  0  0  0
   -8.2324    3.0282    6.9515 C   0  0  0  0  0  0  0  0  0  0  0  0
   -7.3907    1.9877    7.3264 C   0  0  0  0  0  0  0  0  0  0  0  0
   -7.4329    1.4270    8.7191 C   0  0  0  0  0  0  0  0  0  0  0  0
   -6.4495    2.1698    9.6255 C   0  0  0  0  0  0  0  0  0  0  0  0
   -6.4768    1.5040    6.4050 C   0  0  0  0  0  0  0  0  0  0  0  0
   -5.0403    0.1884    4.0354 C   0  0  0  0  0  0  0  0  0  0  0  0
   -3.6094   -0.0152    3.0410 S   0  0  0  0  0  0  0  0  0  0  0  0
   -3.5903    1.6774    2.6986 C   0  0  0  0  0  0  0  0  0  0  0  0
   -2.7854    2.5544    1.9664 C   0  0  0  0  0  0  0  0  0  0  0  0
   -1.7041    2.4701    1.1245 N   0  0  0  0  0  0  0  0  0  0  0  0
   -1.4220    3.7549    0.7025 C   0  0  0  0  0  0  0  0  0  0  0  0
   -0.4754    4.2324   -0.2262 C   0  0  0  0  0  0  0  0  0  0  0  0
    0.3375    3.5511   -1.1151 N   0  0  0  0  0  0  0  0  0  0  0  0
    1.1670    4.4847   -1.6875 C   0  0  0  0  0  0  0  0  0  0  0  0
    2.2248    4.5031   -2.6002 C   0  0  0  0  0  0  0  0  0  0  0  0
    3.0735    3.3384   -3.5475 S   0  0  0  0  0  0  0  0  0  0  0  0
   -0.0176    2.3472   -1.8419 C   0  0  0  0  0  0  0  0  0  0  0  0
   -0.5944    2.6793   -3.2178 C   0  0  0  0  0  0  0  0  0  0  0  0
   -0.7645    1.3732    1.2386 C   0  0  0  0  0  0  0  0  0  0  0  0
   -0.2209    1.2504    2.6619 C   0  0  0  0  0  0  0  0  0  0  0  0
   -5.6792   -0.9991    4.5135 C   0  0  0  0  0  0  0  0  0  0  0  0
   -7.0448   -1.1282    4.7519 C   0  0  0  0  0  0  0  0  0  0  0  0
   -7.8880   -0.1129    4.5031 F   0  0  0  0  0  0  0  0  0  0  0  0
   -7.6096   -2.3321    5.1718 C   0  0  0  0  0  0  0  0  0  0  0  0
   -8.9393   -2.3742    5.3498 F   0  0  0  0  0  0  0  0  0  0  0  0
   -6.8769   -3.5016    5.3213 C   0  0  0  0  0  0  0  0  0  0  0  0
   -5.4728   -3.4093    5.0976 C   0  0  0  0  0  0  0  0  0  0  0  0
   -4.6814   -4.4650    5.3373 N   0  0  0  0  0  0  0  0  0  0  0  0
   -3.4049   -4.3969    5.0641 C   0  0  0  0  0  0  0  0  0  0  0  0
   -2.5572   -5.5939    5.3773 C   0  0  0  0  0  0  0  0  0  0  0  0
   -3.3750   -6.7811    5.8675 C   0  0  0  0  0  0  0  0  0  0  0  0
   -2.8474   -3.2035    4.5196 C   0  0  0  0  0  0  0  0  0  0  0  0
   -3.5952   -2.1388    4.3879 N   0  0  0  0  0  0  0  0  0  0  0  0
   -4.9024   -2.1885    4.6739 C   0  0  0  0  0  0  0  0  0  0  0  0
   -1.4261   -3.0757    4.0676 C   0  0  0  0  0  0  0  0  0  0  0  0
   -1.3230   -3.4494    2.5868 C   0  0  0  0  0  0  0  0  0  0  0  0
   -7.4838   -4.7371    5.7182 C   0  0  0  0  0  0  0  0  0  0  0  0
   -7.1147   -5.9456    5.2175 C   0  0  0  0  0  0  0  0  0  0  0  0
   -6.4132   -6.1277    3.9163 C   0  0  0  0  0  0  0  0  0  0  0  0
   -6.0264   -5.2753    3.1465 O   0  0  0  0  0  0  0  0  0  0  0  0
   -6.4134   -7.5838    3.6739 C   0  0  0  0  0  0  0  0  0  0  0  0
   -5.9045   -8.2662    2.6065 C   0  0  0  0  0  0  0  0  0  0  0  0
   -6.0381   -9.6715    2.5582 C   0  0  0  0  0  0  0  0  0  0  0  0
   -5.5282  -10.4250    1.4812 C   0  0  0  0  0  0  0  0  0  0  0  0
   -5.6733  -11.7838    1.4411 C   0  0  0  0  0  0  0  0  0  0  0  0
   -6.3395  -12.4259    2.4940 C   0  0  0  0  0  0  0  0  0  0  0  0
   -6.4713  -13.7635    2.4371 F   0  0  0  0  0  0  0  0  0  0  0  0
   -6.8518  -11.7435    3.5621 C   0  0  0  0  0  0  0  0  0  0  0  0
   -6.7118  -10.3430    3.6198 C   0  0  0  0  0  0  0  0  0  0  0  0
   -7.2323   -9.6093    4.7109 C   0  0  0  0  0  0  0  0  0  0  0  0
   -7.0811   -8.2483    4.7410 C   0  0  0  0  0  0  0  0  0  0  0  0
   -7.4945   -7.2508    5.7213 C   0  0  0  0  0  0  0  0  0  0  0  0
   -8.0416   -7.5119    6.9495 C   0  0  0  0  0  0  0  0  0  0  0  0
   -8.3560   -8.8052    7.4158 C   0  0  0  0  0  0  0  0  0  0  0  0
   -8.6355   -9.8323    7.8456 N   0  0  0  0  0  0  0  0  0  0  0  0
   -8.3259   -6.5324    7.9248 C   0  0  0  0  0  0  0  0  0  0  0  0
   -8.5499   -5.7957    8.7763 N   0  0  0  0  0  0  0  0  0  0  0  0
    6.2697    1.2839   -7.8653 H   0  0  0  0  0  0  0  0  0  0  0  0
   12.4540    1.6987   -7.0289 H   0  0  0  0  0  0  0  0  0  0  0  0
   14.6307    0.6037   -7.4660 H   0  0  0  0  0  0  0  0  0  0  0  0
   15.9578   -1.1536   -8.6117 H   0  0  0  0  0  0  0  0  0  0  0  0
   12.4418   -2.5917  -10.5556 H   0  0  0  0  0  0  0  0  0  0  0  0
   10.2841   -1.5268  -10.1507 H   0  0  0  0  0  0  0  0  0  0  0  0
    8.3473    4.1327   -6.1533 H   0  0  0  0  0  0  0  0  0  0  0  0
    9.3155    5.6319   -4.9208 H   0  0  0  0  0  0  0  0  0  0  0  0
    9.2462    6.4596   -3.3557 H   0  0  0  0  0  0  0  0  0  0  0  0
   10.2325    4.1962   -3.0670 H   0  0  0  0  0  0  0  0  0  0  0  0
    8.8067    3.4566   -3.7911 H   0  0  0  0  0  0  0  0  0  0  0  0
    8.6730    4.2907   -2.2362 H   0  0  0  0  0  0  0  0  0  0  0  0
    4.3502    8.0887   -2.3108 H   0  0  0  0  0  0  0  0  0  0  0  0
    5.2334   10.2079   -3.1920 H   0  0  0  0  0  0  0  0  0  0  0  0
    5.7536   10.4348   -5.5872 H   0  0  0  0  0  0  0  0  0  0  0  0
    6.2416    9.2785   -7.7076 H   0  0  0  0  0  0  0  0  0  0  0  0
    5.6690    7.6264   -7.9798 H   0  0  0  0  0  0  0  0  0  0  0  0
    3.8931   10.1128   -7.8565 H   0  0  0  0  0  0  0  0  0  0  0  0
    3.3243    8.4666   -8.1303 H   0  0  0  0  0  0  0  0  0  0  0  0
    4.3577    9.2526   -9.3285 H   0  0  0  0  0  0  0  0  0  0  0  0
    4.4393    6.4359   -6.2514 H   0  0  0  0  0  0  0  0  0  0  0  0
   -7.2092    3.4878    3.7651 H   0  0  0  0  0  0  0  0  0  0  0  0
   -8.8208    4.3758    5.3995 H   0  0  0  0  0  0  0  0  0  0  0  0
   -8.9509    3.4127    7.6609 H   0  0  0  0  0  0  0  0  0  0  0  0
   -7.1743    0.3660    8.6997 H   0  0  0  0  0  0  0  0  0  0  0  0
   -8.4413    1.5242    9.1251 H   0  0  0  0  0  0  0  0  0  0  0  0
   -6.6998    3.2274    9.6686 H   0  0  0  0  0  0  0  0  0  0  0  0
   -6.4805    1.7636   10.6338 H   0  0  0  0  0  0  0  0  0  0  0  0
   -5.4355    2.0745    9.2432 H   0  0  0  0  0  0  0  0  0  0  0  0
   -5.8033    0.7063    6.6899 H   0  0  0  0  0  0  0  0  0  0  0  0
   -0.7716    1.8013   -1.2780 H   0  0  0  0  0  0  0  0  0  0  0  0
    0.8786    1.7284   -1.9548 H   0  0  0  0  0  0  0  0  0  0  0  0
   -1.4579    3.3330   -3.1143 H   0  0  0  0  0  0  0  0  0  0  0  0
    0.1436    3.1720   -3.8441 H   0  0  0  0  0  0  0  0  0  0  0  0
   -0.9067    1.7630   -3.7107 H   0  0  0  0  0  0  0  0  0  0  0  0
   -1.2726    0.4453    0.9570 H   0  0  0  0  0  0  0  0  0  0  0  0
    0.0734    1.5524    0.5676 H   0  0  0  0  0  0  0  0  0  0  0  0
    0.2424    2.1858    2.9684 H   0  0  0  0  0  0  0  0  0  0  0  0
    0.5267    0.4626    2.6958 H   0  0  0  0  0  0  0  0  0  0  0  0
   -1.0138    1.0053    3.3623 H   0  0  0  0  0  0  0  0  0  0  0  0
   -1.9986   -5.8746    4.4808 H   0  0  0  0  0  0  0  0  0  0  0  0
   -1.8268   -5.3079    6.1408 H   0  0  0  0  0  0  0  0  0  0  0  0
   -2.7184   -7.6093    6.1224 H   0  0  0  0  0  0  0  0  0  0  0  0
   -3.9540   -6.5047    6.7441 H   0  0  0  0  0  0  0  0  0  0  0  0
   -4.0645   -7.1068    5.0930 H   0  0  0  0  0  0  0  0  0  0  0  0
   -0.7714   -3.7125    4.6625 H   0  0  0  0  0  0  0  0  0  0  0  0
   -1.1233   -2.0354    4.1913 H   0  0  0  0  0  0  0  0  0  0  0  0
   -1.6480   -4.4741    2.4218 H   0  0  0  0  0  0  0  0  0  0  0  0
   -1.9552   -2.7899    1.9978 H   0  0  0  0  0  0  0  0  0  0  0  0
   -0.2958   -3.3509    2.2451 H   0  0  0  0  0  0  0  0  0  0  0  0
   -8.2777   -4.6696    6.4514 H   0  0  0  0  0  0  0  0  0  0  0  0
   -5.4052   -7.7386    1.8073 H   0  0  0  0  0  0  0  0  0  0  0  0
   -5.0204   -9.9078    0.6809 H   0  0  0  0  0  0  0  0  0  0  0  0
   -5.2918  -12.3746    0.6235 H   0  0  0  0  0  0  0  0  0  0  0  0
   -7.3586  -12.2707    4.3551 H   0  0  0  0  0  0  0  0  0  0  0  0
   -7.7461  -10.1444    5.4934 H   0  0  0  0  0  0  0  0  0  0  0  0
  1  2  2  0  0  0  0
  2  3  1  0  0  0  0
  3  4  2  0  0  0  0
  3  5  1  0  0  0  0
  5  6  2  0  0  0  0
  6  7  1  0  0  0  0
  7  8  2  0  0  0  0
  8  9  1  0  0  0  0
  9 10  2  0  0  0  0
 10 11  1  0  0  0  0
 10 12  1  0  0  0  0
 12 13  2  0  0  0  0
 13 14  1  0  0  0  0
 14 15  2  0  0  0  0
 15 16  1  0  0  0  0
 16 17  2  0  0  0  0
 17 18  1  0  0  0  0
 18 19  3  0  0  0  0
 17 20  1  0  0  0  0
 20 21  3  0  0  0  0
  1 22  1  0  0  0  0
 22 23  2  0  0  0  0
 23 24  1  0  0  0  0
 24 25  1  0  0  0  0
 25 26  1  0  0  0  0
 26 27  1  0  0  0  0
 24 28  2  0  0  0  0
 28 29  1  0  0  0  0
 28 30  1  0  0  0  0
 30 31  2  0  0  0  0
 31 32  1  0  0  0  0
 32 33  2  0  0  0  0
 33 34  1  0  0  0  0
 34 35  2  0  0  0  0
 35 36  1  0  0  0  0
 36 37  1  0  0  0  0
 37 38  1  0  0  0  0
 36 39  2  0  0  0  0
 31 40  1  0  0  0  0
 40 41  1  0  0  0  0
 41 42  1  0  0  0  0
 42 43  1  0  0  0  0
 43 44  1  0  0  0  0
 44 45  1  0  0  0  0
 45 46  2  0  0  0  0
 46 47  1  0  0  0  0
 47 48  1  0  0  0  0
 45 49  1  0  0  0  0
 49 50  1  0  0  0  0
 50 51  1  0  0  0  0
 51 52  1  0  0  0  0
 52 53  1  0  0  0  0
 53 54  1  0  0  0  0
 54 55  2  0  0  0  0
 55 56  1  0  0  0  0
 56 57  2  0  0  0  0
 57 58  1  0  0  0  0
 58 59  1  0  0  0  0
 59 60  1  0  0  0  0
 58 61  2  0  0  0  0
 53 62  2  0  0  0  0
 62 63  1  0  0  0  0
 63 64  1  0  0  0  0
 64 65  1  0  0  0  0
 65 66  1  0  0  0  0
 66 67  1  0  0  0  0
 67 68  1  0  0  0  0
 68 69  1  0  0  0  0
 69 70  1  0  0  0  0
 70 71  1  0  0  0  0
 71 72  1  0  0  0  0
 69 73  1  0  0  0  0
 73 74  1  0  0  0  0
 66 75  1  0  0  0  0
 75 76  1  0  0  0  0
 62 77  1  0  0  0  0
 77 78  2  0  0  0  0
 78 79  1  0  0  0  0
 78 80  1  0  0  0  0
 80 81  1  0  0  0  0
 80 82  2  0  0  0  0
 82 83  1  0  0  0  0
 83 84  2  0  0  0  0
 84 85  1  0  0  0  0
 85 86  1  0  0  0  0
 86 87  1  0  0  0  0
 85 88  2  0  0  0  0
 88 89  1  0  0  0  0
 89 90  2  0  0  0  0
 88 91  1  0  0  0  0
 91 92  1  0  0  0  0
 82 93  1  0  0  0  0
 93 94  2  0  0  0  0
 94 95  1  0  0  0  0
 95 96  2  0  0  0  0
 95 97  1  0  0  0  0
 97 98  2  0  0  0  0
 98 99  1  0  0  0  0
 99100  2  0  0  0  0
100101  1  0  0  0  0
101102  2  0  0  0  0
102103  1  0  0  0  0
102104  1  0  0  0  0
104105  2  0  0  0  0
105106  1  0  0  0  0
106107  2  0  0  0  0
107108  1  0  0  0  0
108109  2  0  0  0  0
109110  1  0  0  0  0
110111  3  0  0  0  0
109112  1  0  0  0  0
112113  3  0  0  0  0
 16  2  1  0  0  0  0
 29 22  1  0  0  0  0
 72 30  1  0  0  0  0
 90 77  1  0  0  0  0
108 94  1  0  0  0  0
 15  5  1  0  0  0  0
 39 32  1  0  0  0  0
 71 40  2  0  0  0  0
 90 83  1  0  0  0  0
107 97  1  0  0  0  0
 13  7  1  0  0  0  0
 70 42  2  0  0  0  0
105 99  1  0  0  0  0
 68 43  2  0  0  0  0
 48 44  2  0  0  0  0
 67 49  2  0  0  0  0
 65 50  2  0  0  0  0
 64 52  2  0  0  0  0
 61 54  1  0  0  0  0
  1114  1  0  0  0  0
  6115  1  0  0  0  0
  8116  1  0  0  0  0
  9117  1  0  0  0  0
 12118  1  0  0  0  0
 14119  1  0  0  0  0
 23120  1  0  0  0  0
 26121  1  0  0  0  0
 26122  1  0  0  0  0
 27123  1  0  0  0  0
 27124  1  0  0  0  0
 27125  1  0  0  0  0
 33126  1  0  0  0  0
 34127  1  0  0  0  0
 35128  1  0  0  0  0
 37129  1  0  0  0  0
 37130  1  0  0  0  0
 38131  1  0  0  0  0
 38132  1  0  0  0  0
 38133  1  0  0  0  0
 39134  1  0  0  0  0
 55135  1  0  0  0  0
 56136  1  0  0  0  0
 57137  1  0  0  0  0
 59138  1  0  0  0  0
 59139  1  0  0  0  0
 60140  1  0  0  0  0
 60141  1  0  0  0  0
 60142  1  0  0  0  0
 61143  1  0  0  0  0
 73144  1  0  0  0  0
 73145  1  0  0  0  0
 74146  1  0  0  0  0
 74147  1  0  0  0  0
 74148  1  0  0  0  0
 75149  1  0  0  0  0
 75150  1  0  0  0  0
 76151  1  0  0  0  0
 76152  1  0  0  0  0
 76153  1  0  0  0  0
 86154  1  0  0  0  0
 86155  1  0  0  0  0
 87156  1  0  0  0  0
 87157  1  0  0  0  0
 87158  1  0  0  0  0
 91159  1  0  0  0  0
 91160  1  0  0  0  0
 92161  1  0  0  0  0
 92162  1  0  0  0  0
 92163  1  0  0  0  0
 93164  1  0  0  0  0
 98165  1  0  0  0  0
100166  1  0  0  0  0
101167  1  0  0  0  0
104168  1  0  0  0  0
106169  1  0  0  0  0
M  END
