163

C         -9.30830       -3.42880       -4.64230
C         -9.78500       -4.65660       -4.25690
C         -9.01210       -5.75660       -3.64110
O         -7.80620       -5.88600       -3.55660
C        -10.01570       -6.67810       -3.07630
C         -9.80860       -7.80940       -2.34190
C        -10.92350       -8.54430       -1.88080
C        -10.76810       -9.71600       -1.11280
C        -11.85500      -10.41540       -0.66700
C        -13.13740       -9.95030       -0.98740
F        -14.19530      -10.65220       -0.54020
C        -13.34410       -8.82050       -1.72920
C        -12.23600       -8.08680       -2.19530
C        -12.41820       -6.91120       -2.96150
C        -11.32220       -6.21560       -3.39630
C        -11.19330       -4.99070       -4.17910
C        -12.22460       -4.32730       -4.79460
C        -12.08000       -3.21140       -5.64490
N        -12.04330       -2.31910       -6.36770
C        -13.57730       -4.71040       -4.69180
N        -14.69490       -4.96900       -4.63970
C         -7.97910       -3.00200       -4.80070
C         -6.80340       -3.70070       -5.00410
C         -5.67830       -2.88580       -5.08860
S         -4.04870       -3.46970       -5.37680
C         -4.07500       -5.13530       -4.61960
C         -4.38610       -5.09760       -3.13780
C         -5.96520       -1.52130       -4.97520
S         -7.67490       -1.27400       -4.80110
C         -5.05560       -0.44180       -4.85200
C         -5.33810        0.91930       -4.91150
C         -6.58600        1.49150       -5.41800
C         -7.23850        2.49280       -4.70650
C         -8.41640        3.02610       -5.19630
C         -8.94570        2.57180       -6.39030
C         -8.29750        1.58360       -7.12360
C         -8.84960        1.12570       -8.44210
C         -8.40340        2.06270       -9.56600
C         -7.11380        1.05840       -6.63240
C         -4.25340        1.68780       -4.45940
S         -4.02050        3.40740       -4.24050
C         -2.44220        3.09160       -3.60090
C         -1.35840        3.78770       -3.03470
C         -1.05610        5.15960       -2.87220
C          0.21080        5.54080       -2.30030
N          0.37370        6.85370       -2.27150
S         -0.94450        7.55290       -2.89740
N         -1.77890        6.20790       -3.23230
C          1.06410        4.53990       -1.78000
C          2.23410        4.58180       -0.99960
S          3.33380        5.74380       -0.33640
C          4.18000        4.44990        0.48160
C          5.25360        4.42480        1.38650
C          5.93930        5.61190        1.89360
C          6.30480        6.63790        1.02700
C          6.97440        7.74290        1.51700
C          7.28820        7.83260        2.86200
C          6.91130        6.82810        3.74530
C          7.28080        6.88760        5.19950
C          8.46360        5.96070        5.49040
C          6.22530        5.73040        3.25100
C          5.51880        3.12980        1.81990
S          4.45280        1.94420        1.08370
C          3.62920        3.18900        0.22610
C          2.51790        3.26510       -0.61600
N          1.58930        2.40260       -1.14320
C          0.70360        3.17030       -1.87680
C         -0.41860        2.79810       -2.64400
N         -0.86820        1.55010       -3.03180
C         -2.10880        1.73060       -3.59020
C         -3.14030        0.92960       -4.08480
S         -3.40930       -0.76040       -4.30810
C         -0.03980        0.42230       -3.41130
C          0.09840        0.32150       -4.93000
C          1.29280        1.16040       -0.45610
C          0.80290        1.41740        0.96880
C          6.60240        2.70810        2.64010
S          8.16140        3.44700        2.43540
C          8.91630        2.45880        3.68280
C          7.96280        1.57860        4.18550
S          8.05690        0.29640        5.32120
C          6.35480       -0.08920        5.08030
C          5.74630       -1.16190        5.79480
C          6.33670       -2.01640        6.71550
C          5.47500       -2.99820        7.22010
C          4.21630       -2.90630        6.68720
C          3.03830       -3.73730        6.93370
O          1.97230       -3.57290        6.38980
O          3.28730       -4.70080        7.82580
C          2.19450       -5.57250        8.12620
C          2.69400       -6.66180        9.05540
S          4.07810       -1.60230        5.56690
Cl         7.97540       -1.90310        7.20780
C          5.76390        0.76780        4.17930
C          6.67020        1.69890        3.60350
Cl         4.08330        0.73140        3.86570
C         10.28760        2.63420        3.89710
C         11.04750        2.20440        4.96250
C         10.52360        1.82690        6.27440
O          9.36060        1.86900        6.64670
C         11.69930        1.50390        7.10660
C         11.73900        1.06390        8.41250
C         12.98180        0.84580        8.99580
Cl        13.07450        0.28640       10.61670
C         14.15230        1.08110        8.26890
Cl        15.68250        0.81640        9.00450
C         14.10680        1.52970        6.95240
C         12.87060        1.73990        6.36590
C         12.49500        2.18190        5.02260
C         13.37040        2.45130        4.00320
C         13.00740        2.80170        2.68560
N         12.79680        3.07350        1.58970
C         14.77450        2.39820        4.13210
N         15.92150        2.37890        4.17120
H        -10.04070       -2.64400       -4.79250
H         -8.80600       -8.13860       -2.11280
H         -9.76960      -10.05400       -0.87880
H        -11.75370      -11.31240       -0.07690
H        -14.34620       -8.49260       -1.95710
H        -13.42390       -6.58740       -3.17630
H         -6.78060       -4.76860       -5.09780
H         -3.06460       -5.50130       -4.80390
H         -4.78120       -5.75650       -5.16770
H         -3.73750       -4.38740       -2.62910
H         -4.22740       -6.08530       -2.71070
H         -5.42290       -4.81860       -2.96680
H         -6.83330        2.83440       -3.76610
H         -8.92620        3.79770       -4.63880
H         -9.87230        2.98530       -6.76070
H         -9.94000        1.10950       -8.39670
H         -8.50330        0.11300       -8.65660
H         -7.31780        2.08080       -9.63570
H         -8.80740        1.73080      -10.51940
H         -8.75000        3.07590       -9.37570
H         -6.58740        0.30160       -7.19800
H          6.08060        6.55680       -0.02550
H          7.26080        8.53650        0.84320
H          7.82440        8.69420        3.23250
H          7.54830        7.90990        5.47160
H          6.42900        6.58280        5.81150
H          8.19860        4.92370        5.29640
H          8.76500        6.04530        6.53160
H          9.31210        6.22080        4.86070
H          5.90070        4.95560        3.93190
H          0.95330        0.55770       -2.98460
H         -0.48990       -0.49670       -3.02150
H          0.48930        1.25270       -5.33460
H         -0.85920        0.11030       -5.39680
H          0.78540       -0.48280       -5.17760
H          0.51450        0.62520       -0.99410
H          2.20420        0.55500       -0.43350
H         -0.08500        2.04600        0.95220
H          0.55390        0.47220        1.44270
H          1.56680        1.90850        1.56490
H          5.76600       -3.74010        7.93960
H          1.39430       -4.98560        8.59120
H          1.80820       -5.98880        7.18910
H          3.49260       -7.22390        8.57870
H          1.87830       -7.33710        9.29570
H          3.07650       -6.22470        9.97360
H         10.79040        3.18660        3.11360
H         10.82830        0.88990        8.96340
H         15.03090        1.70280        6.42610
