
  xtb     02052211033D
 energy: -276.202076120645 gnorm: 0.000723147440 xtb: 6.4.1 (unknown)
157173  0     0  0            999 V2000
   -5.0800   -2.9947    8.1826 C   0  0  0  0  0  0  0  0  0  0  0  0
   -6.1171   -3.3729    8.9974 C   0  0  0  0  0  0  0  0  0  0  0  0
   -6.9132   -4.6193    8.9665 C   0  0  0  0  0  0  0  0  0  0  0  0
   -6.7215   -5.6361    8.3273 O   0  0  0  0  0  0  0  0  0  0  0  0
   -8.0384   -4.4000    9.8934 C   0  0  0  0  0  0  0  0  0  0  0  0
   -9.0869   -5.2310   10.1633 C   0  0  0  0  0  0  0  0  0  0  0  0
  -10.0797   -4.8119   11.0763 C   0  0  0  0  0  0  0  0  0  0  0  0
  -11.1876   -5.6258   11.3882 C   0  0  0  0  0  0  0  0  0  0  0  0
  -12.1450   -5.2048   12.2689 C   0  0  0  0  0  0  0  0  0  0  0  0
  -12.0105   -3.9433   12.8641 C   0  0  0  0  0  0  0  0  0  0  0  0
  -12.9633   -3.5456   13.7275 F   0  0  0  0  0  0  0  0  0  0  0  0
  -10.9557   -3.1153   12.5976 C   0  0  0  0  0  0  0  0  0  0  0  0
   -9.9603   -3.5327   11.6928 C   0  0  0  0  0  0  0  0  0  0  0  0
   -8.8576   -2.6973   11.3973 C   0  0  0  0  0  0  0  0  0  0  0  0
   -7.9068   -3.1261   10.5100 C   0  0  0  0  0  0  0  0  0  0  0  0
   -6.6845   -2.5010   10.0129 C   0  0  0  0  0  0  0  0  0  0  0  0
   -6.1641   -1.3231   10.4863 C   0  0  0  0  0  0  0  0  0  0  0  0
   -6.7734   -0.5402   11.4896 C   0  0  0  0  0  0  0  0  0  0  0  0
   -7.2115    0.1478   12.2978 N   0  0  0  0  0  0  0  0  0  0  0  0
   -4.9474   -0.7257   10.0950 C   0  0  0  0  0  0  0  0  0  0  0  0
   -3.9690   -0.1722    9.8569 N   0  0  0  0  0  0  0  0  0  0  0  0
   -4.4089   -3.6688    7.1475 C   0  0  0  0  0  0  0  0  0  0  0  0
   -4.5266   -4.9390    6.6115 C   0  0  0  0  0  0  0  0  0  0  0  0
   -3.6559   -5.1880    5.5520 C   0  0  0  0  0  0  0  0  0  0  0  0
   -3.6933   -6.6368    4.5633 S   0  0  0  0  0  0  0  0  0  0  0  0
   -4.2661   -7.8853    5.7808 C   0  0  0  0  0  0  0  0  0  0  0  0
   -3.9191   -9.2676    5.2652 C   0  0  0  0  0  0  0  0  0  0  0  0
   -2.8226   -4.1064    5.2592 C   0  0  0  0  0  0  0  0  0  0  0  0
   -3.1705   -2.7634    6.2952 S   0  0  0  0  0  0  0  0  0  0  0  0
   -1.8227   -3.9872    4.2521 C   0  0  0  0  0  0  0  0  0  0  0  0
   -0.9107   -4.9247    3.7962 C   0  0  0  0  0  0  0  0  0  0  0  0
   -0.6713   -6.2316    4.4035 C   0  0  0  0  0  0  0  0  0  0  0  0
   -0.6476   -6.3782    5.7890 C   0  0  0  0  0  0  0  0  0  0  0  0
   -0.4053   -7.6183    6.3458 C   0  0  0  0  0  0  0  0  0  0  0  0
   -0.1780   -8.7169    5.5336 C   0  0  0  0  0  0  0  0  0  0  0  0
   -0.1856   -8.5860    4.1505 C   0  0  0  0  0  0  0  0  0  0  0  0
    0.1108   -9.7570    3.2594 C   0  0  0  0  0  0  0  0  0  0  0  0
    1.5864   -9.7521    2.8552 C   0  0  0  0  0  0  0  0  0  0  0  0
   -0.4283   -7.3381    3.5975 C   0  0  0  0  0  0  0  0  0  0  0  0
   -0.1493   -4.4119    2.7274 C   0  0  0  0  0  0  0  0  0  0  0  0
    1.1324   -5.0939    1.7534 S   0  0  0  0  0  0  0  0  0  0  0  0
    1.2490   -3.5945    0.8970 C   0  0  0  0  0  0  0  0  0  0  0  0
    2.0024   -3.0085   -0.1300 C   0  0  0  0  0  0  0  0  0  0  0  0
    3.0911   -3.5227   -0.8656 C   0  0  0  0  0  0  0  0  0  0  0  0
    3.7405   -2.6752   -1.8190 C   0  0  0  0  0  0  0  0  0  0  0  0
    4.7642   -3.2694   -2.4126 N   0  0  0  0  0  0  0  0  0  0  0  0
    4.8953   -4.7711   -1.8209 S   0  0  0  0  0  0  0  0  0  0  0  0
    3.6520   -4.7196   -0.7852 N   0  0  0  0  0  0  0  0  0  0  0  0
    3.2236   -1.3810   -2.0402 C   0  0  0  0  0  0  0  0  0  0  0  0
    3.6038   -0.4045   -2.9715 C   0  0  0  0  0  0  0  0  0  0  0  0
    4.7807   -0.1613   -4.2182 S   0  0  0  0  0  0  0  0  0  0  0  0
    4.0462    1.3862   -4.5720 C   0  0  0  0  0  0  0  0  0  0  0  0
    4.3226    2.3687   -5.5388 C   0  0  0  0  0  0  0  0  0  0  0  0
    5.3693    2.2044   -6.5516 C   0  0  0  0  0  0  0  0  0  0  0  0
    5.0734    2.3293   -7.9075 C   0  0  0  0  0  0  0  0  0  0  0  0
    6.0697    2.1492   -8.8474 C   0  0  0  0  0  0  0  0  0  0  0  0
    7.3589    1.8368   -8.4485 C   0  0  0  0  0  0  0  0  0  0  0  0
    7.6659    1.6903   -7.1021 C   0  0  0  0  0  0  0  0  0  0  0  0
    9.0409    1.2809   -6.6618 C   0  0  0  0  0  0  0  0  0  0  0  0
    9.1008   -0.2366   -6.4752 C   0  0  0  0  0  0  0  0  0  0  0  0
    6.6610    1.8726   -6.1624 C   0  0  0  0  0  0  0  0  0  0  0  0
    3.4460    3.4389   -5.4323 C   0  0  0  0  0  0  0  0  0  0  0  0
    2.2569    3.2088   -4.1605 S   0  0  0  0  0  0  0  0  0  0  0  0
    2.9518    1.6814   -3.7535 C   0  0  0  0  0  0  0  0  0  0  0  0
    2.7042    0.6537   -2.8355 C   0  0  0  0  0  0  0  0  0  0  0  0
    1.7915    0.3699   -1.8585 N   0  0  0  0  0  0  0  0  0  0  0  0
    2.0930   -0.8735   -1.3309 C   0  0  0  0  0  0  0  0  0  0  0  0
    1.5153   -1.6784   -0.3072 C   0  0  0  0  0  0  0  0  0  0  0  0
    0.5160   -1.4700    0.6280 N   0  0  0  0  0  0  0  0  0  0  0  0
    0.3488   -2.6249    1.3403 C   0  0  0  0  0  0  0  0  0  0  0  0
   -0.4476   -3.0883    2.3946 C   0  0  0  0  0  0  0  0  0  0  0  0
   -1.6937   -2.4519    3.4055 S   0  0  0  0  0  0  0  0  0  0  0  0
   -0.2293   -0.3012    1.0323 C   0  0  0  0  0  0  0  0  0  0  0  0
   -1.6600   -0.3252    0.4928 C   0  0  0  0  0  0  0  0  0  0  0  0
    0.7064    1.2990   -1.6482 C   0  0  0  0  0  0  0  0  0  0  0  0
    1.1358    2.4838   -0.7824 C   0  0  0  0  0  0  0  0  0  0  0  0
    3.4247    4.6646   -6.1492 C   0  0  0  0  0  0  0  0  0  0  0  0
    4.4306    5.1873   -6.9429 C   0  0  0  0  0  0  0  0  0  0  0  0
    4.0929    6.4136   -7.5002 C   0  0  0  0  0  0  0  0  0  0  0  0
    5.0893    7.3507   -8.5827 S   0  0  0  0  0  0  0  0  0  0  0  0
    6.5135    6.2524   -8.9159 C   0  0  0  0  0  0  0  0  0  0  0  0
    7.5751    6.3217   -7.8346 C   0  0  0  0  0  0  0  0  0  0  0  0
    2.8113    6.8722   -7.1212 C   0  0  0  0  0  0  0  0  0  0  0  0
    2.0485    5.7162   -6.0505 S   0  0  0  0  0  0  0  0  0  0  0  0
    2.2727    8.0728   -7.5770 C   0  0  0  0  0  0  0  0  0  0  0  0
    1.0594    8.6656   -7.3051 C   0  0  0  0  0  0  0  0  0  0  0  0
    0.0333    8.1325   -6.4117 C   0  0  0  0  0  0  0  0  0  0  0  0
    0.0657    7.0990   -5.7641 O   0  0  0  0  0  0  0  0  0  0  0  0
   -1.0770    9.1059   -6.4379 C   0  0  0  0  0  0  0  0  0  0  0  0
   -2.2804    9.0554   -5.7713 C   0  0  0  0  0  0  0  0  0  0  0  0
   -3.1801   10.1027   -5.9676 C   0  0  0  0  0  0  0  0  0  0  0  0
   -4.3544   10.0346   -5.2420 O   0  0  0  0  0  0  0  0  0  0  0  0
   -5.5328   10.4871   -5.7229 C   0  0  0  0  0  0  0  0  0  0  0  0
   -5.6937   10.9383   -6.8209 O   0  0  0  0  0  0  0  0  0  0  0  0
   -6.6005   10.3214   -4.6771 C   0  0  0  0  0  0  0  0  0  0  0  0
   -2.8601   11.1659   -6.8049 C   0  0  0  0  0  0  0  0  0  0  0  0
   -1.6442   11.2037   -7.4743 C   0  0  0  0  0  0  0  0  0  0  0  0
   -0.7413   10.1686   -7.2948 C   0  0  0  0  0  0  0  0  0  0  0  0
    0.5911    9.9222   -7.8485 C   0  0  0  0  0  0  0  0  0  0  0  0
    1.2462   10.7544   -8.7208 C   0  0  0  0  0  0  0  0  0  0  0  0
    2.5238   10.5392   -9.2782 C   0  0  0  0  0  0  0  0  0  0  0  0
    3.5517   10.4535   -9.7847 N   0  0  0  0  0  0  0  0  0  0  0  0
    0.7208   11.9760   -9.1911 C   0  0  0  0  0  0  0  0  0  0  0  0
    0.3620   12.9832   -9.6103 N   0  0  0  0  0  0  0  0  0  0  0  0
   -4.7108   -1.9866    8.3297 H   0  0  0  0  0  0  0  0  0  0  0  0
   -9.1600   -6.1948    9.6820 H   0  0  0  0  0  0  0  0  0  0  0  0
  -11.2694   -6.5935   10.9164 H   0  0  0  0  0  0  0  0  0  0  0  0
  -12.9991   -5.8146   12.5175 H   0  0  0  0  0  0  0  0  0  0  0  0
  -10.8841   -2.1508   13.0756 H   0  0  0  0  0  0  0  0  0  0  0  0
   -8.8007   -1.7347   11.8787 H   0  0  0  0  0  0  0  0  0  0  0  0
   -5.2515   -5.6417    6.9767 H   0  0  0  0  0  0  0  0  0  0  0  0
   -3.7504   -7.6741    6.7167 H   0  0  0  0  0  0  0  0  0  0  0  0
   -5.3417   -7.7684    5.9115 H   0  0  0  0  0  0  0  0  0  0  0  0
   -4.2442  -10.0189    5.9815 H   0  0  0  0  0  0  0  0  0  0  0  0
   -4.4120   -9.4557    4.3139 H   0  0  0  0  0  0  0  0  0  0  0  0
   -2.8444   -9.3574    5.1221 H   0  0  0  0  0  0  0  0  0  0  0  0
   -0.8087   -5.5189    6.4235 H   0  0  0  0  0  0  0  0  0  0  0  0
   -0.3905   -7.7305    7.4202 H   0  0  0  0  0  0  0  0  0  0  0  0
    0.0092   -9.6842    5.9781 H   0  0  0  0  0  0  0  0  0  0  0  0
   -0.1200  -10.6895    3.7786 H   0  0  0  0  0  0  0  0  0  0  0  0
   -0.5078   -9.7024    2.3615 H   0  0  0  0  0  0  0  0  0  0  0  0
    1.8307   -8.8331    2.3274 H   0  0  0  0  0  0  0  0  0  0  0  0
    2.2198   -9.8189    3.7370 H   0  0  0  0  0  0  0  0  0  0  0  0
    1.8052  -10.5962    2.2056 H   0  0  0  0  0  0  0  0  0  0  0  0
   -0.4575   -7.2288    2.5238 H   0  0  0  0  0  0  0  0  0  0  0  0
    4.0648    2.5638   -8.2144 H   0  0  0  0  0  0  0  0  0  0  0  0
    5.8396    2.2469   -9.8985 H   0  0  0  0  0  0  0  0  0  0  0  0
    8.1319    1.6988   -9.1907 H   0  0  0  0  0  0  0  0  0  0  0  0
    9.7777    1.5838   -7.4083 H   0  0  0  0  0  0  0  0  0  0  0  0
    9.2886    1.7690   -5.7170 H   0  0  0  0  0  0  0  0  0  0  0  0
    8.8690   -0.7413   -7.4104 H   0  0  0  0  0  0  0  0  0  0  0  0
   10.0936   -0.5408   -6.1527 H   0  0  0  0  0  0  0  0  0  0  0  0
    8.3778   -0.5548   -5.7275 H   0  0  0  0  0  0  0  0  0  0  0  0
    6.8870    1.7681   -5.1111 H   0  0  0  0  0  0  0  0  0  0  0  0
   -0.2723   -0.3088    2.1270 H   0  0  0  0  0  0  0  0  0  0  0  0
    0.3037    0.5963    0.7335 H   0  0  0  0  0  0  0  0  0  0  0  0
   -2.1598    0.6095    0.7310 H   0  0  0  0  0  0  0  0  0  0  0  0
   -1.6787   -0.4729   -0.5852 H   0  0  0  0  0  0  0  0  0  0  0  0
   -2.2170   -1.1384    0.9503 H   0  0  0  0  0  0  0  0  0  0  0  0
    0.4128    1.6789   -2.6326 H   0  0  0  0  0  0  0  0  0  0  0  0
   -0.1496    0.7783   -1.2307 H   0  0  0  0  0  0  0  0  0  0  0  0
    0.2782    3.1152   -0.5688 H   0  0  0  0  0  0  0  0  0  0  0  0
    1.5763    2.1540    0.1565 H   0  0  0  0  0  0  0  0  0  0  0  0
    1.8769    3.0792   -1.3089 H   0  0  0  0  0  0  0  0  0  0  0  0
    5.3691    4.6879   -7.0822 H   0  0  0  0  0  0  0  0  0  0  0  0
    6.9064    6.6246   -9.8622 H   0  0  0  0  0  0  0  0  0  0  0  0
    6.1349    5.2420   -9.0636 H   0  0  0  0  0  0  0  0  0  0  0  0
    7.9598    7.3351   -7.7500 H   0  0  0  0  0  0  0  0  0  0  0  0
    7.1759    6.0260   -6.8672 H   0  0  0  0  0  0  0  0  0  0  0  0
    8.3974    5.6549   -8.0868 H   0  0  0  0  0  0  0  0  0  0  0  0
    2.9332    8.6042   -8.2527 H   0  0  0  0  0  0  0  0  0  0  0  0
   -2.5238    8.2339   -5.1164 H   0  0  0  0  0  0  0  0  0  0  0  0
   -6.5485    9.3248   -4.2473 H   0  0  0  0  0  0  0  0  0  0  0  0
   -7.5753   10.4946   -5.1217 H   0  0  0  0  0  0  0  0  0  0  0  0
   -6.4304   11.0440   -3.8813 H   0  0  0  0  0  0  0  0  0  0  0  0
   -3.5642   11.9699   -6.9442 H   0  0  0  0  0  0  0  0  0  0  0  0
   -1.4266   12.0396   -8.1183 H   0  0  0  0  0  0  0  0  0  0  0  0
  1  2  2  0  0  0  0
  2  3  1  0  0  0  0
  3  4  2  0  0  0  0
  3  5  1  0  0  0  0
  5  6  2  0  0  0  0
  6  7  1  0  0  0  0
  7  8  2  0  0  0  0
  8  9  1  0  0  0  0
  9 10  2  0  0  0  0
 10 11  1  0  0  0  0
 10 12  1  0  0  0  0
 12 13  2  0  0  0  0
 13 14  1  0  0  0  0
 14 15  2  0  0  0  0
 15 16  1  0  0  0  0
 16 17  2  0  0  0  0
 17 18  1  0  0  0  0
 18 19  3  0  0  0  0
 17 20  1  0  0  0  0
 20 21  3  0  0  0  0
  1 22  1  0  0  0  0
 22 23  2  0  0  0  0
 23 24  1  0  0  0  0
 24 25  1  0  0  0  0
 25 26  1  0  0  0  0
 26 27  1  0  0  0  0
 24 28  2  0  0  0  0
 28 29  1  0  0  0  0
 28 30  1  0  0  0  0
 30 31  2  0  0  0  0
 31 32  1  0  0  0  0
 32 33  2  0  0  0  0
 33 34  1  0  0  0  0
 34 35  2  0  0  0  0
 35 36  1  0  0  0  0
 36 37  1  0  0  0  0
 37 38  1  0  0  0  0
 36 39  2  0  0  0  0
 31 40  1  0  0  0  0
 40 41  1  0  0  0  0
 41 42  1  0  0  0  0
 42 43  1  0  0  0  0
 43 44  1  0  0  0  0
 44 45  1  0  0  0  0
 45 46  2  0  0  0  0
 46 47  1  0  0  0  0
 47 48  1  0  0  0  0
 45 49  1  0  0  0  0
 49 50  1  0  0  0  0
 50 51  1  0  0  0  0
 51 52  1  0  0  0  0
 52 53  1  0  0  0  0
 53 54  1  0  0  0  0
 54 55  2  0  0  0  0
 55 56  1  0  0  0  0
 56 57  2  0  0  0  0
 57 58  1  0  0  0  0
 58 59  1  0  0  0  0
 59 60  1  0  0  0  0
 58 61  2  0  0  0  0
 53 62  2  0  0  0  0
 62 63  1  0  0  0  0
 63 64  1  0  0  0  0
 64 65  1  0  0  0  0
 65 66  1  0  0  0  0
 66 67  1  0  0  0  0
 67 68  1  0  0  0  0
 68 69  1  0  0  0  0
 69 70  1  0  0  0  0
 70 71  1  0  0  0  0
 71 72  1  0  0  0  0
 69 73  1  0  0  0  0
 73 74  1  0  0  0  0
 66 75  1  0  0  0  0
 75 76  1  0  0  0  0
 62 77  1  0  0  0  0
 77 78  2  0  0  0  0
 78 79  1  0  0  0  0
 79 80  1  0  0  0  0
 80 81  1  0  0  0  0
 81 82  1  0  0  0  0
 79 83  2  0  0  0  0
 83 84  1  0  0  0  0
 83 85  1  0  0  0  0
 85 86  2  0  0  0  0
 86 87  1  0  0  0  0
 87 88  2  0  0  0  0
 87 89  1  0  0  0  0
 89 90  2  0  0  0  0
 90 91  1  0  0  0  0
 91 92  1  0  0  0  0
 92 93  1  0  0  0  0
 93 94  2  0  0  0  0
 93 95  1  0  0  0  0
 91 96  2  0  0  0  0
 96 97  1  0  0  0  0
 97 98  2  0  0  0  0
 98 99  1  0  0  0  0
 99100  2  0  0  0  0
100101  1  0  0  0  0
101102  3  0  0  0  0
100103  1  0  0  0  0
103104  3  0  0  0  0
 16  2  1  0  0  0  0
 29 22  1  0  0  0  0
 72 30  1  0  0  0  0
 84 77  1  0  0  0  0
 99 86  1  0  0  0  0
 15  5  1  0  0  0  0
 39 32  1  0  0  0  0
 71 40  2  0  0  0  0
 98 89  1  0  0  0  0
 13  7  1  0  0  0  0
 70 42  2  0  0  0  0
 68 43  2  0  0  0  0
 48 44  2  0  0  0  0
 67 49  2  0  0  0  0
 65 50  2  0  0  0  0
 64 52  2  0  0  0  0
 61 54  1  0  0  0  0
  1105  1  0  0  0  0
  6106  1  0  0  0  0
  8107  1  0  0  0  0
  9108  1  0  0  0  0
 12109  1  0  0  0  0
 14110  1  0  0  0  0
 23111  1  0  0  0  0
 26112  1  0  0  0  0
 26113  1  0  0  0  0
 27114  1  0  0  0  0
 27115  1  0  0  0  0
 27116  1  0  0  0  0
 33117  1  0  0  0  0
 34118  1  0  0  0  0
 35119  1  0  0  0  0
 37120  1  0  0  0  0
 37121  1  0  0  0  0
 38122  1  0  0  0  0
 38123  1  0  0  0  0
 38124  1  0  0  0  0
 39125  1  0  0  0  0
 55126  1  0  0  0  0
 56127  1  0  0  0  0
 57128  1  0  0  0  0
 59129  1  0  0  0  0
 59130  1  0  0  0  0
 60131  1  0  0  0  0
 60132  1  0  0  0  0
 60133  1  0  0  0  0
 61134  1  0  0  0  0
 73135  1  0  0  0  0
 73136  1  0  0  0  0
 74137  1  0  0  0  0
 74138  1  0  0  0  0
 74139  1  0  0  0  0
 75140  1  0  0  0  0
 75141  1  0  0  0  0
 76142  1  0  0  0  0
 76143  1  0  0  0  0
 76144  1  0  0  0  0
 78145  1  0  0  0  0
 81146  1  0  0  0  0
 81147  1  0  0  0  0
 82148  1  0  0  0  0
 82149  1  0  0  0  0
 82150  1  0  0  0  0
 85151  1  0  0  0  0
 90152  1  0  0  0  0
 95153  1  0  0  0  0
 95154  1  0  0  0  0
 95155  1  0  0  0  0
 96156  1  0  0  0  0
 97157  1  0  0  0  0
M  END
