171

C          4.50310       -9.77260        1.33250
C          5.38720       -9.00570        2.05550
C          5.31260       -7.55250        2.20930
O          4.46430       -6.79930        1.75770
C          6.47710       -7.16310        3.02130
C          6.85900       -5.91870        3.42900
C          8.03200       -5.77910        4.20450
C          8.47610       -4.51820        4.65090
C          9.61390       -4.39660        5.39970
C         10.33960       -5.55100        5.72110
F         11.45700       -5.41190        6.45860
C          9.95270       -6.79780        5.31380
C          8.78380       -6.94130        4.54190
C          8.36000       -8.21910        4.10460
C          7.22160       -8.33030        3.35280
C          6.55200       -9.48950        2.76410
C          6.97910      -10.78960        2.88200
C          8.13420      -11.18010        3.58960
N          9.06040      -11.56730        4.14750
C          6.34470      -11.91890        2.32730
N          5.88870      -12.88860        1.91120
C          3.37100       -9.39320        0.60410
C          2.61600      -10.31570       -0.12300
C          1.54150       -9.76910       -0.80760
S          0.50240      -10.61110       -1.94360
C          1.39330      -12.18190       -2.24900
C          1.02150      -13.26560       -1.25510
C          1.42850       -8.38930       -0.58120
S          2.69860       -7.79170        0.43890
C          0.49240       -7.46410       -1.11130
C         -0.84750       -7.62260       -1.43900
C         -1.66710       -8.77210       -1.06710
C         -2.64230       -9.26890       -1.92750
C         -3.42090      -10.34010       -1.53500
C         -3.24660      -10.91500       -0.28740
C         -2.29660      -10.41490        0.59360
C         -2.07380      -11.03550        1.94330
C         -0.83830      -11.93670        1.91920
C         -1.51520       -9.34330        0.19310
C         -1.37220       -6.44780       -2.00970
S         -2.96100       -6.02610       -2.60410
C         -2.40540       -4.41100       -2.88680
C         -2.89870       -3.17610       -3.34250
C         -4.13120       -2.79250       -3.91700
C         -4.31910       -1.42390       -4.31760
N         -5.49700       -1.22240       -4.88540
S         -6.30310       -2.62630       -4.91250
N         -5.18040       -3.54850       -4.19760
C         -3.32660       -0.47170       -3.99120
C         -3.34320        0.93220       -3.99220
S         -4.40520        2.22760       -4.42720
C         -3.31500        3.35420       -3.65230
C         -3.37300        4.74370       -3.42890
C         -4.39270        5.62640       -3.99080
C         -5.72720        5.23470       -4.04190
C         -6.67470        6.08570       -4.57770
C         -6.30510        7.32380       -5.07270
C         -4.97410        7.72340       -5.04910
C         -4.55760        9.04340       -5.63330
C         -4.21970        8.88960       -7.11740
C         -4.02780        6.86310       -4.51820
C         -2.28460        5.17570       -2.68810
S         -1.13500        3.89410       -2.37060
C         -2.17540        2.74100       -3.12400
C         -2.18500        1.35670       -3.33140
N         -1.43080        0.27260       -2.96810
C         -2.10920       -0.86230       -3.36810
C         -1.83970       -2.24020       -3.18960
N         -0.71200       -2.90400       -2.73810
C         -1.06450       -4.21500       -2.54090
C         -0.46770       -5.38290       -2.05720
S          1.07650       -5.83480       -1.43310
C          0.67140       -2.56040       -2.98690
C          1.22520       -3.32480       -4.18920
C         -0.36150        0.41840       -2.00600
C          0.89600        1.02320       -2.62970
C         -2.07090        6.45400       -2.06940
C         -0.77800        6.95060       -1.87610
O          0.23920        6.18560       -2.35580
C          1.40640        5.97440       -1.56140
C          2.66060        6.34060       -2.33980
C         -0.56370        8.21370       -1.27900
O          0.72610        8.68830       -1.23030
C          1.02460        9.77700       -2.10600
C          0.63170        9.50420       -3.55250
C         -1.62140        8.90760       -0.68590
C         -2.94950        8.43120       -0.89680
C         -3.17160        7.19730       -1.55580
N         -4.40910        6.67890       -1.59980
C         -5.39790        7.39250       -1.13630
C         -5.19510        8.70510       -0.67510
N         -3.99310        9.19510       -0.53510
C         -1.41540       10.07070        0.12190
C         -2.13900       10.34610        1.24210
C         -2.93240        9.34530        2.00500
O         -3.03270        8.15460        1.79850
C         -3.45350       10.07020        3.17880
C         -4.25590        9.60060        4.17780
C         -4.62120       10.46530        5.23320
C         -5.45070       10.03340        6.28810
C         -5.78950       10.87750        7.30880
C         -5.29970       12.19060        7.29280
F         -5.64410       13.00680        8.30610
C         -4.49380       12.66090        6.29380
C         -4.13370       11.80470        5.23460
C         -3.29850       12.26120        4.18850
C         -2.96420       11.40650        3.17120
C         -2.13900       11.59230        1.98190
C         -1.53280       12.76410        1.60620
C         -1.59310       13.96100        2.34930
N         -1.59780       14.96350        2.90910
C         -0.77210       12.94160        0.43260
N         -0.14320       13.16020       -0.50420
H          4.69620      -10.83770        1.29610
H          6.27450       -5.05080        3.16240
H          7.89970       -3.64330        4.39010
H          9.96760       -3.43950        5.74890
H         10.53650       -7.66500        5.58020
H          8.95320       -9.07670        4.37760
H          2.88880      -11.35520       -0.14080
H          2.46110      -11.97020       -2.25930
H          1.08060      -12.46350       -3.25460
H          1.54280      -14.18800       -1.50350
H          1.28560      -12.98120       -0.23960
H         -0.04980      -13.44960       -1.29000
H         -2.76920       -8.83030       -2.90510
H         -4.16980      -10.73180       -2.20740
H         -3.85990      -11.75400        0.00900
H         -2.94620      -11.62380        2.23270
H         -1.92910      -10.24970        2.68810
H         -0.65890      -12.36660        2.90190
H          0.03960      -11.36500        1.62510
H         -0.97770      -12.74610        1.20630
H         -0.78460       -8.93260        0.87590
H         -6.02270        4.28030       -3.63530
H         -7.71130        5.78310       -4.60630
H         -7.05310        7.98710       -5.48310
H         -5.36570        9.76910       -5.52090
H         -3.68260        9.42360       -5.10110
H         -3.41210        8.17280       -7.24850
H         -5.08710        8.53070       -7.66660
H         -3.91090        9.84350       -7.53890
H         -2.98660        7.15590       -4.50930
H          1.25790       -2.80040       -2.09400
H          0.73960       -1.49790       -3.19480
H          2.24870       -3.01250       -4.37750
H          1.22060       -4.39560       -4.00710
H          0.62680       -3.11830       -5.07420
H         -0.71410        1.09410       -1.21820
H         -0.16050       -0.55010       -1.54780
H          1.69990        1.02870       -1.89910
H          0.70260        2.04670       -2.93890
H          1.22170        0.46430       -3.50420
H          1.34920        6.54050       -0.63010
H          1.41770        4.90210       -1.32410
H          2.71330        7.41370       -2.49430
H          2.65400        5.84160       -3.30560
H          3.53770        6.02390       -1.78250
H          0.54880       10.70520       -1.76950
H          2.10700        9.89310       -2.01130
H         -0.45180        9.46560       -3.65150
H          1.01020       10.30390       -4.18270
H          1.04420        8.55750       -3.89390
H         -6.37590        6.93250       -1.14990
H         -6.01870        9.35520       -0.41350
H         -0.62430       10.74890       -0.15930
H         -4.60910        8.58030        4.16100
H         -5.81480        9.01700        6.27810
H         -6.42080       10.56240        8.12430
H         -4.13570       13.67830        6.31420
H         -2.94020       13.27750        4.22340
