153

C         -8.01110        0.71060       -4.75810
C         -9.02730        0.69670       -5.68090
C         -9.96810       -0.39750       -6.00300
O        -10.04330       -1.51130       -5.51840
C        -10.83100        0.11470       -7.08150
C        -11.85730       -0.52220       -7.71710
C        -12.56550        0.15770       -8.73230
C        -13.63610       -0.44850       -9.42030
C        -14.31340        0.22270      -10.40010
C        -13.92710        1.53250      -10.71560
F        -14.60600        2.17700      -11.68250
C        -12.89620        2.16650      -10.07980
C        -12.18780        1.49010       -9.06760
C        -11.11800        2.12170       -8.39120
C        -10.44700        1.44350       -7.40840
C         -9.33070        1.82490       -6.54700
C         -8.72050        3.05400       -6.56950
C         -7.65990        3.49200       -5.74850
N         -6.80630        3.94940       -5.12930
C         -9.08580        4.10020       -7.44350
N         -9.32250        4.99480       -8.12340
C         -7.59890       -0.23280       -3.80140
C         -8.06920       -1.48370       -3.44130
C         -7.36500       -2.07540       -2.39450
S         -7.64160       -3.69550       -1.78120
C         -8.53240       -4.49880       -3.16410
C         -7.67060       -4.66520       -4.39960
C         -6.33920       -1.26400       -1.90120
S         -6.23770        0.21760       -2.79070
C         -5.42910       -1.50980       -0.83520
C         -5.65420       -2.12920        0.38270
C         -6.95940       -2.54270        0.89280
C         -8.07220       -1.71700        0.75090
C         -9.29370       -2.11690        1.25610
C         -9.41820       -3.33700        1.89740
C         -8.31600       -4.16710        2.05810
C         -8.45570       -5.51800        2.69700
C         -8.75890       -6.57060        1.62860
C         -7.08980       -3.75540        1.56090
C         -4.46930       -2.19770        1.14140
S         -4.13240       -2.79460        2.74770
C         -2.49830       -2.24890        2.58440
C         -1.30440       -2.22410        3.32740
C         -0.93080       -2.77830        4.57270
C          0.43810       -2.67200        5.00660
N          0.65170       -3.29470        6.15480
S         -0.74160       -3.95000        6.65350
N         -1.67470       -3.46820        5.42260
C          1.34450       -1.90060        4.24440
C          2.67440       -1.49660        4.45720
S          3.95380       -1.75410        5.59280
C          4.95530       -0.65100        4.68020
C          6.28930       -0.23140        4.83390
C          7.16380       -0.71630        5.90310
C          6.70300       -0.74790        7.21600
C          7.52860       -1.21150        8.22340
C          8.80980       -1.64500        7.93280
C          9.27980       -1.63740        6.62440
C         10.68610       -2.05570        6.30870
C         11.62230       -0.84680        6.37560
C          8.44530       -1.17830        5.61790
C          6.65800        0.63520        3.81530
S          5.36120        0.91050        2.65800
C          4.31220       -0.12480        3.55520
C          3.00460       -0.60370        3.43060
N          1.93780       -0.44580        2.57930
C          0.92400       -1.26110        3.04940
C         -0.35030       -1.55360        2.51860
N         -0.91900       -1.23870        1.29750
C         -2.22910       -1.64740        1.34970
C         -3.35950       -1.61450        0.52550
S         -3.76370       -0.97240       -1.02520
C         -0.22980       -1.14970        0.02480
C         -0.32760       -2.46240       -0.75200
C          1.77370        0.78760        1.83450
C          1.78240        2.00220        2.76230
C          7.89270        1.31070        3.62070
C          8.85700        1.64590        4.54940
C          9.95910        2.29040        3.98900
S         11.31990        2.80440        4.97510
C         11.49940        4.57090        4.51010
C         10.23790        5.35500        4.80690
C          9.87290        2.47530        2.60510
S          8.33690        1.86220        2.03240
C         10.94330        2.85670        1.78240
C         11.02620        3.21010        0.45630
C         12.40270        3.10990       -0.09080
O         13.38100        3.00140        0.62490
N         12.52320        3.09680       -1.46170
C         13.84640        2.84250       -2.02260
C         14.07530        1.35070       -2.22760
C         11.48120        3.28010       -2.36100
O         11.65500        3.15200       -3.55410
C         10.21580        3.70290       -1.75490
C          9.98940        3.67840       -0.40610
C          8.71360        4.24750        0.12970
C          9.22230        4.16700       -2.63970
N          8.39680        4.54920       -3.33900
H         -7.41130        1.61220       -4.73450
H        -12.12590       -1.53250       -7.44660
H        -13.91490       -1.45840       -9.15940
H        -15.13470       -0.22590      -10.93610
H        -12.62660        3.17600      -10.34840
H        -10.86000        3.12940       -8.67270
H         -8.90410       -1.93040       -3.94680
H         -8.81020       -5.46730       -2.74770
H         -9.43880       -3.93180       -3.36880
H         -8.22530       -5.21080       -5.15990
H         -7.38840       -3.69840       -4.81020
H         -6.76600       -5.21970       -4.16000
H         -7.97220       -0.76040        0.25930
H        -10.15480       -1.47400        1.14710
H        -10.37970       -3.64690        2.28110
H         -7.52990       -5.78180        3.21150
H         -9.26440       -5.50320        3.43010
H         -7.96110       -6.59650        0.88960
H         -8.85130       -7.55630        2.07860
H         -9.68890       -6.33230        1.11730
H         -6.22750       -4.39670        1.66840
H          5.70880       -0.39530        7.44490
H          7.17010       -1.23110        9.24170
H          9.45150       -1.99920        8.72630
H         11.01920       -2.80980        7.02410
H         10.72870       -2.48950        5.30780
H         11.32110       -0.08700        5.65760
H         12.64380       -1.14490        6.15380
H         11.59850       -0.40270        7.36800
H          8.79150       -1.18540        4.59420
H         -0.67470       -0.33850       -0.56070
H          0.82250       -0.93800        0.20440
H         -1.35780       -2.68950       -1.01030
H          0.24810       -2.38270       -1.66980
H          0.07280       -3.28090       -0.15740
H          0.81880        0.76470        1.31390
H          2.58760        0.86940        1.10690
H          1.59910        2.90160        2.18120
H          1.00150        1.90560        3.51360
H          2.73970        2.10640        3.26490
H          8.76770        1.44320        5.60020
H         12.33020        4.91140        5.12700
H         11.78230        4.63790        3.46180
H          9.40670        4.99400        4.20310
H          9.96690        5.26160        5.85620
H         10.39750        6.40700        4.57980
H         11.91520        2.73760        2.26020
H         13.90230        3.36820       -2.97740
H         14.57890        3.24950       -1.32320
H         14.00590        0.82540       -1.27750
H         13.33320        0.94960       -2.91390
H         15.06400        1.18700       -2.64690
H          8.80540        4.50250        1.18170
H          7.89280        3.54180        0.00620
H          8.45140        5.14340       -0.43160
