151

C         -7.95100        1.88840        6.83660
C         -7.62640        3.19530        6.63630
C         -8.04390        4.21950        7.63150
O         -8.86960        4.08830        8.50580
C         -7.18720        5.39050        7.35760
C         -7.07500        6.55510        8.06010
C         -6.15360        7.53520        7.62750
C         -5.99880        8.75500        8.31750
C         -5.09860        9.69370        7.89620
C         -4.32410        9.42750        6.75900
F         -3.44190       10.36200        6.36010
C         -4.43520        8.26240        6.05240
C         -5.35870        7.28490        6.47100
C         -5.50330        6.07290        5.75620
C         -6.40800        5.14280        6.19030
C         -6.79510        3.84450        5.64600
C         -6.62610        3.45040        4.34360
C         -7.27720        2.33690        3.77370
N         -7.82530        1.47130        3.25480
C         -5.84400        4.15220        3.40580
N         -5.19430        4.66720        2.61130
C         -7.35200        0.73260        6.28550
C         -7.91130       -0.52420        6.19910
C         -7.09600       -1.47260        5.57190
S         -7.71500       -3.08140        5.20670
C         -7.37390       -3.19880        3.41170
C         -8.03160       -2.08180        2.62740
C         -5.84500       -0.97380        5.23710
S         -5.72720        0.71330        5.64620
C         -4.72960       -1.58590        4.59810
C         -4.22900       -2.87020        4.72610
C         -4.69060       -3.86460        5.69240
C         -4.97510       -3.50280        7.00680
C         -5.38740       -4.46330        7.90850
C         -5.51580       -5.78400        7.51360
C         -5.22990       -6.16290        6.20870
C         -5.31170       -7.59910        5.78030
C         -3.92720       -8.24810        5.83810
C         -4.81340       -5.19520        5.30790
C         -3.14240       -3.07850        3.85290
S         -2.09360       -4.45060        3.58660
C         -1.20390       -3.51400        2.43590
C         -0.08150       -3.63990        1.60440
C          0.86650       -4.67940        1.48640
C          2.01420       -4.47620        0.65200
N          2.84920       -5.50300        0.68020
S          2.23980       -6.63130        1.66950
N          0.88760       -5.85200        2.10030
C          2.09550       -3.29470       -0.11700
C          3.01720       -2.90140       -1.09780
S          4.49230       -3.46160       -1.80890
C          4.45470       -2.09030       -2.89270
C          5.32480       -1.66870       -3.91080
C          6.57990       -2.36890       -4.20650
C          7.80020       -1.70210       -4.12160
C          8.97410       -2.38180       -4.38530
C          8.94200       -3.72250       -4.73070
C          7.73540       -4.40720       -4.79710
C          7.69030       -5.85330       -5.19710
C          7.49900       -5.98620       -6.70940
C          6.55980       -3.72000       -4.52870
C          4.85270       -0.52110       -4.53430
S          3.35780        0.06230       -3.81450
C          3.34990       -1.25440       -2.69790
C          2.53530       -1.71380       -1.65600
N          1.37790       -1.33690       -1.03070
C          1.08780       -2.28870       -0.06700
C          0.05030       -2.41120        0.89630
N         -0.94940       -1.55370        1.32710
C         -1.69660       -2.21860        2.26090
C         -2.80070       -1.96280        3.08470
S         -3.83160       -0.62040        3.43000
C         -1.05610       -0.11560        1.21750
C          0.17960        0.58420        1.77690
C          0.52830       -0.33820       -1.64100
C         -0.73960       -0.95900       -2.22130
C          5.34530        0.15340       -5.68070
C          6.39050       -0.23780       -6.50200
C          6.59390        0.62830       -7.56600
S          7.83200        0.46920       -8.78340
C          8.89940       -0.86940       -8.13790
C          8.39610       -2.25570       -8.49250
C          5.67920        1.70700       -7.60050
S          4.57200        1.59960       -6.24790
C          5.70610        2.68450       -8.58850
C          4.87540        3.76550       -8.80130
C          3.71000        4.10710       -7.99160
O          3.30590        3.54340       -6.98970
C          3.10000        5.29090       -8.63610
C          3.86480        5.64990       -9.76110
C          3.48450        6.73230      -10.53700
C          2.34620        7.44080      -10.17870
C          1.59780        7.08350       -9.06870
Br         0.05690        8.08840       -8.63370
C          1.96450        5.99400       -8.27110
Cl         1.04280        5.54740       -6.89910
C          4.99030        4.71950       -9.87730
C          5.96490        4.78520      -10.84270
C          6.00210        5.75610      -11.86430
N          6.09330        6.51510      -12.72140
C          7.07120        3.91890      -10.96520
N          8.00450        3.27330      -11.14500
H         -8.72900        1.70760        7.57220
H         -7.68130        6.72750        8.93680
H         -6.60650        8.93690        9.19110
H         -4.96770       10.63120        8.41300
H         -3.82530        8.09330        5.17880
H         -4.88580        5.90440        4.88790
H         -8.91420       -0.74420        6.51720
H         -7.78650       -4.17050        3.14140
H         -6.29470       -3.22050        3.26780
H         -7.63660       -1.10850        2.91210
H         -9.10490       -2.07700        2.80090
H         -7.85090       -2.22720        1.56430
H         -4.86010       -2.47500        7.31800
H         -5.60880       -4.18100        8.92700
H         -5.84170       -6.52790        8.22590
H         -5.99590       -8.14350        6.43350
H         -5.69350       -7.65850        4.75900
H         -3.23340       -7.71970        5.18820
H         -3.53700       -8.21520        6.85290
H         -3.98070       -9.28660        5.52010
H         -4.60220       -5.47600        4.28600
H          7.81880       -0.65760       -3.84660
H          9.92040       -1.86490       -4.31780
H          9.86430       -4.24540       -4.93840
H          6.86440       -6.35000       -4.68480
H          8.61960       -6.34670       -4.90670
H          7.45780       -7.03430       -6.99540
H          6.57350       -5.50590       -7.01920
H          8.32340       -5.51530       -7.24050
H          5.61300       -4.23780       -4.57960
H         -1.93040        0.17690        1.80410
H         -1.25270        0.17870        0.18620
H          0.29370        0.34880        2.83260
H          1.08200        0.26680        1.25970
H          0.07280        1.66040        1.67240
H          0.29840        0.45750       -0.93180
H          1.11000        0.11190       -2.44910
H         -0.48050       -1.67540       -2.99740
H         -1.36260       -0.18440       -2.66010
H         -1.31090       -1.47980       -1.45650
H          6.95730       -1.12980       -6.32560
H          9.86140       -0.67910       -8.61380
H          9.00220       -0.72800       -7.06320
H          8.33970       -2.37150       -9.57210
H          7.40890       -2.44080       -8.07590
H          9.08180       -3.00170       -8.09560
H          6.51010        2.54510       -9.30230
H          4.04410        7.03490      -11.40590
H          2.03280        8.28620      -10.77160
