137

C         -4.46720       -6.87480        4.26310
C         -4.35030       -7.69790        3.16860
C         -3.98600       -7.26090        1.81930
O         -3.73570       -6.12470        1.44970
C         -3.97440       -8.47140        0.98270
C         -3.69090       -8.59140       -0.34650
C         -3.74010       -9.86930       -0.94750
C         -3.45620      -10.05320       -2.31570
C         -3.50930      -11.29520       -2.88550
C         -3.85270      -12.39320       -2.08580
F         -3.90140      -13.60750       -2.66390
C         -4.13580      -12.27030       -0.75370
C         -4.08540      -10.99890       -0.15060
C         -4.37260      -10.84160        1.22630
C         -4.31800       -9.59440        1.78760
C         -4.55500       -9.13080        3.15390
C         -4.90500       -9.93580        4.20970
C         -5.08870      -11.33040        4.11310
N         -5.25620      -12.46660        4.10490
C         -5.12870       -9.50820        5.53380
N         -5.32930       -9.24330        6.63420
C         -4.28630       -5.49090        4.37180
C         -4.41990       -4.82200        5.58870
C         -4.18700       -3.45580        5.52500
S         -4.14680       -2.36330        6.89940
C         -3.83300       -3.49520        8.30410
C         -2.46830       -4.15140        8.23740
C         -3.90100       -3.03740        4.21890
S         -3.87720       -4.36610        3.10190
C         -3.58280       -1.74070        3.73370
C         -4.03390       -0.48820        4.12670
C         -5.13570       -0.24740        5.05320
C         -5.09160        0.81840        5.94890
C         -6.14530        1.03200        6.81510
C         -7.24700        0.19370        6.79940
C         -7.31760       -0.86140        5.89950
C         -8.47840       -1.81420        5.90300
C         -8.10000       -3.09940        6.64190
C         -6.26190       -1.06540        5.02540
C         -3.37830        0.53260        3.41000
S         -3.49560        2.27620        3.45270
C         -2.32440        2.36930        2.18160
C         -1.62500        3.34050        1.44170
C         -1.51770        4.74650        1.54580
C         -0.55040        5.44070        0.73350
N         -0.50410        6.73540        1.00310
S         -1.58440        7.06020        2.16450
N         -2.15240        5.55970        2.37450
C          0.15770        4.72530       -0.25930
C          1.04370        5.11190       -1.28180
S          1.88080        6.52620       -1.82550
C          2.57040        5.58910       -3.12920
C          3.44050        5.91990       -4.18330
C          3.93710        7.27790       -4.42290
C          4.53580        7.99740       -3.39410
C          5.00330        9.27700       -3.63270
C          4.87050        9.84760       -4.88620
C          4.25210        9.15140       -5.91890
C          4.13290        9.74910       -7.29140
C          5.32170        9.33560       -8.16180
C          3.78850        7.86820       -5.67460
C          3.70060        4.81640       -4.98080
S          2.84400        3.37800       -4.44770
C          2.15110        4.25530       -3.13300
C          1.28350        3.98080       -2.07090
N          0.60340        2.89910       -1.56740
C         -0.06210        3.33540       -0.43660
C         -0.81580        2.62550        0.52150
N         -0.95950        1.26730        0.73450
C         -1.87990        1.11710        1.74180
C         -2.47560        0.06820        2.44990
S         -2.40780       -1.65560        2.42560
C          0.04490        0.24830        0.50440
C          0.86480       -0.01360        1.76740
C          0.18560        1.82060       -2.44200
C         -0.65120        2.34550       -3.60810
C          4.58940        4.71010       -6.08710
C          5.65460        5.53080       -6.39520
C          6.33000        5.14480       -7.55470
S          7.69010        5.98130       -8.27100
C          8.30270        7.03090       -6.90730
C          8.93480        6.21420       -5.79750
C          5.78970        4.00220       -8.15430
S          4.41850        3.42210       -7.23820
C          6.27170        3.38440       -9.31970
C          5.77360        2.26800       -9.93400
C          6.38620        1.76370      -11.09950
N          6.89190        1.35200      -12.04360
C          4.65320        1.53890       -9.49280
N          3.74450        0.91640       -9.16690
H         -4.73730       -7.34340        5.20150
H         -3.43230       -7.72230       -0.93280
H         -3.19420       -9.19170       -2.91150
H         -3.29500      -11.45300       -3.93060
H         -4.39610      -13.13820       -0.16810
H         -4.62840      -11.71790        1.79960
H         -4.67580       -5.35510        6.48680
H         -4.64230       -4.22230        8.35170
H         -3.90650       -2.83770        9.17030
H         -2.37660       -4.77360        7.34950
H         -1.68770       -3.39480        8.20990
H         -2.31770       -4.77720        9.11460
H         -4.22290        1.45760        5.98080
H         -6.10470        1.85410        7.51420
H         -8.06140        0.36210        7.48940
H         -9.33820       -1.35380        6.39270
H         -8.75960       -2.05980        4.87660
H         -7.25740       -3.58270        6.15190
H         -8.93760       -3.79290        6.65660
H         -7.81590       -2.87340        7.66750
H         -6.31580       -1.86900        4.30450
H          4.64440        7.54820       -2.41860
H          5.47420        9.83210       -2.83500
H          5.24050       10.84690       -5.06500
H          4.10040       10.83770       -7.22020
H          3.20900        9.40870       -7.76250
H          6.25430        9.68080       -7.71970
H          5.36310        8.25280       -8.26040
H          5.23300        9.76670       -9.15580
H          3.29930        7.31610       -6.46460
H         -0.45800       -0.67180        0.19060
H          0.72110        0.58140       -0.28040
H          1.63890       -0.74480        1.55210
H          0.23840       -0.40000        2.56620
H          1.33600        0.90680        2.10600
H          1.07710        1.31290       -2.82380
H         -0.42140        1.11770       -1.87440
H         -1.51920        2.88460       -3.23430
H         -0.07050        3.01250       -4.23870
H         -0.99170        1.51060       -4.21390
H          5.91950        6.37170       -5.78390
H          9.04130        7.67000       -7.39110
H          7.48090        7.65090       -6.55180
H          9.75830        5.62020       -6.18720
H          9.31870        6.87860       -5.02610
H          8.20890        5.54180       -5.34490
H          7.13770        3.85710       -9.76920
