
  xtb     02052201173D
 energy: -266.798928119798 gnorm: 0.000351965328 xtb: 6.4.1 (unknown)
151167  0     0  0            999 V2000
    0.2317    5.4276   -9.5177 C   0  0  0  0  0  0  0  0  0  0  0  0
    0.1762    4.7196  -10.6939 C   0  0  0  0  0  0  0  0  0  0  0  0
    0.5388    3.3080  -10.8549 C   0  0  0  0  0  0  0  0  0  0  0  0
    1.0428    2.5681  -10.0261 O   0  0  0  0  0  0  0  0  0  0  0  0
    0.1747    2.9453  -12.2340 C   0  0  0  0  0  0  0  0  0  0  0  0
    0.2667    1.7316  -12.8504 C   0  0  0  0  0  0  0  0  0  0  0  0
   -0.1767    1.6039  -14.1858 C   0  0  0  0  0  0  0  0  0  0  0  0
   -0.1182    0.3723  -14.8687 C   0  0  0  0  0  0  0  0  0  0  0  0
   -0.5598    0.2599  -16.1579 C   0  0  0  0  0  0  0  0  0  0  0  0
   -1.0744    1.3946  -16.7990 C   0  0  0  0  0  0  0  0  0  0  0  0
   -1.5052    1.2646  -18.0672 F   0  0  0  0  0  0  0  0  0  0  0  0
   -1.1519    2.6130  -16.1832 C   0  0  0  0  0  0  0  0  0  0  0  0
   -0.7031    2.7465  -14.8551 C   0  0  0  0  0  0  0  0  0  0  0  0
   -0.7776    3.9938  -14.1905 C   0  0  0  0  0  0  0  0  0  0  0  0
   -0.3454    4.0933  -12.8954 C   0  0  0  0  0  0  0  0  0  0  0  0
   -0.3138    5.2187  -11.9625 C   0  0  0  0  0  0  0  0  0  0  0  0
   -0.6740    6.5067  -12.2700 C   0  0  0  0  0  0  0  0  0  0  0  0
   -1.1433    6.9141  -13.5359 C   0  0  0  0  0  0  0  0  0  0  0  0
   -1.5336    7.3123  -14.5397 N   0  0  0  0  0  0  0  0  0  0  0  0
   -0.6136    7.6104  -11.3950 C   0  0  0  0  0  0  0  0  0  0  0  0
   -0.5877    8.5615  -10.7505 N   0  0  0  0  0  0  0  0  0  0  0  0
    0.6113    5.0111   -8.2359 C   0  0  0  0  0  0  0  0  0  0  0  0
    0.5192    5.8431   -7.1208 C   0  0  0  0  0  0  0  0  0  0  0  0
    0.8893    5.2349   -5.9360 C   0  0  0  0  0  0  0  0  0  0  0  0
    0.8585    6.0872   -4.3829 S   0  0  0  0  0  0  0  0  0  0  0  0
    2.4410    7.0009   -4.5428 C   0  0  0  0  0  0  0  0  0  0  0  0
    3.6412    6.0770   -4.5079 C   0  0  0  0  0  0  0  0  0  0  0  0
    1.2962    3.9077   -6.1019 C   0  0  0  0  0  0  0  0  0  0  0  0
    1.2079    3.4322   -7.7704 S   0  0  0  0  0  0  0  0  0  0  0  0
    1.6611    2.9846   -5.0943 C   0  0  0  0  0  0  0  0  0  0  0  0
    2.1822    1.7067   -5.2651 C   0  0  0  0  0  0  0  0  0  0  0  0
    2.6199    1.1331   -6.5419 C   0  0  0  0  0  0  0  0  0  0  0  0
    2.0380   -0.0393   -7.0084 C   0  0  0  0  0  0  0  0  0  0  0  0
    2.4470   -0.5733   -8.2161 C   0  0  0  0  0  0  0  0  0  0  0  0
    3.4381    0.0474   -8.9528 C   0  0  0  0  0  0  0  0  0  0  0  0
    4.0451    1.2083   -8.4893 C   0  0  0  0  0  0  0  0  0  0  0  0
    5.1594    1.8502   -9.2637 C   0  0  0  0  0  0  0  0  0  0  0  0
    6.5032    1.2221   -8.8889 C   0  0  0  0  0  0  0  0  0  0  0  0
    3.6327    1.7388   -7.2784 C   0  0  0  0  0  0  0  0  0  0  0  0
    2.2442    1.0099   -4.0517 C   0  0  0  0  0  0  0  0  0  0  0  0
    2.7633   -0.6115   -3.6499 S   0  0  0  0  0  0  0  0  0  0  0  0
    2.3124   -0.3138   -2.0049 C   0  0  0  0  0  0  0  0  0  0  0  0
    2.2600   -0.9898   -0.7771 C   0  0  0  0  0  0  0  0  0  0  0  0
    2.7206   -2.2716   -0.4051 C   0  0  0  0  0  0  0  0  0  0  0  0
    2.5671   -2.6953    0.9560 C   0  0  0  0  0  0  0  0  0  0  0  0
    3.0785   -3.8967    1.1731 N   0  0  0  0  0  0  0  0  0  0  0  0
    3.6977   -4.4488   -0.2171 S   0  0  0  0  0  0  0  0  0  0  0  0
    3.3356   -3.1764   -1.1504 N   0  0  0  0  0  0  0  0  0  0  0  0
    1.8613   -1.8628    1.8520 C   0  0  0  0  0  0  0  0  0  0  0  0
    1.3972   -2.1062    3.1534 C   0  0  0  0  0  0  0  0  0  0  0  0
    1.4416   -3.3594    4.3476 S   0  0  0  0  0  0  0  0  0  0  0  0
    0.3534   -2.4144    5.3356 C   0  0  0  0  0  0  0  0  0  0  0  0
   -0.2823   -2.6895    6.5594 C   0  0  0  0  0  0  0  0  0  0  0  0
   -0.0093   -3.9211    7.3130 C   0  0  0  0  0  0  0  0  0  0  0  0
    1.2838   -4.1469    7.7749 C   0  0  0  0  0  0  0  0  0  0  0  0
    1.5702   -5.3065    8.4682 C   0  0  0  0  0  0  0  0  0  0  0  0
    0.5791   -6.2461    8.6931 C   0  0  0  0  0  0  0  0  0  0  0  0
   -0.7108   -6.0436    8.2228 C   0  0  0  0  0  0  0  0  0  0  0  0
   -1.7844   -7.0703    8.4326 C   0  0  0  0  0  0  0  0  0  0  0  0
   -2.0534   -7.8567    7.1492 C   0  0  0  0  0  0  0  0  0  0  0  0
   -0.9930   -4.8769    7.5257 C   0  0  0  0  0  0  0  0  0  0  0  0
   -1.1162   -1.6537    6.9416 C   0  0  0  0  0  0  0  0  0  0  0  0
   -1.1026   -0.3292    5.7703 S   0  0  0  0  0  0  0  0  0  0  0  0
    0.0035   -1.1890    4.7625 C   0  0  0  0  0  0  0  0  0  0  0  0
    0.6076   -1.0099    3.5131 C   0  0  0  0  0  0  0  0  0  0  0  0
    0.6037   -0.0826    2.5068 N   0  0  0  0  0  0  0  0  0  0  0  0
    1.3626   -0.5865    1.4626 C   0  0  0  0  0  0  0  0  0  0  0  0
    1.6650   -0.0993    0.1632 C   0  0  0  0  0  0  0  0  0  0  0  0
    1.4228    1.1075   -0.4751 N   0  0  0  0  0  0  0  0  0  0  0  0
    1.8078    0.9712   -1.7821 C   0  0  0  0  0  0  0  0  0  0  0  0
    1.7791    1.7379   -2.9511 C   0  0  0  0  0  0  0  0  0  0  0  0
    1.2980    3.3342   -3.4050 S   0  0  0  0  0  0  0  0  0  0  0  0
    1.2395    2.4338    0.0729 C   0  0  0  0  0  0  0  0  0  0  0  0
    2.3481    2.7902    1.0597 C   0  0  0  0  0  0  0  0  0  0  0  0
   -0.3726    0.9823    2.5232 C   0  0  0  0  0  0  0  0  0  0  0  0
   -1.4973    0.7287    1.5224 C   0  0  0  0  0  0  0  0  0  0  0  0
   -1.9306   -1.5004    8.0933 C   0  0  0  0  0  0  0  0  0  0  0  0
   -2.5220   -0.3072    8.4787 C   0  0  0  0  0  0  0  0  0  0  0  0
   -3.3011   -0.4285    9.6209 C   0  0  0  0  0  0  0  0  0  0  0  0
   -4.1628    0.8552   10.4289 S   0  0  0  0  0  0  0  0  0  0  0  0
   -4.1174    2.2280    9.2233 C   0  0  0  0  0  0  0  0  0  0  0  0
   -5.0080    1.9692    8.0236 C   0  0  0  0  0  0  0  0  0  0  0  0
   -3.3361   -1.7454   10.1317 C   0  0  0  0  0  0  0  0  0  0  0  0
   -2.3326   -2.8050    9.1606 S   0  0  0  0  0  0  0  0  0  0  0  0
   -4.1229   -2.1092   11.2213 C   0  0  0  0  0  0  0  0  0  0  0  0
   -4.3220   -3.3399   11.8085 C   0  0  0  0  0  0  0  0  0  0  0  0
   -3.6763   -4.5898   11.4100 C   0  0  0  0  0  0  0  0  0  0  0  0
   -2.8613   -4.7612   10.5175 O   0  0  0  0  0  0  0  0  0  0  0  0
   -4.2130   -5.6320   12.3038 C   0  0  0  0  0  0  0  0  0  0  0  0
   -3.9296   -6.9834   12.3324 C   0  0  0  0  0  0  0  0  0  0  0  0
   -4.5724   -7.7750   13.2712 C   0  0  0  0  0  0  0  0  0  0  0  0
   -5.4774   -7.1988   14.1541 C   0  0  0  0  0  0  0  0  0  0  0  0
   -6.2678   -8.1978   15.3147 Cl  0  0  0  0  0  0  0  0  0  0  0  0
   -5.7715   -5.8380   14.1347 C   0  0  0  0  0  0  0  0  0  0  0  0
   -5.1296   -5.0496   13.1958 C   0  0  0  0  0  0  0  0  0  0  0  0
   -5.2190   -3.6145   12.9078 C   0  0  0  0  0  0  0  0  0  0  0  0
   -6.0308   -2.7302   13.5721 C   0  0  0  0  0  0  0  0  0  0  0  0
   -6.1528   -1.3501   13.3061 C   0  0  0  0  0  0  0  0  0  0  0  0
   -6.3265   -0.2229   13.1664 N   0  0  0  0  0  0  0  0  0  0  0  0
   -6.8864   -3.0864   14.6354 C   0  0  0  0  0  0  0  0  0  0  0  0
   -7.6064   -3.2997   15.5042 N   0  0  0  0  0  0  0  0  0  0  0  0
   -0.1001    6.4584   -9.5492 H   0  0  0  0  0  0  0  0  0  0  0  0
    0.6657    0.8786  -12.3220 H   0  0  0  0  0  0  0  0  0  0  0  0
    0.2816   -0.4879  -14.3530 H   0  0  0  0  0  0  0  0  0  0  0  0
   -0.5244   -0.6753  -16.6938 H   0  0  0  0  0  0  0  0  0  0  0  0
   -1.5542    3.4655  -16.7080 H   0  0  0  0  0  0  0  0  0  0  0  0
   -1.1838    4.8365  -14.7260 H   0  0  0  0  0  0  0  0  0  0  0  0
    0.1748    6.8608   -7.1806 H   0  0  0  0  0  0  0  0  0  0  0  0
    2.3965    7.5694   -5.4713 H   0  0  0  0  0  0  0  0  0  0  0  0
    2.4428    7.6870   -3.6974 H   0  0  0  0  0  0  0  0  0  0  0  0
    3.6489    5.4984   -3.5869 H   0  0  0  0  0  0  0  0  0  0  0  0
    3.6204    5.3879   -5.3505 H   0  0  0  0  0  0  0  0  0  0  0  0
    4.5580    6.6606   -4.5629 H   0  0  0  0  0  0  0  0  0  0  0  0
    1.2560   -0.5140   -6.4350 H   0  0  0  0  0  0  0  0  0  0  0  0
    1.9854   -1.4777   -8.5842 H   0  0  0  0  0  0  0  0  0  0  0  0
    3.7464   -0.3698   -9.9006 H   0  0  0  0  0  0  0  0  0  0  0  0
    5.1885    2.9208   -9.0518 H   0  0  0  0  0  0  0  0  0  0  0  0
    4.9850    1.7200  -10.3334 H   0  0  0  0  0  0  0  0  0  0  0  0
    7.3117    1.6904   -9.4456 H   0  0  0  0  0  0  0  0  0  0  0  0
    6.6953    1.3469   -7.8255 H   0  0  0  0  0  0  0  0  0  0  0  0
    6.4988    0.1576   -9.1114 H   0  0  0  0  0  0  0  0  0  0  0  0
    4.0976    2.6390   -6.8995 H   0  0  0  0  0  0  0  0  0  0  0  0
    2.0518   -3.4074    7.6011 H   0  0  0  0  0  0  0  0  0  0  0  0
    2.5715   -5.4781    8.8352 H   0  0  0  0  0  0  0  0  0  0  0  0
    0.8120   -7.1484    9.2403 H   0  0  0  0  0  0  0  0  0  0  0  0
   -1.4786   -7.7609    9.2208 H   0  0  0  0  0  0  0  0  0  0  0  0
   -2.6968   -6.5654    8.7545 H   0  0  0  0  0  0  0  0  0  0  0  0
   -2.8300   -8.6002    7.3143 H   0  0  0  0  0  0  0  0  0  0  0  0
   -2.3761   -7.1905    6.3527 H   0  0  0  0  0  0  0  0  0  0  0  0
   -1.1495   -8.3665    6.8215 H   0  0  0  0  0  0  0  0  0  0  0  0
   -1.9878   -4.7147    7.1378 H   0  0  0  0  0  0  0  0  0  0  0  0
    0.2519    2.5357    0.5241 H   0  0  0  0  0  0  0  0  0  0  0  0
    1.2745    3.1245   -0.7734 H   0  0  0  0  0  0  0  0  0  0  0  0
    3.3125    2.7714    0.5573 H   0  0  0  0  0  0  0  0  0  0  0  0
    2.1837    3.7885    1.4561 H   0  0  0  0  0  0  0  0  0  0  0  0
    2.3840    2.0839    1.8859 H   0  0  0  0  0  0  0  0  0  0  0  0
   -0.7887    1.0058    3.5336 H   0  0  0  0  0  0  0  0  0  0  0  0
    0.1095    1.9450    2.3527 H   0  0  0  0  0  0  0  0  0  0  0  0
   -2.2046    1.5534    1.5411 H   0  0  0  0  0  0  0  0  0  0  0  0
   -2.0247   -0.1859    1.7827 H   0  0  0  0  0  0  0  0  0  0  0  0
   -1.1086    0.6202    0.5127 H   0  0  0  0  0  0  0  0  0  0  0  0
   -2.3582    0.6075    7.9377 H   0  0  0  0  0  0  0  0  0  0  0  0
   -4.4793    3.0803    9.7981 H   0  0  0  0  0  0  0  0  0  0  0  0
   -3.0804    2.4085    8.9442 H   0  0  0  0  0  0  0  0  0  0  0  0
   -4.6846    1.0855    7.4779 H   0  0  0  0  0  0  0  0  0  0  0  0
   -4.9763    2.8238    7.3507 H   0  0  0  0  0  0  0  0  0  0  0  0
   -6.0354    1.8175    8.3455 H   0  0  0  0  0  0  0  0  0  0  0  0
   -4.6747   -1.2771   11.6440 H   0  0  0  0  0  0  0  0  0  0  0  0
   -3.2220   -7.4031   11.6343 H   0  0  0  0  0  0  0  0  0  0  0  0
   -4.3781   -8.8344   13.3241 H   0  0  0  0  0  0  0  0  0  0  0  0
   -6.4809   -5.4349   14.8380 H   0  0  0  0  0  0  0  0  0  0  0  0
  1  2  2  0  0  0  0
  2  3  1  0  0  0  0
  3  4  2  0  0  0  0
  3  5  1  0  0  0  0
  5  6  2  0  0  0  0
  6  7  1  0  0  0  0
  7  8  2  0  0  0  0
  8  9  1  0  0  0  0
  9 10  2  0  0  0  0
 10 11  1  0  0  0  0
 10 12  1  0  0  0  0
 12 13  2  0  0  0  0
 13 14  1  0  0  0  0
 14 15  2  0  0  0  0
 15 16  1  0  0  0  0
 16 17  2  0  0  0  0
 17 18  1  0  0  0  0
 18 19  3  0  0  0  0
 17 20  1  0  0  0  0
 20 21  3  0  0  0  0
  1 22  1  0  0  0  0
 22 23  2  0  0  0  0
 23 24  1  0  0  0  0
 24 25  1  0  0  0  0
 25 26  1  0  0  0  0
 26 27  1  0  0  0  0
 24 28  2  0  0  0  0
 28 29  1  0  0  0  0
 28 30  1  0  0  0  0
 30 31  2  0  0  0  0
 31 32  1  0  0  0  0
 32 33  2  0  0  0  0
 33 34  1  0  0  0  0
 34 35  2  0  0  0  0
 35 36  1  0  0  0  0
 36 37  1  0  0  0  0
 37 38  1  0  0  0  0
 36 39  2  0  0  0  0
 31 40  1  0  0  0  0
 40 41  1  0  0  0  0
 41 42  1  0  0  0  0
 42 43  1  0  0  0  0
 43 44  1  0  0  0  0
 44 45  1  0  0  0  0
 45 46  2  0  0  0  0
 46 47  1  0  0  0  0
 47 48  1  0  0  0  0
 45 49  1  0  0  0  0
 49 50  1  0  0  0  0
 50 51  1  0  0  0  0
 51 52  1  0  0  0  0
 52 53  1  0  0  0  0
 53 54  1  0  0  0  0
 54 55  2  0  0  0  0
 55 56  1  0  0  0  0
 56 57  2  0  0  0  0
 57 58  1  0  0  0  0
 58 59  1  0  0  0  0
 59 60  1  0  0  0  0
 58 61  2  0  0  0  0
 53 62  2  0  0  0  0
 62 63  1  0  0  0  0
 63 64  1  0  0  0  0
 64 65  1  0  0  0  0
 65 66  1  0  0  0  0
 66 67  1  0  0  0  0
 67 68  1  0  0  0  0
 68 69  1  0  0  0  0
 69 70  1  0  0  0  0
 70 71  1  0  0  0  0
 71 72  1  0  0  0  0
 69 73  1  0  0  0  0
 73 74  1  0  0  0  0
 66 75  1  0  0  0  0
 75 76  1  0  0  0  0
 62 77  1  0  0  0  0
 77 78  2  0  0  0  0
 78 79  1  0  0  0  0
 79 80  1  0  0  0  0
 80 81  1  0  0  0  0
 81 82  1  0  0  0  0
 79 83  2  0  0  0  0
 83 84  1  0  0  0  0
 83 85  1  0  0  0  0
 85 86  2  0  0  0  0
 86 87  1  0  0  0  0
 87 88  2  0  0  0  0
 87 89  1  0  0  0  0
 89 90  2  0  0  0  0
 90 91  1  0  0  0  0
 91 92  2  0  0  0  0
 92 93  1  0  0  0  0
 92 94  1  0  0  0  0
 94 95  2  0  0  0  0
 95 96  1  0  0  0  0
 96 97  2  0  0  0  0
 97 98  1  0  0  0  0
 98 99  3  0  0  0  0
 97100  1  0  0  0  0
100101  3  0  0  0  0
 16  2  1  0  0  0  0
 29 22  1  0  0  0  0
 72 30  1  0  0  0  0
 84 77  1  0  0  0  0
 96 86  1  0  0  0  0
 15  5  1  0  0  0  0
 39 32  1  0  0  0  0
 71 40  2  0  0  0  0
 95 89  1  0  0  0  0
 13  7  1  0  0  0  0
 70 42  2  0  0  0  0
 68 43  2  0  0  0  0
 48 44  2  0  0  0  0
 67 49  2  0  0  0  0
 65 50  2  0  0  0  0
 64 52  2  0  0  0  0
 61 54  1  0  0  0  0
  1102  1  0  0  0  0
  6103  1  0  0  0  0
  8104  1  0  0  0  0
  9105  1  0  0  0  0
 12106  1  0  0  0  0
 14107  1  0  0  0  0
 23108  1  0  0  0  0
 26109  1  0  0  0  0
 26110  1  0  0  0  0
 27111  1  0  0  0  0
 27112  1  0  0  0  0
 27113  1  0  0  0  0
 33114  1  0  0  0  0
 34115  1  0  0  0  0
 35116  1  0  0  0  0
 37117  1  0  0  0  0
 37118  1  0  0  0  0
 38119  1  0  0  0  0
 38120  1  0  0  0  0
 38121  1  0  0  0  0
 39122  1  0  0  0  0
 55123  1  0  0  0  0
 56124  1  0  0  0  0
 57125  1  0  0  0  0
 59126  1  0  0  0  0
 59127  1  0  0  0  0
 60128  1  0  0  0  0
 60129  1  0  0  0  0
 60130  1  0  0  0  0
 61131  1  0  0  0  0
 73132  1  0  0  0  0
 73133  1  0  0  0  0
 74134  1  0  0  0  0
 74135  1  0  0  0  0
 74136  1  0  0  0  0
 75137  1  0  0  0  0
 75138  1  0  0  0  0
 76139  1  0  0  0  0
 76140  1  0  0  0  0
 76141  1  0  0  0  0
 78142  1  0  0  0  0
 81143  1  0  0  0  0
 81144  1  0  0  0  0
 82145  1  0  0  0  0
 82146  1  0  0  0  0
 82147  1  0  0  0  0
 85148  1  0  0  0  0
 90149  1  0  0  0  0
 91150  1  0  0  0  0
 94151  1  0  0  0  0
M  END
