
  xtb     02052204063D
 energy: -299.965266571464 gnorm: 0.000342111615 xtb: 6.4.1 (unknown)
171189  0     0  0            999 V2000
    4.5031   -9.7726    1.3325 C   0  0  0  0  0  0  0  0  0  0  0  0
    5.3872   -9.0057    2.0555 C   0  0  0  0  0  0  0  0  0  0  0  0
    5.3126   -7.5525    2.2093 C   0  0  0  0  0  0  0  0  0  0  0  0
    4.4643   -6.7993    1.7577 O   0  0  0  0  0  0  0  0  0  0  0  0
    6.4771   -7.1631    3.0213 C   0  0  0  0  0  0  0  0  0  0  0  0
    6.8590   -5.9187    3.4290 C   0  0  0  0  0  0  0  0  0  0  0  0
    8.0320   -5.7791    4.2045 C   0  0  0  0  0  0  0  0  0  0  0  0
    8.4761   -4.5182    4.6509 C   0  0  0  0  0  0  0  0  0  0  0  0
    9.6139   -4.3966    5.3997 C   0  0  0  0  0  0  0  0  0  0  0  0
   10.3396   -5.5510    5.7211 C   0  0  0  0  0  0  0  0  0  0  0  0
   11.4570   -5.4119    6.4586 F   0  0  0  0  0  0  0  0  0  0  0  0
    9.9527   -6.7978    5.3138 C   0  0  0  0  0  0  0  0  0  0  0  0
    8.7838   -6.9413    4.5419 C   0  0  0  0  0  0  0  0  0  0  0  0
    8.3600   -8.2191    4.1046 C   0  0  0  0  0  0  0  0  0  0  0  0
    7.2216   -8.3303    3.3528 C   0  0  0  0  0  0  0  0  0  0  0  0
    6.5520   -9.4895    2.7641 C   0  0  0  0  0  0  0  0  0  0  0  0
    6.9791  -10.7896    2.8820 C   0  0  0  0  0  0  0  0  0  0  0  0
    8.1342  -11.1801    3.5896 C   0  0  0  0  0  0  0  0  0  0  0  0
    9.0604  -11.5673    4.1475 N   0  0  0  0  0  0  0  0  0  0  0  0
    6.3447  -11.9189    2.3273 C   0  0  0  0  0  0  0  0  0  0  0  0
    5.8887  -12.8886    1.9112 N   0  0  0  0  0  0  0  0  0  0  0  0
    3.3710   -9.3932    0.6041 C   0  0  0  0  0  0  0  0  0  0  0  0
    2.6160  -10.3157   -0.1230 C   0  0  0  0  0  0  0  0  0  0  0  0
    1.5415   -9.7691   -0.8076 C   0  0  0  0  0  0  0  0  0  0  0  0
    0.5024  -10.6111   -1.9436 S   0  0  0  0  0  0  0  0  0  0  0  0
    1.3933  -12.1819   -2.2490 C   0  0  0  0  0  0  0  0  0  0  0  0
    1.0215  -13.2656   -1.2551 C   0  0  0  0  0  0  0  0  0  0  0  0
    1.4285   -8.3893   -0.5812 C   0  0  0  0  0  0  0  0  0  0  0  0
    2.6986   -7.7917    0.4389 S   0  0  0  0  0  0  0  0  0  0  0  0
    0.4924   -7.4641   -1.1113 C   0  0  0  0  0  0  0  0  0  0  0  0
   -0.8475   -7.6226   -1.4390 C   0  0  0  0  0  0  0  0  0  0  0  0
   -1.6671   -8.7721   -1.0671 C   0  0  0  0  0  0  0  0  0  0  0  0
   -2.6423   -9.2689   -1.9275 C   0  0  0  0  0  0  0  0  0  0  0  0
   -3.4209  -10.3401   -1.5350 C   0  0  0  0  0  0  0  0  0  0  0  0
   -3.2466  -10.9150   -0.2874 C   0  0  0  0  0  0  0  0  0  0  0  0
   -2.2966  -10.4149    0.5936 C   0  0  0  0  0  0  0  0  0  0  0  0
   -2.0738  -11.0355    1.9433 C   0  0  0  0  0  0  0  0  0  0  0  0
   -0.8383  -11.9367    1.9192 C   0  0  0  0  0  0  0  0  0  0  0  0
   -1.5152   -9.3433    0.1931 C   0  0  0  0  0  0  0  0  0  0  0  0
   -1.3722   -6.4478   -2.0097 C   0  0  0  0  0  0  0  0  0  0  0  0
   -2.9610   -6.0261   -2.6041 S   0  0  0  0  0  0  0  0  0  0  0  0
   -2.4054   -4.4110   -2.8868 C   0  0  0  0  0  0  0  0  0  0  0  0
   -2.8987   -3.1761   -3.3425 C   0  0  0  0  0  0  0  0  0  0  0  0
   -4.1312   -2.7925   -3.9170 C   0  0  0  0  0  0  0  0  0  0  0  0
   -4.3191   -1.4239   -4.3176 C   0  0  0  0  0  0  0  0  0  0  0  0
   -5.4970   -1.2224   -4.8854 N   0  0  0  0  0  0  0  0  0  0  0  0
   -6.3031   -2.6263   -4.9125 S   0  0  0  0  0  0  0  0  0  0  0  0
   -5.1804   -3.5485   -4.1976 N   0  0  0  0  0  0  0  0  0  0  0  0
   -3.3266   -0.4717   -3.9912 C   0  0  0  0  0  0  0  0  0  0  0  0
   -3.3432    0.9322   -3.9922 C   0  0  0  0  0  0  0  0  0  0  0  0
   -4.4052    2.2276   -4.4272 S   0  0  0  0  0  0  0  0  0  0  0  0
   -3.3150    3.3542   -3.6523 C   0  0  0  0  0  0  0  0  0  0  0  0
   -3.3730    4.7437   -3.4289 C   0  0  0  0  0  0  0  0  0  0  0  0
   -4.3927    5.6264   -3.9908 C   0  0  0  0  0  0  0  0  0  0  0  0
   -5.7272    5.2347   -4.0419 C   0  0  0  0  0  0  0  0  0  0  0  0
   -6.6747    6.0857   -4.5777 C   0  0  0  0  0  0  0  0  0  0  0  0
   -6.3051    7.3238   -5.0727 C   0  0  0  0  0  0  0  0  0  0  0  0
   -4.9741    7.7234   -5.0491 C   0  0  0  0  0  0  0  0  0  0  0  0
   -4.5576    9.0434   -5.6333 C   0  0  0  0  0  0  0  0  0  0  0  0
   -4.2197    8.8896   -7.1174 C   0  0  0  0  0  0  0  0  0  0  0  0
   -4.0278    6.8631   -4.5182 C   0  0  0  0  0  0  0  0  0  0  0  0
   -2.2846    5.1757   -2.6881 C   0  0  0  0  0  0  0  0  0  0  0  0
   -1.1350    3.8941   -2.3706 S   0  0  0  0  0  0  0  0  0  0  0  0
   -2.1754    2.7410   -3.1240 C   0  0  0  0  0  0  0  0  0  0  0  0
   -2.1850    1.3567   -3.3314 C   0  0  0  0  0  0  0  0  0  0  0  0
   -1.4308    0.2726   -2.9681 N   0  0  0  0  0  0  0  0  0  0  0  0
   -2.1092   -0.8623   -3.3681 C   0  0  0  0  0  0  0  0  0  0  0  0
   -1.8397   -2.2402   -3.1896 C   0  0  0  0  0  0  0  0  0  0  0  0
   -0.7120   -2.9040   -2.7381 N   0  0  0  0  0  0  0  0  0  0  0  0
   -1.0645   -4.2150   -2.5409 C   0  0  0  0  0  0  0  0  0  0  0  0
   -0.4677   -5.3829   -2.0572 C   0  0  0  0  0  0  0  0  0  0  0  0
    1.0765   -5.8348   -1.4331 S   0  0  0  0  0  0  0  0  0  0  0  0
    0.6714   -2.5604   -2.9869 C   0  0  0  0  0  0  0  0  0  0  0  0
    1.2252   -3.3248   -4.1892 C   0  0  0  0  0  0  0  0  0  0  0  0
   -0.3615    0.4184   -2.0060 C   0  0  0  0  0  0  0  0  0  0  0  0
    0.8960    1.0232   -2.6297 C   0  0  0  0  0  0  0  0  0  0  0  0
   -2.0709    6.4540   -2.0694 C   0  0  0  0  0  0  0  0  0  0  0  0
   -0.7780    6.9506   -1.8761 C   0  0  0  0  0  0  0  0  0  0  0  0
    0.2392    6.1856   -2.3558 O   0  0  0  0  0  0  0  0  0  0  0  0
    1.4064    5.9744   -1.5614 C   0  0  0  0  0  0  0  0  0  0  0  0
    2.6606    6.3406   -2.3398 C   0  0  0  0  0  0  0  0  0  0  0  0
   -0.5637    8.2137   -1.2790 C   0  0  0  0  0  0  0  0  0  0  0  0
    0.7261    8.6883   -1.2303 O   0  0  0  0  0  0  0  0  0  0  0  0
    1.0246    9.7770   -2.1060 C   0  0  0  0  0  0  0  0  0  0  0  0
    0.6317    9.5042   -3.5525 C   0  0  0  0  0  0  0  0  0  0  0  0
   -1.6214    8.9076   -0.6859 C   0  0  0  0  0  0  0  0  0  0  0  0
   -2.9495    8.4312   -0.8968 C   0  0  0  0  0  0  0  0  0  0  0  0
   -3.1716    7.1973   -1.5558 C   0  0  0  0  0  0  0  0  0  0  0  0
   -4.4091    6.6789   -1.5998 N   0  0  0  0  0  0  0  0  0  0  0  0
   -5.3979    7.3925   -1.1363 C   0  0  0  0  0  0  0  0  0  0  0  0
   -5.1951    8.7051   -0.6751 C   0  0  0  0  0  0  0  0  0  0  0  0
   -3.9931    9.1951   -0.5351 N   0  0  0  0  0  0  0  0  0  0  0  0
   -1.4154   10.0707    0.1219 C   0  0  0  0  0  0  0  0  0  0  0  0
   -2.1390   10.3461    1.2421 C   0  0  0  0  0  0  0  0  0  0  0  0
   -2.9324    9.3453    2.0050 C   0  0  0  0  0  0  0  0  0  0  0  0
   -3.0327    8.1546    1.7985 O   0  0  0  0  0  0  0  0  0  0  0  0
   -3.4535   10.0702    3.1788 C   0  0  0  0  0  0  0  0  0  0  0  0
   -4.2559    9.6006    4.1778 C   0  0  0  0  0  0  0  0  0  0  0  0
   -4.6212   10.4653    5.2332 C   0  0  0  0  0  0  0  0  0  0  0  0
   -5.4507   10.0334    6.2881 C   0  0  0  0  0  0  0  0  0  0  0  0
   -5.7895   10.8775    7.3088 C   0  0  0  0  0  0  0  0  0  0  0  0
   -5.2997   12.1906    7.2928 C   0  0  0  0  0  0  0  0  0  0  0  0
   -5.6441   13.0068    8.3061 F   0  0  0  0  0  0  0  0  0  0  0  0
   -4.4938   12.6609    6.2938 C   0  0  0  0  0  0  0  0  0  0  0  0
   -4.1337   11.8047    5.2346 C   0  0  0  0  0  0  0  0  0  0  0  0
   -3.2985   12.2612    4.1885 C   0  0  0  0  0  0  0  0  0  0  0  0
   -2.9642   11.4065    3.1712 C   0  0  0  0  0  0  0  0  0  0  0  0
   -2.1390   11.5923    1.9819 C   0  0  0  0  0  0  0  0  0  0  0  0
   -1.5328   12.7641    1.6062 C   0  0  0  0  0  0  0  0  0  0  0  0
   -1.5931   13.9610    2.3493 C   0  0  0  0  0  0  0  0  0  0  0  0
   -1.5978   14.9635    2.9091 N   0  0  0  0  0  0  0  0  0  0  0  0
   -0.7721   12.9416    0.4326 C   0  0  0  0  0  0  0  0  0  0  0  0
   -0.1432   13.1602   -0.5042 N   0  0  0  0  0  0  0  0  0  0  0  0
    4.6962  -10.8377    1.2961 H   0  0  0  0  0  0  0  0  0  0  0  0
    6.2745   -5.0508    3.1624 H   0  0  0  0  0  0  0  0  0  0  0  0
    7.8997   -3.6433    4.3901 H   0  0  0  0  0  0  0  0  0  0  0  0
    9.9676   -3.4395    5.7489 H   0  0  0  0  0  0  0  0  0  0  0  0
   10.5365   -7.6650    5.5802 H   0  0  0  0  0  0  0  0  0  0  0  0
    8.9532   -9.0767    4.3776 H   0  0  0  0  0  0  0  0  0  0  0  0
    2.8888  -11.3552   -0.1408 H   0  0  0  0  0  0  0  0  0  0  0  0
    2.4611  -11.9702   -2.2593 H   0  0  0  0  0  0  0  0  0  0  0  0
    1.0806  -12.4635   -3.2546 H   0  0  0  0  0  0  0  0  0  0  0  0
    1.5428  -14.1880   -1.5035 H   0  0  0  0  0  0  0  0  0  0  0  0
    1.2856  -12.9812   -0.2396 H   0  0  0  0  0  0  0  0  0  0  0  0
   -0.0498  -13.4496   -1.2900 H   0  0  0  0  0  0  0  0  0  0  0  0
   -2.7692   -8.8303   -2.9051 H   0  0  0  0  0  0  0  0  0  0  0  0
   -4.1698  -10.7318   -2.2074 H   0  0  0  0  0  0  0  0  0  0  0  0
   -3.8599  -11.7540    0.0090 H   0  0  0  0  0  0  0  0  0  0  0  0
   -2.9462  -11.6238    2.2327 H   0  0  0  0  0  0  0  0  0  0  0  0
   -1.9291  -10.2497    2.6881 H   0  0  0  0  0  0  0  0  0  0  0  0
   -0.6589  -12.3666    2.9019 H   0  0  0  0  0  0  0  0  0  0  0  0
    0.0396  -11.3650    1.6251 H   0  0  0  0  0  0  0  0  0  0  0  0
   -0.9777  -12.7461    1.2063 H   0  0  0  0  0  0  0  0  0  0  0  0
   -0.7846   -8.9326    0.8759 H   0  0  0  0  0  0  0  0  0  0  0  0
   -6.0227    4.2803   -3.6353 H   0  0  0  0  0  0  0  0  0  0  0  0
   -7.7113    5.7831   -4.6063 H   0  0  0  0  0  0  0  0  0  0  0  0
   -7.0531    7.9871   -5.4831 H   0  0  0  0  0  0  0  0  0  0  0  0
   -5.3657    9.7691   -5.5209 H   0  0  0  0  0  0  0  0  0  0  0  0
   -3.6826    9.4236   -5.1011 H   0  0  0  0  0  0  0  0  0  0  0  0
   -3.4121    8.1728   -7.2485 H   0  0  0  0  0  0  0  0  0  0  0  0
   -5.0871    8.5307   -7.6666 H   0  0  0  0  0  0  0  0  0  0  0  0
   -3.9109    9.8435   -7.5389 H   0  0  0  0  0  0  0  0  0  0  0  0
   -2.9866    7.1559   -4.5093 H   0  0  0  0  0  0  0  0  0  0  0  0
    1.2579   -2.8004   -2.0940 H   0  0  0  0  0  0  0  0  0  0  0  0
    0.7396   -1.4979   -3.1948 H   0  0  0  0  0  0  0  0  0  0  0  0
    2.2487   -3.0125   -4.3775 H   0  0  0  0  0  0  0  0  0  0  0  0
    1.2206   -4.3956   -4.0071 H   0  0  0  0  0  0  0  0  0  0  0  0
    0.6268   -3.1183   -5.0742 H   0  0  0  0  0  0  0  0  0  0  0  0
   -0.7141    1.0941   -1.2182 H   0  0  0  0  0  0  0  0  0  0  0  0
   -0.1605   -0.5501   -1.5478 H   0  0  0  0  0  0  0  0  0  0  0  0
    1.6999    1.0287   -1.8991 H   0  0  0  0  0  0  0  0  0  0  0  0
    0.7026    2.0467   -2.9389 H   0  0  0  0  0  0  0  0  0  0  0  0
    1.2217    0.4643   -3.5042 H   0  0  0  0  0  0  0  0  0  0  0  0
    1.3492    6.5405   -0.6301 H   0  0  0  0  0  0  0  0  0  0  0  0
    1.4177    4.9021   -1.3241 H   0  0  0  0  0  0  0  0  0  0  0  0
    2.7133    7.4137   -2.4943 H   0  0  0  0  0  0  0  0  0  0  0  0
    2.6540    5.8416   -3.3056 H   0  0  0  0  0  0  0  0  0  0  0  0
    3.5377    6.0239   -1.7825 H   0  0  0  0  0  0  0  0  0  0  0  0
    0.5488   10.7052   -1.7695 H   0  0  0  0  0  0  0  0  0  0  0  0
    2.1070    9.8931   -2.0113 H   0  0  0  0  0  0  0  0  0  0  0  0
   -0.4518    9.4656   -3.6515 H   0  0  0  0  0  0  0  0  0  0  0  0
    1.0102   10.3039   -4.1827 H   0  0  0  0  0  0  0  0  0  0  0  0
    1.0442    8.5575   -3.8939 H   0  0  0  0  0  0  0  0  0  0  0  0
   -6.3759    6.9325   -1.1499 H   0  0  0  0  0  0  0  0  0  0  0  0
   -6.0187    9.3552   -0.4135 H   0  0  0  0  0  0  0  0  0  0  0  0
   -0.6243   10.7489   -0.1593 H   0  0  0  0  0  0  0  0  0  0  0  0
   -4.6091    8.5803    4.1610 H   0  0  0  0  0  0  0  0  0  0  0  0
   -5.8148    9.0170    6.2781 H   0  0  0  0  0  0  0  0  0  0  0  0
   -6.4208   10.5624    8.1243 H   0  0  0  0  0  0  0  0  0  0  0  0
   -4.1357   13.6783    6.3142 H   0  0  0  0  0  0  0  0  0  0  0  0
   -2.9402   13.2775    4.2234 H   0  0  0  0  0  0  0  0  0  0  0  0
  1  2  2  0  0  0  0
  2  3  1  0  0  0  0
  3  4  2  0  0  0  0
  3  5  1  0  0  0  0
  5  6  2  0  0  0  0
  6  7  1  0  0  0  0
  7  8  2  0  0  0  0
  8  9  1  0  0  0  0
  9 10  2  0  0  0  0
 10 11  1  0  0  0  0
 10 12  1  0  0  0  0
 12 13  2  0  0  0  0
 13 14  1  0  0  0  0
 14 15  2  0  0  0  0
 15 16  1  0  0  0  0
 16 17  2  0  0  0  0
 17 18  1  0  0  0  0
 18 19  3  0  0  0  0
 17 20  1  0  0  0  0
 20 21  3  0  0  0  0
  1 22  1  0  0  0  0
 22 23  2  0  0  0  0
 23 24  1  0  0  0  0
 24 25  1  0  0  0  0
 25 26  1  0  0  0  0
 26 27  1  0  0  0  0
 24 28  2  0  0  0  0
 28 29  1  0  0  0  0
 28 30  1  0  0  0  0
 30 31  2  0  0  0  0
 31 32  1  0  0  0  0
 32 33  2  0  0  0  0
 33 34  1  0  0  0  0
 34 35  2  0  0  0  0
 35 36  1  0  0  0  0
 36 37  1  0  0  0  0
 37 38  1  0  0  0  0
 36 39  2  0  0  0  0
 31 40  1  0  0  0  0
 40 41  1  0  0  0  0
 41 42  1  0  0  0  0
 42 43  1  0  0  0  0
 43 44  1  0  0  0  0
 44 45  1  0  0  0  0
 45 46  2  0  0  0  0
 46 47  1  0  0  0  0
 47 48  1  0  0  0  0
 45 49  1  0  0  0  0
 49 50  1  0  0  0  0
 50 51  1  0  0  0  0
 51 52  1  0  0  0  0
 52 53  1  0  0  0  0
 53 54  1  0  0  0  0
 54 55  2  0  0  0  0
 55 56  1  0  0  0  0
 56 57  2  0  0  0  0
 57 58  1  0  0  0  0
 58 59  1  0  0  0  0
 59 60  1  0  0  0  0
 58 61  2  0  0  0  0
 53 62  2  0  0  0  0
 62 63  1  0  0  0  0
 63 64  1  0  0  0  0
 64 65  1  0  0  0  0
 65 66  1  0  0  0  0
 66 67  1  0  0  0  0
 67 68  1  0  0  0  0
 68 69  1  0  0  0  0
 69 70  1  0  0  0  0
 70 71  1  0  0  0  0
 71 72  1  0  0  0  0
 69 73  1  0  0  0  0
 73 74  1  0  0  0  0
 66 75  1  0  0  0  0
 75 76  1  0  0  0  0
 62 77  1  0  0  0  0
 77 78  2  0  0  0  0
 78 79  1  0  0  0  0
 79 80  1  0  0  0  0
 80 81  1  0  0  0  0
 78 82  1  0  0  0  0
 82 83  1  0  0  0  0
 83 84  1  0  0  0  0
 84 85  1  0  0  0  0
 82 86  2  0  0  0  0
 86 87  1  0  0  0  0
 87 88  2  0  0  0  0
 88 89  1  0  0  0  0
 89 90  2  0  0  0  0
 90 91  1  0  0  0  0
 91 92  2  0  0  0  0
 86 93  1  0  0  0  0
 93 94  2  0  0  0  0
 94 95  1  0  0  0  0
 95 96  2  0  0  0  0
 95 97  1  0  0  0  0
 97 98  2  0  0  0  0
 98 99  1  0  0  0  0
 99100  2  0  0  0  0
100101  1  0  0  0  0
101102  2  0  0  0  0
102103  1  0  0  0  0
102104  1  0  0  0  0
104105  2  0  0  0  0
105106  1  0  0  0  0
106107  2  0  0  0  0
107108  1  0  0  0  0
108109  2  0  0  0  0
109110  1  0  0  0  0
110111  3  0  0  0  0
109112  1  0  0  0  0
112113  3  0  0  0  0
 16  2  1  0  0  0  0
 29 22  1  0  0  0  0
 72 30  1  0  0  0  0
 88 77  1  0  0  0  0
108 94  1  0  0  0  0
 15  5  1  0  0  0  0
 39 32  1  0  0  0  0
 71 40  2  0  0  0  0
 92 87  1  0  0  0  0
107 97  1  0  0  0  0
 13  7  1  0  0  0  0
 70 42  2  0  0  0  0
105 99  1  0  0  0  0
 68 43  2  0  0  0  0
 48 44  2  0  0  0  0
 67 49  2  0  0  0  0
 65 50  2  0  0  0  0
 64 52  2  0  0  0  0
 61 54  1  0  0  0  0
  1114  1  0  0  0  0
  6115  1  0  0  0  0
  8116  1  0  0  0  0
  9117  1  0  0  0  0
 12118  1  0  0  0  0
 14119  1  0  0  0  0
 23120  1  0  0  0  0
 26121  1  0  0  0  0
 26122  1  0  0  0  0
 27123  1  0  0  0  0
 27124  1  0  0  0  0
 27125  1  0  0  0  0
 33126  1  0  0  0  0
 34127  1  0  0  0  0
 35128  1  0  0  0  0
 37129  1  0  0  0  0
 37130  1  0  0  0  0
 38131  1  0  0  0  0
 38132  1  0  0  0  0
 38133  1  0  0  0  0
 39134  1  0  0  0  0
 55135  1  0  0  0  0
 56136  1  0  0  0  0
 57137  1  0  0  0  0
 59138  1  0  0  0  0
 59139  1  0  0  0  0
 60140  1  0  0  0  0
 60141  1  0  0  0  0
 60142  1  0  0  0  0
 61143  1  0  0  0  0
 73144  1  0  0  0  0
 73145  1  0  0  0  0
 74146  1  0  0  0  0
 74147  1  0  0  0  0
 74148  1  0  0  0  0
 75149  1  0  0  0  0
 75150  1  0  0  0  0
 76151  1  0  0  0  0
 76152  1  0  0  0  0
 76153  1  0  0  0  0
 80154  1  0  0  0  0
 80155  1  0  0  0  0
 81156  1  0  0  0  0
 81157  1  0  0  0  0
 81158  1  0  0  0  0
 84159  1  0  0  0  0
 84160  1  0  0  0  0
 85161  1  0  0  0  0
 85162  1  0  0  0  0
 85163  1  0  0  0  0
 90164  1  0  0  0  0
 91165  1  0  0  0  0
 93166  1  0  0  0  0
 98167  1  0  0  0  0
100168  1  0  0  0  0
101169  1  0  0  0  0
104170  1  0  0  0  0
106171  1  0  0  0  0
M  END
