
  xtb     02052217063D
 energy: -281.706551049459 gnorm: 0.000459725666 xtb: 6.4.1 (unknown)
165182  0     0  0            999 V2000
    9.0693    3.0464    5.0427 C   0  0  0  0  0  0  0  0  0  0  0  0
   10.3123    3.4772    4.6530 C   0  0  0  0  0  0  0  0  0  0  0  0
   10.6393    4.6752    3.8506 C   0  0  0  0  0  0  0  0  0  0  0  0
    9.9358    5.6302    3.5843 O   0  0  0  0  0  0  0  0  0  0  0  0
   12.0191    4.4659    3.3711 C   0  0  0  0  0  0  0  0  0  0  0  0
   12.7489    5.2435    2.5196 C   0  0  0  0  0  0  0  0  0  0  0  0
   14.0553    4.8380    2.1658 C   0  0  0  0  0  0  0  0  0  0  0  0
   14.8498    5.5970    1.2828 C   0  0  0  0  0  0  0  0  0  0  0  0
   16.1088    5.1887    0.9398 C   0  0  0  0  0  0  0  0  0  0  0  0
   16.6060    3.9966    1.4830 C   0  0  0  0  0  0  0  0  0  0  0  0
   17.8470    3.6102    1.1328 F   0  0  0  0  0  0  0  0  0  0  0  0
   15.8785    3.2241    2.3450 C   0  0  0  0  0  0  0  0  0  0  0  0
   14.5794    3.6289    2.7082 C   0  0  0  0  0  0  0  0  0  0  0  0
   13.8009    2.8477    3.5943 C   0  0  0  0  0  0  0  0  0  0  0  0
   12.5375    3.2612    3.9212 C   0  0  0  0  0  0  0  0  0  0  0  0
   11.5132    2.6737    4.7780 C   0  0  0  0  0  0  0  0  0  0  0  0
   11.6953    1.5984    5.6100 C   0  0  0  0  0  0  0  0  0  0  0  0
   10.7406    1.1061    6.5243 C   0  0  0  0  0  0  0  0  0  0  0  0
   10.0307    0.6629    7.3112 N   0  0  0  0  0  0  0  0  0  0  0  0
   12.8964    0.8653    5.6956 C   0  0  0  0  0  0  0  0  0  0  0  0
   13.8436    0.2254    5.8051 N   0  0  0  0  0  0  0  0  0  0  0  0
    7.8305    3.7094    5.0100 C   0  0  0  0  0  0  0  0  0  0  0  0
    7.4904    5.0461    4.9022 C   0  0  0  0  0  0  0  0  0  0  0  0
    6.1163    5.2818    4.8806 C   0  0  0  0  0  0  0  0  0  0  0  0
    5.3708    6.8487    4.6262 S   0  0  0  0  0  0  0  0  0  0  0  0
    6.6616    7.7557    3.6947 C   0  0  0  0  0  0  0  0  0  0  0  0
    6.9721    7.1282    2.3512 C   0  0  0  0  0  0  0  0  0  0  0  0
    5.3602    4.1129    5.0007 C   0  0  0  0  0  0  0  0  0  0  0  0
    6.3864    2.7260    5.1548 S   0  0  0  0  0  0  0  0  0  0  0  0
    3.9528    3.9396    4.9054 C   0  0  0  0  0  0  0  0  0  0  0  0
    2.9178    4.7522    5.3397 C   0  0  0  0  0  0  0  0  0  0  0  0
    3.0705    5.8836    6.2497 C   0  0  0  0  0  0  0  0  0  0  0  0
    3.9620    5.8153    7.3189 C   0  0  0  0  0  0  0  0  0  0  0  0
    4.0772    6.8815    8.1887 C   0  0  0  0  0  0  0  0  0  0  0  0
    3.3146    8.0210    8.0013 C   0  0  0  0  0  0  0  0  0  0  0  0
    2.4141    8.1027    6.9467 C   0  0  0  0  0  0  0  0  0  0  0  0
    1.6243    9.3555    6.7016 C   0  0  0  0  0  0  0  0  0  0  0  0
    2.3760   10.2665    5.7290 C   0  0  0  0  0  0  0  0  0  0  0  0
    2.2949    7.0263    6.0824 C   0  0  0  0  0  0  0  0  0  0  0  0
    1.6722    4.2680    4.8897 C   0  0  0  0  0  0  0  0  0  0  0  0
    0.0315    4.8425    5.0816 S   0  0  0  0  0  0  0  0  0  0  0  0
   -0.5305    3.4967    4.1479 C   0  0  0  0  0  0  0  0  0  0  0  0
   -1.7319    2.9640    3.6512 C   0  0  0  0  0  0  0  0  0  0  0  0
   -3.0764    3.3444    3.8538 C   0  0  0  0  0  0  0  0  0  0  0  0
   -4.1199    2.5435    3.2790 C   0  0  0  0  0  0  0  0  0  0  0  0
   -5.3275    2.9869    3.5913 N   0  0  0  0  0  0  0  0  0  0  0  0
   -5.1667    4.3009    4.5234 S   0  0  0  0  0  0  0  0  0  0  0  0
   -3.5487    4.3559    4.5654 N   0  0  0  0  0  0  0  0  0  0  0  0
   -3.7696    1.4681    2.4338 C   0  0  0  0  0  0  0  0  0  0  0  0
   -4.5562    0.6335    1.6217 C   0  0  0  0  0  0  0  0  0  0  0  0
   -6.2236    0.3424    1.2513 S   0  0  0  0  0  0  0  0  0  0  0  0
   -5.7333   -0.8387    0.0591 C   0  0  0  0  0  0  0  0  0  0  0  0
   -6.4505   -1.6375   -0.8668 C   0  0  0  0  0  0  0  0  0  0  0  0
   -7.9042   -1.6309   -1.0311 C   0  0  0  0  0  0  0  0  0  0  0  0
   -8.7439   -1.5277    0.0750 C   0  0  0  0  0  0  0  0  0  0  0  0
  -10.1148   -1.5530   -0.0969 C   0  0  0  0  0  0  0  0  0  0  0  0
  -10.6620   -1.6895   -1.3618 C   0  0  0  0  0  0  0  0  0  0  0  0
   -9.8398   -1.7787   -2.4778 C   0  0  0  0  0  0  0  0  0  0  0  0
  -10.4017   -1.9836   -3.8554 C   0  0  0  0  0  0  0  0  0  0  0  0
  -10.2619   -3.4496   -4.2723 C   0  0  0  0  0  0  0  0  0  0  0  0
   -8.4652   -1.7357   -2.2998 C   0  0  0  0  0  0  0  0  0  0  0  0
   -5.5982   -2.3944   -1.6334 C   0  0  0  0  0  0  0  0  0  0  0  0
   -3.9122   -2.1227   -1.2544 S   0  0  0  0  0  0  0  0  0  0  0  0
   -4.3515   -0.9840   -0.0292 C   0  0  0  0  0  0  0  0  0  0  0  0
   -3.6767   -0.1484    0.8732 C   0  0  0  0  0  0  0  0  0  0  0  0
   -2.3833    0.1366    1.2133 N   0  0  0  0  0  0  0  0  0  0  0  0
   -2.4110    1.1302    2.1793 C   0  0  0  0  0  0  0  0  0  0  0  0
   -1.3885    1.8121    2.8887 C   0  0  0  0  0  0  0  0  0  0  0  0
   -0.0170    1.6269    2.9676 N   0  0  0  0  0  0  0  0  0  0  0  0
    0.4940    2.6478    3.7242 C   0  0  0  0  0  0  0  0  0  0  0  0
    1.7514    3.0828    4.1546 C   0  0  0  0  0  0  0  0  0  0  0  0
    3.3815    2.5364    4.0076 S   0  0  0  0  0  0  0  0  0  0  0  0
    0.7672    0.4265    2.7744 C   0  0  0  0  0  0  0  0  0  0  0  0
    0.1918   -0.7517    3.5555 C   0  0  0  0  0  0  0  0  0  0  0  0
   -1.3058   -0.2940    0.3522 C   0  0  0  0  0  0  0  0  0  0  0  0
   -0.6964    0.8759   -0.4162 C   0  0  0  0  0  0  0  0  0  0  0  0
   -5.9034   -3.3414   -2.7042 C   0  0  0  0  0  0  0  0  0  0  0  0
   -5.4388   -3.0426   -3.9821 C   0  0  0  0  0  0  0  0  0  0  0  0
   -5.6597   -3.8648   -5.0728 C   0  0  0  0  0  0  0  0  0  0  0  0
   -5.2028   -3.4121   -6.4325 C   0  0  0  0  0  0  0  0  0  0  0  0
   -3.6940   -3.1695   -6.4860 C   0  0  0  0  0  0  0  0  0  0  0  0
   -6.3839   -5.0460   -4.8609 C   0  0  0  0  0  0  0  0  0  0  0  0
   -6.8679   -5.3337   -3.5834 C   0  0  0  0  0  0  0  0  0  0  0  0
   -6.6250   -4.5223   -2.4899 C   0  0  0  0  0  0  0  0  0  0  0  0
   -7.0961   -4.9509   -1.1277 C   0  0  0  0  0  0  0  0  0  0  0  0
   -8.6133   -5.1164   -1.0490 C   0  0  0  0  0  0  0  0  0  0  0  0
   -6.7098   -5.9923   -5.9163 C   0  0  0  0  0  0  0  0  0  0  0  0
   -5.8139   -6.6588   -6.6777 C   0  0  0  0  0  0  0  0  0  0  0  0
   -4.3521   -6.7031   -6.3908 C   0  0  0  0  0  0  0  0  0  0  0  0
   -3.7521   -6.1156   -5.5194 O   0  0  0  0  0  0  0  0  0  0  0  0
   -3.7958   -7.6881   -7.3356 C   0  0  0  0  0  0  0  0  0  0  0  0
   -2.5004   -8.0991   -7.4668 C   0  0  0  0  0  0  0  0  0  0  0  0
   -2.1807   -9.0720   -8.4386 C   0  0  0  0  0  0  0  0  0  0  0  0
   -0.8587   -9.5281   -8.6193 C   0  0  0  0  0  0  0  0  0  0  0  0
   -0.5636  -10.4769   -9.5580 C   0  0  0  0  0  0  0  0  0  0  0  0
   -1.5996  -10.9955  -10.3475 C   0  0  0  0  0  0  0  0  0  0  0  0
   -1.2894  -11.9287  -11.2646 F   0  0  0  0  0  0  0  0  0  0  0  0
   -2.8974  -10.5868  -10.2155 C   0  0  0  0  0  0  0  0  0  0  0  0
   -3.2201   -9.6094   -9.2533 C   0  0  0  0  0  0  0  0  0  0  0  0
   -4.5526   -9.1651   -9.0947 C   0  0  0  0  0  0  0  0  0  0  0  0
   -4.8381   -8.2124   -8.1514 C   0  0  0  0  0  0  0  0  0  0  0  0
   -6.0921   -7.5670   -7.7821 C   0  0  0  0  0  0  0  0  0  0  0  0
   -7.2948   -7.7310   -8.4131 C   0  0  0  0  0  0  0  0  0  0  0  0
   -8.4786   -7.0327   -8.0906 C   0  0  0  0  0  0  0  0  0  0  0  0
   -9.4718   -6.4899   -7.8986 N   0  0  0  0  0  0  0  0  0  0  0  0
   -7.5072   -8.6109   -9.4961 C   0  0  0  0  0  0  0  0  0  0  0  0
   -7.7456   -9.3091  -10.3752 N   0  0  0  0  0  0  0  0  0  0  0  0
    9.0004    2.0177    5.3781 H   0  0  0  0  0  0  0  0  0  0  0  0
   12.3332    6.1549    2.1163 H   0  0  0  0  0  0  0  0  0  0  0  0
   14.4446    6.5117    0.8766 H   0  0  0  0  0  0  0  0  0  0  0  0
   16.7285    5.7565    0.2639 H   0  0  0  0  0  0  0  0  0  0  0  0
   16.2938    2.3124    2.7452 H   0  0  0  0  0  0  0  0  0  0  0  0
   14.2228    1.9349    3.9830 H   0  0  0  0  0  0  0  0  0  0  0  0
    8.2348    5.8152    4.8329 H   0  0  0  0  0  0  0  0  0  0  0  0
    6.2196    8.7452    3.5739 H   0  0  0  0  0  0  0  0  0  0  0  0
    7.5494    7.8414    4.3185 H   0  0  0  0  0  0  0  0  0  0  0  0
    7.6343    7.7836    1.7898 H   0  0  0  0  0  0  0  0  0  0  0  0
    7.4718    6.1708    2.4768 H   0  0  0  0  0  0  0  0  0  0  0  0
    6.0585    6.9791    1.7798 H   0  0  0  0  0  0  0  0  0  0  0  0
    4.5471    4.9207    7.4741 H   0  0  0  0  0  0  0  0  0  0  0  0
    4.7662    6.8235    9.0185 H   0  0  0  0  0  0  0  0  0  0  0  0
    3.4156    8.8537    8.6826 H   0  0  0  0  0  0  0  0  0  0  0  0
    1.4630    9.8852    7.6423 H   0  0  0  0  0  0  0  0  0  0  0  0
    0.6506    9.1014    6.2788 H   0  0  0  0  0  0  0  0  0  0  0  0
    3.3421   10.5459    6.1435 H   0  0  0  0  0  0  0  0  0  0  0  0
    2.5462    9.7510    4.7866 H   0  0  0  0  0  0  0  0  0  0  0  0
    1.8050   11.1715    5.5347 H   0  0  0  0  0  0  0  0  0  0  0  0
    1.6082    7.0848    5.2512 H   0  0  0  0  0  0  0  0  0  0  0  0
   -8.3228   -1.4436    1.0651 H   0  0  0  0  0  0  0  0  0  0  0  0
  -10.7629   -1.4750    0.7634 H   0  0  0  0  0  0  0  0  0  0  0  0
  -11.7350   -1.7230   -1.4839 H   0  0  0  0  0  0  0  0  0  0  0  0
  -11.4546   -1.6979   -3.8767 H   0  0  0  0  0  0  0  0  0  0  0  0
   -9.8623   -1.3567   -4.5691 H   0  0  0  0  0  0  0  0  0  0  0  0
  -10.8150   -4.0902   -3.5888 H   0  0  0  0  0  0  0  0  0  0  0  0
   -9.2162   -3.7510   -4.2531 H   0  0  0  0  0  0  0  0  0  0  0  0
  -10.6484   -3.6000   -5.2774 H   0  0  0  0  0  0  0  0  0  0  0  0
   -7.8213   -1.7800   -3.1654 H   0  0  0  0  0  0  0  0  0  0  0  0
    1.7701    0.6490    3.1473 H   0  0  0  0  0  0  0  0  0  0  0  0
    0.8672    0.1944    1.7133 H   0  0  0  0  0  0  0  0  0  0  0  0
    0.1809   -0.5218    4.6185 H   0  0  0  0  0  0  0  0  0  0  0  0
    0.8055   -1.6347    3.3986 H   0  0  0  0  0  0  0  0  0  0  0  0
   -0.8272   -0.9712    3.2463 H   0  0  0  0  0  0  0  0  0  0  0  0
   -0.5511   -0.8373    0.9221 H   0  0  0  0  0  0  0  0  0  0  0  0
   -1.7404   -1.0019   -0.3578 H   0  0  0  0  0  0  0  0  0  0  0  0
    0.1109    0.5213   -1.0514 H   0  0  0  0  0  0  0  0  0  0  0  0
   -0.3068    1.6327    0.2602 H   0  0  0  0  0  0  0  0  0  0  0  0
   -1.4533    1.3402   -1.0442 H   0  0  0  0  0  0  0  0  0  0  0  0
   -4.9017   -2.1157   -4.1249 H   0  0  0  0  0  0  0  0  0  0  0  0
   -5.4783   -4.1504   -7.1864 H   0  0  0  0  0  0  0  0  0  0  0  0
   -5.7232   -2.4812   -6.6801 H   0  0  0  0  0  0  0  0  0  0  0  0
   -3.4120   -2.3180   -5.8727 H   0  0  0  0  0  0  0  0  0  0  0  0
   -3.1639   -4.0441   -6.1190 H   0  0  0  0  0  0  0  0  0  0  0  0
   -3.3835   -2.9725   -7.5098 H   0  0  0  0  0  0  0  0  0  0  0  0
   -7.4112   -6.2568   -3.4395 H   0  0  0  0  0  0  0  0  0  0  0  0
   -6.6227   -5.9077   -0.8871 H   0  0  0  0  0  0  0  0  0  0  0  0
   -6.7768   -4.2242   -0.3804 H   0  0  0  0  0  0  0  0  0  0  0  0
   -8.9596   -5.8819   -1.7385 H   0  0  0  0  0  0  0  0  0  0  0  0
   -9.1112   -4.1825   -1.2925 H   0  0  0  0  0  0  0  0  0  0  0  0
   -8.9015   -5.4078   -0.0418 H   0  0  0  0  0  0  0  0  0  0  0  0
   -7.7668   -6.1990   -6.0379 H   0  0  0  0  0  0  0  0  0  0  0  0
   -1.7286   -7.6842   -6.8358 H   0  0  0  0  0  0  0  0  0  0  0  0
   -0.0782   -9.1138   -7.9990 H   0  0  0  0  0  0  0  0  0  0  0  0
    0.4415  -10.8379   -9.7080 H   0  0  0  0  0  0  0  0  0  0  0  0
   -3.6688  -11.0067  -10.8419 H   0  0  0  0  0  0  0  0  0  0  0  0
   -5.3167   -9.5943   -9.7228 H   0  0  0  0  0  0  0  0  0  0  0  0
  1  2  2  0  0  0  0
  2  3  1  0  0  0  0
  3  4  2  0  0  0  0
  3  5  1  0  0  0  0
  5  6  2  0  0  0  0
  6  7  1  0  0  0  0
  7  8  2  0  0  0  0
  8  9  1  0  0  0  0
  9 10  2  0  0  0  0
 10 11  1  0  0  0  0
 10 12  1  0  0  0  0
 12 13  2  0  0  0  0
 13 14  1  0  0  0  0
 14 15  2  0  0  0  0
 15 16  1  0  0  0  0
 16 17  2  0  0  0  0
 17 18  1  0  0  0  0
 18 19  3  0  0  0  0
 17 20  1  0  0  0  0
 20 21  3  0  0  0  0
  1 22  1  0  0  0  0
 22 23  2  0  0  0  0
 23 24  1  0  0  0  0
 24 25  1  0  0  0  0
 25 26  1  0  0  0  0
 26 27  1  0  0  0  0
 24 28  2  0  0  0  0
 28 29  1  0  0  0  0
 28 30  1  0  0  0  0
 30 31  2  0  0  0  0
 31 32  1  0  0  0  0
 32 33  2  0  0  0  0
 33 34  1  0  0  0  0
 34 35  2  0  0  0  0
 35 36  1  0  0  0  0
 36 37  1  0  0  0  0
 37 38  1  0  0  0  0
 36 39  2  0  0  0  0
 31 40  1  0  0  0  0
 40 41  1  0  0  0  0
 41 42  1  0  0  0  0
 42 43  1  0  0  0  0
 43 44  1  0  0  0  0
 44 45  1  0  0  0  0
 45 46  2  0  0  0  0
 46 47  1  0  0  0  0
 47 48  1  0  0  0  0
 45 49  1  0  0  0  0
 49 50  1  0  0  0  0
 50 51  1  0  0  0  0
 51 52  1  0  0  0  0
 52 53  1  0  0  0  0
 53 54  1  0  0  0  0
 54 55  2  0  0  0  0
 55 56  1  0  0  0  0
 56 57  2  0  0  0  0
 57 58  1  0  0  0  0
 58 59  1  0  0  0  0
 59 60  1  0  0  0  0
 58 61  2  0  0  0  0
 53 62  2  0  0  0  0
 62 63  1  0  0  0  0
 63 64  1  0  0  0  0
 64 65  1  0  0  0  0
 65 66  1  0  0  0  0
 66 67  1  0  0  0  0
 67 68  1  0  0  0  0
 68 69  1  0  0  0  0
 69 70  1  0  0  0  0
 70 71  1  0  0  0  0
 71 72  1  0  0  0  0
 69 73  1  0  0  0  0
 73 74  1  0  0  0  0
 66 75  1  0  0  0  0
 75 76  1  0  0  0  0
 62 77  1  0  0  0  0
 77 78  2  0  0  0  0
 78 79  1  0  0  0  0
 79 80  1  0  0  0  0
 80 81  1  0  0  0  0
 79 82  2  0  0  0  0
 82 83  1  0  0  0  0
 83 84  2  0  0  0  0
 84 85  1  0  0  0  0
 85 86  1  0  0  0  0
 82 87  1  0  0  0  0
 87 88  2  0  0  0  0
 88 89  1  0  0  0  0
 89 90  2  0  0  0  0
 89 91  1  0  0  0  0
 91 92  2  0  0  0  0
 92 93  1  0  0  0  0
 93 94  2  0  0  0  0
 94 95  1  0  0  0  0
 95 96  2  0  0  0  0
 96 97  1  0  0  0  0
 96 98  1  0  0  0  0
 98 99  2  0  0  0  0
 99100  1  0  0  0  0
100101  2  0  0  0  0
101102  1  0  0  0  0
102103  2  0  0  0  0
103104  1  0  0  0  0
104105  3  0  0  0  0
103106  1  0  0  0  0
106107  3  0  0  0  0
 16  2  1  0  0  0  0
 29 22  1  0  0  0  0
 72 30  1  0  0  0  0
 84 77  1  0  0  0  0
102 88  1  0  0  0  0
 15  5  1  0  0  0  0
 39 32  1  0  0  0  0
 71 40  2  0  0  0  0
101 91  1  0  0  0  0
 13  7  1  0  0  0  0
 70 42  2  0  0  0  0
 99 93  1  0  0  0  0
 68 43  2  0  0  0  0
 48 44  2  0  0  0  0
 67 49  2  0  0  0  0
 65 50  2  0  0  0  0
 64 52  2  0  0  0  0
 61 54  1  0  0  0  0
  1108  1  0  0  0  0
  6109  1  0  0  0  0
  8110  1  0  0  0  0
  9111  1  0  0  0  0
 12112  1  0  0  0  0
 14113  1  0  0  0  0
 23114  1  0  0  0  0
 26115  1  0  0  0  0
 26116  1  0  0  0  0
 27117  1  0  0  0  0
 27118  1  0  0  0  0
 27119  1  0  0  0  0
 33120  1  0  0  0  0
 34121  1  0  0  0  0
 35122  1  0  0  0  0
 37123  1  0  0  0  0
 37124  1  0  0  0  0
 38125  1  0  0  0  0
 38126  1  0  0  0  0
 38127  1  0  0  0  0
 39128  1  0  0  0  0
 55129  1  0  0  0  0
 56130  1  0  0  0  0
 57131  1  0  0  0  0
 59132  1  0  0  0  0
 59133  1  0  0  0  0
 60134  1  0  0  0  0
 60135  1  0  0  0  0
 60136  1  0  0  0  0
 61137  1  0  0  0  0
 73138  1  0  0  0  0
 73139  1  0  0  0  0
 74140  1  0  0  0  0
 74141  1  0  0  0  0
 74142  1  0  0  0  0
 75143  1  0  0  0  0
 75144  1  0  0  0  0
 76145  1  0  0  0  0
 76146  1  0  0  0  0
 76147  1  0  0  0  0
 78148  1  0  0  0  0
 80149  1  0  0  0  0
 80150  1  0  0  0  0
 81151  1  0  0  0  0
 81152  1  0  0  0  0
 81153  1  0  0  0  0
 83154  1  0  0  0  0
 85155  1  0  0  0  0
 85156  1  0  0  0  0
 86157  1  0  0  0  0
 86158  1  0  0  0  0
 86159  1  0  0  0  0
 87160  1  0  0  0  0
 92161  1  0  0  0  0
 94162  1  0  0  0  0
 95163  1  0  0  0  0
 98164  1  0  0  0  0
100165  1  0  0  0  0
M  END
