181

C         -0.08600        0.53370      -11.85660
C          1.13130        0.96830      -12.28350
C          1.20520        2.00720      -13.34630
O          0.31270        2.35370      -14.08620
C          2.57070        2.55980      -13.24650
C          3.11650        3.62550      -13.90160
C          4.44850        4.00120      -13.61630
C          5.05910        5.09440      -14.26450
C          6.34520        5.45670      -13.97510
C          7.05710        4.72150      -13.01760
F          8.32110        5.09410      -12.74440
C          6.51390        3.65250      -12.36120
C          5.19100        3.26390      -12.64820
C          4.60360        2.15680      -11.99230
C          3.31560        1.80740      -12.29240
C          2.47550        0.71290      -11.81490
C          2.93540       -0.46600      -11.28840
C          2.12380       -1.60930      -11.13640
N          1.50420       -2.57180      -11.05090
C          4.28140       -0.69530      -10.94280
N          5.36350       -0.92120      -10.63300
C         -0.44570       -0.07560      -10.63410
C         -1.65310       -0.68750      -10.36130
C         -1.77530       -1.13300       -9.04470
S         -3.28550       -1.81500       -8.41700
C         -4.20960       -0.25010       -8.18150
C         -3.67100        0.55610       -7.01680
C         -0.66280       -0.85870       -8.26440
S          0.54210       -0.02180       -9.19180
C         -0.45150       -1.11490       -6.87860
S          0.29950        0.15500       -5.91340
C          0.10310       -0.80330       -4.50640
C          0.26690       -0.67120       -3.10390
C         -0.24700       -1.79380       -2.48160
C         -0.59830       -2.85070       -3.51180
C         -0.46890       -2.03970       -4.78140
C         -0.77670       -2.23850       -6.13310
C         -1.28620       -3.52720       -6.67710
C          0.54890       -3.85950       -3.40970
C          0.64060       -4.69390       -2.30100
C          1.68570       -5.58690       -2.16870
C          2.67830       -5.67440       -3.13640
C          3.83650       -6.61530       -2.97440
C          4.99430       -5.91820       -2.25710
C          2.59200       -4.83370       -4.23620
C          1.54650       -3.93770       -4.37240
C         -1.97090       -3.48750       -3.39660
C         -2.11030       -4.85510       -3.60690
C         -3.34230       -5.47520       -3.54130
C         -4.48420       -4.73780       -3.26690
C         -5.83610       -5.38900       -3.23350
C         -6.43900       -5.43410       -4.63900
C         -4.34780       -3.36990       -3.09110
C         -3.11940       -2.72480       -3.16040
C         -3.09430       -1.23440       -2.99080
C         -0.28070       -1.67280       -1.07430
C         -0.86820       -2.49900       -0.11410
C         -0.82280       -2.10500        1.20200
S         -1.54550       -2.98720        2.53620
C         -1.02220       -1.74650        3.62250
C         -1.12780       -1.48170        5.00970
C         -0.46520       -0.28960        5.29650
C          0.12350        0.30440        4.03460
C         -0.45980        1.69060        3.84810
C         -1.46460        1.95250        2.92940
C         -1.99010        3.22760        2.81260
C         -1.53390        4.26570        3.61190
C         -2.13570        5.63770        3.51430
C         -3.29870        5.78140        4.49810
C         -0.53690        3.99370        4.54120
C         -0.00620        2.72490        4.65960
C          1.64420        0.31570        4.04180
C          2.35140       -0.64740        4.74910
C          3.73310       -0.66600        4.72100
C          4.44530        0.26840        3.98090
C          5.94450        0.21830        3.91720
C          6.40030       -0.69920        2.78080
C          3.73320        1.22080        3.26450
C          2.35150        1.24630        3.29270
C         -0.32770       -0.71860        3.01440
C         -0.19820       -0.89280        1.61890
C          0.35650       -0.04810        0.65630
C          0.29380       -0.43350       -0.66170
S          0.82080        0.55270       -2.01420
C         -0.54550        0.06370        6.63680
C         -1.26980       -0.85380        7.37860
S         -1.85570       -2.18480        6.39260
C         -1.56890       -0.78860        8.76050
C         -2.32660       -1.69160        9.48450
C         -2.45690       -1.33240       10.82140
S         -3.33830       -2.21380       12.03940
C         -4.10150       -3.57630       11.07830
C         -4.97330       -4.39470       12.01120
C         -1.78720       -0.13240       11.14800
S         -0.99280        0.52660        9.73440
C         -1.79970        0.41210       12.43160
C         -1.21490        1.55760       12.91970
C         -0.40430        2.49970       12.14630
O         -0.10810        2.43510       10.96390
C         -0.00800        3.56510       13.08490
C          0.75530        4.68740       12.84380
C          0.99850        5.57510       13.89020
C          1.83800        6.79380       13.67150
C          0.46470        5.29820       15.14600
C         -0.30280        4.16900       15.39470
C         -0.54600        3.28770       14.35340
C         -1.30140        2.03730       14.28250
C         -1.95720        1.45190       15.33640
C         -2.68650        0.24560       15.29910
N         -3.30340       -0.72120       15.37410
C         -1.99000        1.98940       16.63960
N         -2.06120        2.37220       17.72010
H         -0.91640        0.76960      -12.51590
H          2.53930        4.17710      -14.62840
H          4.49010        5.64560      -14.99800
H          6.82620        6.29050      -14.46130
H          7.09310        3.10680      -11.63270
H          5.18310        1.61830      -11.25890
H         -2.42340       -0.81990      -11.10000
H         -5.23460       -0.56990       -7.99910
H         -4.16670        0.30910       -9.11600
H         -4.28840        1.43830       -6.85920
H         -3.67720       -0.04330       -6.10890
H         -2.65050        0.88150       -7.21010
H         -0.71070       -4.34840       -6.25280
H         -1.20720       -3.55600       -7.76000
H         -2.32910       -3.67100       -6.39930
H         -0.12030       -4.66010       -1.53850
H          1.72820       -6.22800       -1.29970
H          4.17480       -6.95690       -3.95470
H          3.52700       -7.48780       -2.39550
H          5.32560       -5.05270       -2.82650
H          5.83400       -6.59920       -2.13980
H          4.68050       -5.57930       -1.27220
H          3.35020       -4.87920       -5.00480
H          1.51970       -3.30270       -5.24440
H         -1.23930       -5.45250       -3.83010
H         -3.41360       -6.54030       -3.70640
H         -6.50170       -4.82990       -2.57290
H         -5.74660       -6.40660       -2.84780
H         -7.41910       -5.90470       -4.61840
H         -5.79530       -5.99970       -5.30880
H         -6.54440       -4.42760       -5.03790
H         -5.23260       -2.77890       -2.89740
H         -4.10430       -0.83510       -3.05500
H         -2.68610       -0.95860       -2.01940
H         -2.48800       -0.76150       -3.76010
H         -1.38600       -3.39920       -0.40410
H         -1.84050        1.16300        2.29570
H         -2.76680        3.41580        2.08500
H         -2.49840        5.81250        2.49940
H         -1.37820        6.39060        3.74150
H         -4.07320        5.05020        4.27730
H         -2.95490        5.61720        5.51690
H         -3.73150        6.77700        4.43310
H         -0.17000        4.78620        5.17750
H          0.77790        2.53480        5.37770
H          1.82060       -1.38640        5.33150
H          4.26610       -1.41740        5.28600
H          6.34180        1.22150        3.75090
H          6.34280       -0.15500        4.86280
H          6.02120       -0.33800        1.82750
H          6.02610       -1.70870        2.93620
H          7.48620       -0.73450        2.73260
H          4.26580        1.95640        2.67860
H          1.82230        2.00890        2.73990
H          0.79410        0.89350        0.94290
H         -0.11480        0.94040        7.08470
H         -2.75580       -2.56760        9.03340
H         -4.69240       -3.12770       10.27990
H         -3.29850       -4.18220       10.65890
H         -4.37880       -4.81110       12.82070
H         -5.75500       -3.77490       12.44370
H         -5.43680       -5.21060       11.46090
H         -2.37140       -0.18020       13.13730
H          1.15170        4.86630       11.85530
H          2.88470        6.56190       13.87210
H          1.53890        7.59820       14.33910
H          1.76190        7.13680       12.64250
H          0.65300        5.98720       15.95660
H         -0.69600        3.99940       16.38340
