171

C         -8.46130        2.17190        0.06740
C         -8.12970        3.46400        0.37850
C         -7.06950        3.86020        1.32980
O         -6.56350        3.20050        2.21540
C         -6.67570        5.22480        0.92920
C         -5.64120        5.98230        1.39680
C         -5.40810        7.25510        0.82910
C         -4.33430        8.06620        1.25060
C         -4.10620        9.28890        0.68150
C         -4.96940        9.73530       -0.32860
F         -4.73730       10.94220       -0.87270
C         -6.02720        8.99030       -0.77170
C         -6.26950        7.72420       -0.20480
C         -7.34120        6.92020       -0.66120
C         -7.53570        5.68340       -0.10780
C         -8.49590        4.62610       -0.40510
C         -9.58570        4.73090       -1.22940
C         -9.91250        5.89390       -1.95510
N        -10.21560        6.81340       -2.57220
C        -10.53710        3.70570       -1.41310
N        -11.35570        2.91860       -1.58270
C         -8.09610        1.00990        0.77830
C         -7.90850        0.78370        2.12700
C         -7.43430       -0.49630        2.42820
S         -7.03520       -1.09070        4.02650
C         -6.80000        0.42880        5.02000
C         -5.56220        1.20620        4.62210
C         -7.22970       -1.27990        1.28830
S         -7.75360       -0.44310       -0.13790
C         -6.45400       -2.46510        1.15450
C         -6.24410       -3.52320        2.02720
C         -7.15340       -3.88830        3.10720
C         -8.52730       -3.69600        2.96000
C         -9.38960       -4.06940        3.97170
C         -8.89780       -4.63020        5.13740
C         -7.53310       -4.83340        5.30060
C         -6.98300       -5.38170        6.58530
C         -6.63280       -4.23480        7.53550
C         -6.67300       -4.46530        4.27920
C         -5.08850       -4.25210        1.66370
S         -4.17200       -5.52030        2.45200
C         -2.92360       -5.34570        1.26190
C         -1.56880       -5.68030        1.08390
C         -0.64660       -6.32390        1.94100
C          0.76140       -6.10070        1.73780
N          1.50000       -6.65140        2.68740
S          0.51900       -7.39980        3.73580
N         -0.89140       -7.03650        3.02820
C          1.18410       -5.36640        0.60770
C          2.43510       -4.86260        0.20190
S          4.00240       -4.61760        0.88890
C          4.40340       -3.57070       -0.44960
C          5.46430       -2.66090       -0.66900
C          6.62260       -2.45990        0.19720
C          7.85950       -2.12940       -0.35450
C          8.95240       -1.93380        0.46670
C          8.82890       -2.07190        1.83880
C          7.60560       -2.40440        2.40610
C          7.46870       -2.61520        3.88630
C          7.56550       -4.10590        4.21740
C          6.51050       -2.59340        1.57700
C          5.27010       -1.95110       -1.83260
S          3.81890       -2.42420       -2.69150
C          3.39990       -3.51660       -1.41930
C          2.25710       -4.23520       -1.03430
N          0.93680       -4.33010       -1.42140
C          0.25680       -4.95050       -0.37890
C         -1.12400       -4.97440       -0.06800
N         -2.18150       -4.24650       -0.58060
C         -3.24690       -4.42730        0.25950
C         -4.47260       -3.79670        0.49650
S         -5.32620       -2.47120       -0.20110
C         -2.15690       -3.10080       -1.46050
C         -1.48900       -1.90250       -0.79020
C          0.55700       -4.44710       -2.81800
C          0.62040       -3.13050       -3.58800
C          5.86780       -0.69930       -2.21820
S          5.53390        0.68030       -1.23270
C          6.26980        1.74990       -2.39530
C          6.77620        1.03000       -3.48300
C          7.45990        1.62510       -4.64190
O          7.52490        2.82890       -4.83720
C          8.04830        0.63240       -5.54110
C          8.86140        0.94590       -6.60340
C          9.37400        2.27430       -7.02700
C         10.53300        2.72510       -6.13200
S          9.35200       -0.48060       -7.44920
C          8.44510       -1.51000       -6.39320
C          8.40000       -2.97470       -6.63430
C          7.19750       -3.33730       -7.51130
C          7.80230       -0.77700       -5.42780
C          6.96080       -1.34890       -4.37750
O          6.66840       -2.52980       -4.29200
C          6.52120       -0.35460       -3.38890
C          6.32350        3.15680       -2.27600
C          5.52860        3.97590       -1.52810
C          4.33750        3.56220       -0.76420
O          4.07580        2.45750       -0.32830
C          3.50620        4.77100       -0.64230
C          2.23110        4.88190       -0.16820
C          1.60190        6.14590       -0.17970
C          0.27310        6.30850        0.26300
C         -0.33290        7.53330        0.23660
C          0.39380        8.63730       -0.23000
F         -0.21880        9.83470       -0.23620
C          1.68380        8.53490       -0.67220
C          2.32070        7.27820       -0.66390
C          3.64630        7.13310       -1.13900
C          4.22940        5.89380       -1.13740
C          5.53500        5.42960       -1.59780
C          6.59360        6.21180       -1.96560
C          7.87690        5.71410       -2.28690
N          8.95110        5.38310       -2.51670
C          6.54800        7.62160       -1.99740
N          6.55280        8.76830       -2.03960
H         -8.95360        1.99380       -0.88210
H         -5.00140        5.61060        2.18360
H         -3.69090        7.70200        2.03860
H         -3.28540        9.92010        0.98450
H         -6.67110        9.36710       -1.55100
H         -7.96970        7.29700       -1.45230
H         -8.11950        1.53560        2.86240
H         -7.70480        1.03070        4.96000
H         -6.70890        0.03590        6.03370
H         -5.39340        2.00930        5.33660
H         -5.67860        1.64630        3.63580
H         -4.69180        0.55370        4.61930
H         -8.91440       -3.27100        2.04570
H        -10.45280       -3.92260        3.85050
H         -9.57840       -4.91560        5.92670
H         -6.08530       -5.96860        6.38260
H         -7.71980       -6.03250        7.05980
H         -6.22180       -4.62090        8.46530
H         -5.89890       -3.57700        7.07530
H         -7.52050       -3.64880        7.76340
H         -5.61030       -4.60420        4.40800
H          7.96410       -2.05570       -1.42680
H          9.90940       -1.68000        0.03470
H          9.69020       -1.92310        2.47400
H          8.25620       -2.07410        4.41420
H          6.50340       -2.23460        4.22610
H          7.46830       -4.26490        5.28870
H          6.77710       -4.65740        3.71040
H          8.52470       -4.50320        3.89260
H          5.55310       -2.83270        2.01460
H         -1.66010       -3.34620       -2.39510
H         -3.19770       -2.85810       -1.69040
H         -0.45470       -2.12780       -0.54060
H         -2.01720       -1.64550        0.12510
H         -1.51430       -1.04350       -1.45530
H          1.23120       -5.16760       -3.29830
H         -0.44550       -4.87850       -2.84960
H          0.08350       -3.23360       -4.52760
H          1.64960       -2.87020       -3.81340
H          0.18540       -2.31460       -3.01910
H          9.71060        2.21920       -8.06400
H          8.56790        3.00610       -6.94800
H         10.18740        2.85850       -5.11070
H         11.33530        1.99020       -6.14300
H         10.92290        3.67430       -6.48800
H          8.30160       -3.48840       -5.67630
H          9.32140       -3.29420       -7.12480
H          7.19390       -4.40540       -7.70940
H          7.24010       -2.80460       -8.45920
H          6.27530       -3.07610       -6.99910
H          7.00890        3.62350       -2.97630
H          1.70460        4.01370        0.19900
H         -0.26340        5.44240        0.62030
H         -1.35270        7.67360        0.55910
H          2.20950        9.40730       -1.02750
H          4.16100        8.00490       -1.51060
