
  xtb     02112208213D
 energy: -280.774758592062 gnorm: 0.000776335501 xtb: 6.4.1 (unknown)
164183  0     0  0            999 V2000
   -1.7412    7.8585   10.3002 C   0  0  0  0  0  0  0  0  0  0  0  0
   -2.1774    9.0673    9.8430 C   0  0  0  0  0  0  0  0  0  0  0  0
   -2.2265   10.2574   10.7312 C   0  0  0  0  0  0  0  0  0  0  0  0
   -2.1575   10.2698   11.9391 O   0  0  0  0  0  0  0  0  0  0  0  0
   -2.3092   11.4146    9.8135 C   0  0  0  0  0  0  0  0  0  0  0  0
   -2.2535   12.7480   10.0987 C   0  0  0  0  0  0  0  0  0  0  0  0
   -2.3160   13.6830    9.0400 C   0  0  0  0  0  0  0  0  0  0  0  0
   -2.2726   15.0713    9.2820 C   0  0  0  0  0  0  0  0  0  0  0  0
   -2.3254   15.9691    8.2520 C   0  0  0  0  0  0  0  0  0  0  0  0
   -2.4228   15.4891    6.9391 C   0  0  0  0  0  0  0  0  0  0  0  0
   -2.4716   16.3869    5.9374 F   0  0  0  0  0  0  0  0  0  0  0  0
   -2.4693   14.1541    6.6485 C   0  0  0  0  0  0  0  0  0  0  0  0
   -2.4212   13.2155    7.6973 C   0  0  0  0  0  0  0  0  0  0  0  0
   -2.4872   11.8281    7.4310 C   0  0  0  0  0  0  0  0  0  0  0  0
   -2.4447   10.9456    8.4747 C   0  0  0  0  0  0  0  0  0  0  0  0
   -2.5354    9.4913    8.5068 C   0  0  0  0  0  0  0  0  0  0  0  0
   -3.1337    8.7185    7.5439 C   0  0  0  0  0  0  0  0  0  0  0  0
   -3.5571    9.2049    6.2942 C   0  0  0  0  0  0  0  0  0  0  0  0
   -3.9104    9.5392    5.2536 N   0  0  0  0  0  0  0  0  0  0  0  0
   -3.4568    7.3596    7.7305 C   0  0  0  0  0  0  0  0  0  0  0  0
   -3.7795    6.2646    7.8578 N   0  0  0  0  0  0  0  0  0  0  0  0
   -1.2309    6.8096    9.5026 C   0  0  0  0  0  0  0  0  0  0  0  0
   -1.1782    5.4593    9.7807 C   0  0  0  0  0  0  0  0  0  0  0  0
   -0.6751    4.6964    8.7276 C   0  0  0  0  0  0  0  0  0  0  0  0
   -0.6041    2.9314    8.7722 S   0  0  0  0  0  0  0  0  0  0  0  0
   -2.2705    2.5401    8.1064 C   0  0  0  0  0  0  0  0  0  0  0  0
   -3.3933    3.0079    9.0069 C   0  0  0  0  0  0  0  0  0  0  0  0
   -0.2534    5.4505    7.6369 C   0  0  0  0  0  0  0  0  0  0  0  0
   -0.5186    7.1389    7.9370 S   0  0  0  0  0  0  0  0  0  0  0  0
    0.2376    5.0122    6.3869 C   0  0  0  0  0  0  0  0  0  0  0  0
    0.5745    5.8029    5.2944 C   0  0  0  0  0  0  0  0  0  0  0  0
    0.6551    7.2700    5.3022 C   0  0  0  0  0  0  0  0  0  0  0  0
    1.6528    7.9072    6.0366 C   0  0  0  0  0  0  0  0  0  0  0  0
    1.7349    9.2858    6.0267 C   0  0  0  0  0  0  0  0  0  0  0  0
    0.8380   10.0317    5.2814 C   0  0  0  0  0  0  0  0  0  0  0  0
   -0.1479    9.4111    4.5255 C   0  0  0  0  0  0  0  0  0  0  0  0
   -1.0714   10.2102    3.6536 C   0  0  0  0  0  0  0  0  0  0  0  0
   -0.6155   10.1438    2.1946 C   0  0  0  0  0  0  0  0  0  0  0  0
   -0.2304    8.0249    4.5441 C   0  0  0  0  0  0  0  0  0  0  0  0
    0.8548    5.0262    4.1652 C   0  0  0  0  0  0  0  0  0  0  0  0
    1.3014    5.4534    2.5306 S   0  0  0  0  0  0  0  0  0  0  0  0
    1.3452    3.7682    2.1393 C   0  0  0  0  0  0  0  0  0  0  0  0
    1.6405    2.9427    1.0452 C   0  0  0  0  0  0  0  0  0  0  0  0
    2.1455    3.2464   -0.2378 C   0  0  0  0  0  0  0  0  0  0  0  0
    2.4839    2.1680   -1.1207 C   0  0  0  0  0  0  0  0  0  0  0  0
    3.0014    2.5927   -2.2628 N   0  0  0  0  0  0  0  0  0  0  0  0
    3.0534    4.2100   -2.2320 S   0  0  0  0  0  0  0  0  0  0  0  0
    2.4185    4.4321   -0.7593 N   0  0  0  0  0  0  0  0  0  0  0  0
    2.1821    0.8455   -0.7285 C   0  0  0  0  0  0  0  0  0  0  0  0
    2.2505   -0.3620   -1.4409 C   0  0  0  0  0  0  0  0  0  0  0  0
    2.7552   -0.9364   -2.9936 S   0  0  0  0  0  0  0  0  0  0  0  0
    2.1642   -2.5218   -2.5627 C   0  0  0  0  0  0  0  0  0  0  0  0
    2.1076   -3.7305   -3.2723 C   0  0  0  0  0  0  0  0  0  0  0  0
    2.5988   -3.9041   -4.6496 C   0  0  0  0  0  0  0  0  0  0  0  0
    3.9346   -4.2026   -4.8840 C   0  0  0  0  0  0  0  0  0  0  0  0
    4.3769   -4.3774   -6.1817 C   0  0  0  0  0  0  0  0  0  0  0  0
    3.4965   -4.2550   -7.2404 C   0  0  0  0  0  0  0  0  0  0  0  0
    2.1615   -3.9431   -7.0213 C   0  0  0  0  0  0  0  0  0  0  0  0
    1.1913   -3.8616   -8.1641 C   0  0  0  0  0  0  0  0  0  0  0  0
    0.5369   -5.2256   -8.3916 C   0  0  0  0  0  0  0  0  0  0  0  0
    1.7228   -3.7656   -5.7184 C   0  0  0  0  0  0  0  0  0  0  0  0
    1.5226   -4.7346   -2.5238 C   0  0  0  0  0  0  0  0  0  0  0  0
    1.0382   -4.1744   -0.9232 S   0  0  0  0  0  0  0  0  0  0  0  0
    1.6187   -2.5855   -1.2760 C   0  0  0  0  0  0  0  0  0  0  0  0
    1.6736   -1.3446   -0.6314 C   0  0  0  0  0  0  0  0  0  0  0  0
    1.2887   -0.8048    0.5697 N   0  0  0  0  0  0  0  0  0  0  0  0
    1.5942    0.5497    0.5331 C   0  0  0  0  0  0  0  0  0  0  0  0
    1.4423    1.5988    1.4762 C   0  0  0  0  0  0  0  0  0  0  0  0
    1.0938    1.6180    2.8141 N   0  0  0  0  0  0  0  0  0  0  0  0
    1.0274    2.9275    3.2123 C   0  0  0  0  0  0  0  0  0  0  0  0
    0.7569    3.6462    4.3805 C   0  0  0  0  0  0  0  0  0  0  0  0
    0.3206    3.2945    6.0167 S   0  0  0  0  0  0  0  0  0  0  0  0
    1.1570    0.5700    3.8078 C   0  0  0  0  0  0  0  0  0  0  0  0
   -0.2207    0.2112    4.3624 C   0  0  0  0  0  0  0  0  0  0  0  0
    0.2531   -1.4822    1.3204 C   0  0  0  0  0  0  0  0  0  0  0  0
   -1.1319   -0.9877    0.9083 C   0  0  0  0  0  0  0  0  0  0  0  0
    1.2768   -6.0782   -2.9025 C   0  0  0  0  0  0  0  0  0  0  0  0
    0.7355   -7.0625   -2.0932 C   0  0  0  0  0  0  0  0  0  0  0  0
    0.5873   -8.2783   -2.7505 C   0  0  0  0  0  0  0  0  0  0  0  0
   -0.0085   -9.7642   -2.0541 S   0  0  0  0  0  0  0  0  0  0  0  0
   -0.9386   -9.1965   -0.5869 C   0  0  0  0  0  0  0  0  0  0  0  0
   -2.1810   -8.4165   -0.9685 C   0  0  0  0  0  0  0  0  0  0  0  0
    1.0168   -8.2411   -4.0932 C   0  0  0  0  0  0  0  0  0  0  0  0
    1.6642   -6.6641   -4.4878 S   0  0  0  0  0  0  0  0  0  0  0  0
    0.8276   -9.2985   -4.9841 C   0  0  0  0  0  0  0  0  0  0  0  0
    1.1816   -9.4041   -6.3085 C   0  0  0  0  0  0  0  0  0  0  0  0
    2.0366   -8.4682   -7.0399 C   0  0  0  0  0  0  0  0  0  0  0  0
    2.5143   -7.4191   -6.6378 O   0  0  0  0  0  0  0  0  0  0  0  0
    2.2378   -9.0492   -8.3784 C   0  0  0  0  0  0  0  0  0  0  0  0
    2.9934   -8.5135   -9.4188 C   0  0  0  0  0  0  0  0  0  0  0  0
    2.9893   -9.2761  -10.5619 C   0  0  0  0  0  0  0  0  0  0  0  0
    2.2852  -10.4829  -10.6613 C   0  0  0  0  0  0  0  0  0  0  0  0
    1.5357  -11.0217   -9.6419 C   0  0  0  0  0  0  0  0  0  0  0  0
    1.5260  -10.2616   -8.4689 C   0  0  0  0  0  0  0  0  0  0  0  0
    0.8393  -10.4928   -7.1967 C   0  0  0  0  0  0  0  0  0  0  0  0
   -0.0212  -11.5306   -6.9385 C   0  0  0  0  0  0  0  0  0  0  0  0
   -0.3180  -12.5659   -7.8481 C   0  0  0  0  0  0  0  0  0  0  0  0
   -0.6015  -13.4442   -8.5318 N   0  0  0  0  0  0  0  0  0  0  0  0
   -0.7650  -11.7090   -5.7534 C   0  0  0  0  0  0  0  0  0  0  0  0
   -1.4311  -11.9258   -4.8425 N   0  0  0  0  0  0  0  0  0  0  0  0
    2.7286  -10.7172  -12.0844 C   0  0  0  0  0  0  0  0  0  0  0  0
    3.8522  -11.7535  -12.2960 C   0  0  0  0  0  0  0  0  0  0  0  0
    4.3956  -11.4233  -13.6674 C   0  0  0  0  0  0  0  0  0  0  0  0
    5.0638  -10.2809  -13.5724 C   0  0  0  0  0  0  0  0  0  0  0  0
    4.9829   -9.8196  -12.1351 C   0  0  0  0  0  0  0  0  0  0  0  0
    4.9739  -11.1778  -11.4219 C   0  0  0  0  0  0  0  0  0  0  0  0
    3.5148   -9.3715  -11.9730 C   0  0  0  0  0  0  0  0  0  0  0  0
   -1.7196    7.7205   11.3757 H   0  0  0  0  0  0  0  0  0  0  0  0
   -2.1635   13.0888   11.1193 H   0  0  0  0  0  0  0  0  0  0  0  0
   -2.1971   15.4175   10.3018 H   0  0  0  0  0  0  0  0  0  0  0  0
   -2.2945   17.0338    8.4210 H   0  0  0  0  0  0  0  0  0  0  0  0
   -2.5521   13.8203    5.6259 H   0  0  0  0  0  0  0  0  0  0  0  0
   -2.5595   11.4929    6.4081 H   0  0  0  0  0  0  0  0  0  0  0  0
   -1.5430    5.0285   10.6956 H   0  0  0  0  0  0  0  0  0  0  0  0
   -2.3414    2.9889    7.1161 H   0  0  0  0  0  0  0  0  0  0  0  0
   -2.2563    1.4548    8.0120 H   0  0  0  0  0  0  0  0  0  0  0  0
   -3.4443    4.0939    9.0267 H   0  0  0  0  0  0  0  0  0  0  0  0
   -4.3405    2.6321    8.6256 H   0  0  0  0  0  0  0  0  0  0  0  0
   -3.2530    2.6355   10.0192 H   0  0  0  0  0  0  0  0  0  0  0  0
    2.3552    7.3183    6.6083 H   0  0  0  0  0  0  0  0  0  0  0  0
    2.5052    9.7815    6.5987 H   0  0  0  0  0  0  0  0  0  0  0  0
    0.9103   11.1101    5.2801 H   0  0  0  0  0  0  0  0  0  0  0  0
   -2.0884    9.8205    3.7336 H   0  0  0  0  0  0  0  0  0  0  0  0
   -1.0767   11.2522    3.9806 H   0  0  0  0  0  0  0  0  0  0  0  0
    0.3887   10.5504    2.0924 H   0  0  0  0  0  0  0  0  0  0  0  0
   -0.6028    9.1140    1.8458 H   0  0  0  0  0  0  0  0  0  0  0  0
   -1.2892   10.7168    1.5624 H   0  0  0  0  0  0  0  0  0  0  0  0
   -0.9998    7.5262    3.9722 H   0  0  0  0  0  0  0  0  0  0  0  0
    4.6150   -4.3061   -4.0514 H   0  0  0  0  0  0  0  0  0  0  0  0
    5.4138   -4.6166   -6.3658 H   0  0  0  0  0  0  0  0  0  0  0  0
    3.8483   -4.4019   -8.2514 H   0  0  0  0  0  0  0  0  0  0  0  0
    1.7120   -3.5548   -9.0735 H   0  0  0  0  0  0  0  0  0  0  0  0
    0.4187   -3.1212   -7.9457 H   0  0  0  0  0  0  0  0  0  0  0  0
    1.2960   -5.9749   -8.6007 H   0  0  0  0  0  0  0  0  0  0  0  0
   -0.1570   -5.1848   -9.2286 H   0  0  0  0  0  0  0  0  0  0  0  0
   -0.0047   -5.5373   -7.5012 H   0  0  0  0  0  0  0  0  0  0  0  0
    0.6856   -3.5276   -5.5266 H   0  0  0  0  0  0  0  0  0  0  0  0
    1.7763    0.9361    4.6348 H   0  0  0  0  0  0  0  0  0  0  0  0
    1.6672   -0.2921    3.3762 H   0  0  0  0  0  0  0  0  0  0  0  0
   -0.9194   -0.0388    3.5692 H   0  0  0  0  0  0  0  0  0  0  0  0
   -0.6253    1.0522    4.9185 H   0  0  0  0  0  0  0  0  0  0  0  0
   -0.1343   -0.6339    5.0398 H   0  0  0  0  0  0  0  0  0  0  0  0
    0.3965   -1.3596    2.3898 H   0  0  0  0  0  0  0  0  0  0  0  0
    0.3473   -2.5468    1.0913 H   0  0  0  0  0  0  0  0  0  0  0  0
   -1.2926   -1.1625   -0.1531 H   0  0  0  0  0  0  0  0  0  0  0  0
   -1.8985   -1.5181    1.4667 H   0  0  0  0  0  0  0  0  0  0  0  0
   -1.2290    0.0795    1.0974 H   0  0  0  0  0  0  0  0  0  0  0  0
    0.4768   -6.8794   -1.0654 H   0  0  0  0  0  0  0  0  0  0  0  0
   -1.2013  -10.1240   -0.0788 H   0  0  0  0  0  0  0  0  0  0  0  0
   -0.2658   -8.6250    0.0510 H   0  0  0  0  0  0  0  0  0  0  0  0
   -2.7356   -8.1450   -0.0725 H   0  0  0  0  0  0  0  0  0  0  0  0
   -2.8214   -9.0215   -1.6059 H   0  0  0  0  0  0  0  0  0  0  0  0
   -1.9207   -7.5065   -1.5052 H   0  0  0  0  0  0  0  0  0  0  0  0
    0.3078  -10.1426   -4.5443 H   0  0  0  0  0  0  0  0  0  0  0  0
    3.5193   -7.5790   -9.2970 H   0  0  0  0  0  0  0  0  0  0  0  0
    0.9998  -11.9510   -9.7378 H   0  0  0  0  0  0  0  0  0  0  0  0
    1.9323  -10.7957  -12.8223 H   0  0  0  0  0  0  0  0  0  0  0  0
    3.5587  -12.7849  -12.1207 H   0  0  0  0  0  0  0  0  0  0  0  0
    4.1976  -12.0063  -14.5476 H   0  0  0  0  0  0  0  0  0  0  0  0
    5.5351   -9.7189  -14.3574 H   0  0  0  0  0  0  0  0  0  0  0  0
    5.7209   -9.0895  -11.8133 H   0  0  0  0  0  0  0  0  0  0  0  0
    5.9121  -11.7156  -11.5492 H   0  0  0  0  0  0  0  0  0  0  0  0
    4.7270  -11.1217  -10.3634 H   0  0  0  0  0  0  0  0  0  0  0  0
    3.2435   -8.5538  -12.6383 H   0  0  0  0  0  0  0  0  0  0  0  0
  1  2  2  0  0  0  0
  2  3  1  0  0  0  0
  3  4  2  0  0  0  0
  3  5  1  0  0  0  0
  5  6  2  0  0  0  0
  6  7  1  0  0  0  0
  7  8  2  0  0  0  0
  8  9  1  0  0  0  0
  9 10  2  0  0  0  0
 10 11  1  0  0  0  0
 10 12  1  0  0  0  0
 12 13  2  0  0  0  0
 13 14  1  0  0  0  0
 14 15  2  0  0  0  0
 15 16  1  0  0  0  0
 16 17  2  0  0  0  0
 17 18  1  0  0  0  0
 18 19  3  0  0  0  0
 17 20  1  0  0  0  0
 20 21  3  0  0  0  0
  1 22  1  0  0  0  0
 22 23  2  0  0  0  0
 23 24  1  0  0  0  0
 24 25  1  0  0  0  0
 25 26  1  0  0  0  0
 26 27  1  0  0  0  0
 24 28  2  0  0  0  0
 28 29  1  0  0  0  0
 28 30  1  0  0  0  0
 30 31  2  0  0  0  0
 31 32  1  0  0  0  0
 32 33  2  0  0  0  0
 33 34  1  0  0  0  0
 34 35  2  0  0  0  0
 35 36  1  0  0  0  0
 36 37  1  0  0  0  0
 37 38  1  0  0  0  0
 36 39  2  0  0  0  0
 31 40  1  0  0  0  0
 40 41  1  0  0  0  0
 41 42  1  0  0  0  0
 42 43  1  0  0  0  0
 43 44  1  0  0  0  0
 44 45  1  0  0  0  0
 45 46  2  0  0  0  0
 46 47  1  0  0  0  0
 47 48  1  0  0  0  0
 45 49  1  0  0  0  0
 49 50  1  0  0  0  0
 50 51  1  0  0  0  0
 51 52  1  0  0  0  0
 52 53  1  0  0  0  0
 53 54  1  0  0  0  0
 54 55  2  0  0  0  0
 55 56  1  0  0  0  0
 56 57  2  0  0  0  0
 57 58  1  0  0  0  0
 58 59  1  0  0  0  0
 59 60  1  0  0  0  0
 58 61  2  0  0  0  0
 53 62  2  0  0  0  0
 62 63  1  0  0  0  0
 63 64  1  0  0  0  0
 64 65  1  0  0  0  0
 65 66  1  0  0  0  0
 66 67  1  0  0  0  0
 67 68  1  0  0  0  0
 68 69  1  0  0  0  0
 69 70  1  0  0  0  0
 70 71  1  0  0  0  0
 71 72  1  0  0  0  0
 69 73  1  0  0  0  0
 73 74  1  0  0  0  0
 66 75  1  0  0  0  0
 75 76  1  0  0  0  0
 62 77  1  0  0  0  0
 77 78  2  0  0  0  0
 78 79  1  0  0  0  0
 79 80  1  0  0  0  0
 80 81  1  0  0  0  0
 81 82  1  0  0  0  0
 79 83  2  0  0  0  0
 83 84  1  0  0  0  0
 83 85  1  0  0  0  0
 85 86  2  0  0  0  0
 86 87  1  0  0  0  0
 87 88  2  0  0  0  0
 87 89  1  0  0  0  0
 89 90  2  0  0  0  0
 90 91  1  0  0  0  0
 91 92  2  0  0  0  0
 92 93  1  0  0  0  0
 93 94  2  0  0  0  0
 94 95  1  0  0  0  0
 95 96  2  0  0  0  0
 96 97  1  0  0  0  0
 97 98  3  0  0  0  0
 96 99  1  0  0  0  0
 99100  3  0  0  0  0
 92101  1  0  0  0  0
101102  1  0  0  0  0
102103  1  0  0  0  0
103104  2  0  0  0  0
104105  1  0  0  0  0
105106  1  0  0  0  0
105107  1  0  0  0  0
 16  2  1  0  0  0  0
 29 22  1  0  0  0  0
 72 30  1  0  0  0  0
 84 77  1  0  0  0  0
 95 86  1  0  0  0  0
107101  1  0  0  0  0
 15  5  1  0  0  0  0
 39 32  1  0  0  0  0
 71 40  2  0  0  0  0
 94 89  1  0  0  0  0
106102  1  0  0  0  0
 13  7  1  0  0  0  0
 70 42  2  0  0  0  0
107 91  1  0  0  0  0
 68 43  2  0  0  0  0
 48 44  2  0  0  0  0
 67 49  2  0  0  0  0
 65 50  2  0  0  0  0
 64 52  2  0  0  0  0
 61 54  1  0  0  0  0
  1108  1  0  0  0  0
  6109  1  0  0  0  0
  8110  1  0  0  0  0
  9111  1  0  0  0  0
 12112  1  0  0  0  0
 14113  1  0  0  0  0
 23114  1  0  0  0  0
 26115  1  0  0  0  0
 26116  1  0  0  0  0
 27117  1  0  0  0  0
 27118  1  0  0  0  0
 27119  1  0  0  0  0
 33120  1  0  0  0  0
 34121  1  0  0  0  0
 35122  1  0  0  0  0
 37123  1  0  0  0  0
 37124  1  0  0  0  0
 38125  1  0  0  0  0
 38126  1  0  0  0  0
 38127  1  0  0  0  0
 39128  1  0  0  0  0
 55129  1  0  0  0  0
 56130  1  0  0  0  0
 57131  1  0  0  0  0
 59132  1  0  0  0  0
 59133  1  0  0  0  0
 60134  1  0  0  0  0
 60135  1  0  0  0  0
 60136  1  0  0  0  0
 61137  1  0  0  0  0
 73138  1  0  0  0  0
 73139  1  0  0  0  0
 74140  1  0  0  0  0
 74141  1  0  0  0  0
 74142  1  0  0  0  0
 75143  1  0  0  0  0
 75144  1  0  0  0  0
 76145  1  0  0  0  0
 76146  1  0  0  0  0
 76147  1  0  0  0  0
 78148  1  0  0  0  0
 81149  1  0  0  0  0
 81150  1  0  0  0  0
 82151  1  0  0  0  0
 82152  1  0  0  0  0
 82153  1  0  0  0  0
 85154  1  0  0  0  0
 90155  1  0  0  0  0
 93156  1  0  0  0  0
101157  1  0  0  0  0
102158  1  0  0  0  0
103159  1  0  0  0  0
104160  1  0  0  0  0
105161  1  0  0  0  0
106162  1  0  0  0  0
106163  1  0  0  0  0
107164  1  0  0  0  0
M  END
