169

C          7.08690        1.88090       -7.47690
C          8.34300        1.52830       -7.90310
C          9.65000        1.97310       -7.37330
O          9.89500        2.88270       -6.60410
C         10.64820        1.05300       -7.94970
C         11.99030        0.99900       -7.70840
C         12.76680        0.01200       -8.35540
C         14.15580       -0.09380       -8.13970
C         14.89460       -1.05860       -8.76630
C         14.24910       -1.94940       -9.63440
F         14.99260       -2.89320      -10.24100
C         12.90540       -1.89020       -9.87970
C         12.12910       -0.90250       -9.24310
C         10.73650       -0.81680       -9.47750
C         10.00580        0.15010       -8.84070
C          8.58420        0.47810       -8.87630
C          7.67170       -0.07230       -9.74020
C          7.98230       -1.08390      -10.67250
N          8.16570       -1.90930      -11.44930
C          6.31930        0.30910       -9.86640
N          5.21470        0.56720      -10.04930
C          6.66350        2.86330       -6.56610
C          7.31320        3.92310       -5.95840
C          6.51380        4.65230       -5.08000
S          7.08320        5.96600       -4.06710
C          8.87410        5.60840       -3.92620
C          9.15960        4.30470       -3.20900
C          5.19900        4.17950       -5.01760
S          4.98400        2.81470       -6.06340
C          4.12540        4.59860       -4.18650
C          3.79120        5.86180       -3.71980
C          4.34810        7.11440       -4.22130
C          4.55760        8.19200       -3.36450
C          5.06270        9.37760       -3.86100
C          5.35470        9.50510       -5.20760
C          5.13970        8.44550       -6.08050
C          5.40460        8.59520       -7.55100
C          4.16630        9.14200       -8.26380
C          4.63080        7.25950       -5.57790
C          2.72860        5.79160       -2.79550
S          1.88510        7.00110       -1.85640
C          0.87410        5.76160       -1.19490
C         -0.19160        5.62090       -0.28620
C         -0.99640        6.54480        0.41950
C         -2.11980        6.06210        1.18300
N         -2.81770        7.04710        1.72490
S         -2.12640        8.45400        1.32390
N         -0.90660        7.86490        0.43820
C         -2.30950        4.66850        1.32970
C         -3.18800        3.88890        2.10360
S         -4.55480        4.08990        3.14700
C         -4.59420        2.35770        3.39520
C         -5.41290        1.52190        4.17510
C         -6.40570        2.03180        5.11780
C         -7.24990        3.07970        4.76320
C         -8.15980        3.56940        5.68030
C         -8.23240        3.02820        6.95150
C         -7.39070        1.98770        7.32640
C         -7.43290        1.42700        8.71910
C         -6.44950        2.16980        9.62550
C         -6.47680        1.50400        6.40500
C         -5.04030        0.18840        4.03540
S         -3.60940       -0.01520        3.04100
C         -3.59030        1.67740        2.69860
C         -2.78540        2.55440        1.96640
N         -1.70410        2.47010        1.12450
C         -1.42200        3.75490        0.70250
C         -0.47540        4.23240       -0.22620
N          0.33750        3.55110       -1.11510
C          1.16700        4.48470       -1.68750
C          2.22480        4.50310       -2.60020
S          3.07350        3.33840       -3.54750
C         -0.01760        2.34720       -1.84190
C         -0.59440        2.67930       -3.21780
C         -0.76450        1.37320        1.23860
C         -0.22090        1.25040        2.66190
C         -5.67920       -0.99910        4.51350
C         -7.04480       -1.12820        4.75190
F         -7.88800       -0.11290        4.50310
C         -7.60960       -2.33210        5.17180
F         -8.93930       -2.37420        5.34980
C         -6.87690       -3.50160        5.32130
C         -5.47280       -3.40930        5.09760
N         -4.68140       -4.46500        5.33730
C         -3.40490       -4.39690        5.06410
C         -2.55720       -5.59390        5.37730
C         -3.37500       -6.78110        5.86750
C         -2.84740       -3.20350        4.51960
N         -3.59520       -2.13880        4.38790
C         -4.90240       -2.18850        4.67390
C         -1.42610       -3.07570        4.06760
C         -1.32300       -3.44940        2.58680
C         -7.48380       -4.73710        5.71820
C         -7.11470       -5.94560        5.21750
C         -6.41320       -6.12770        3.91630
O         -6.02640       -5.27530        3.14650
C         -6.41340       -7.58380        3.67390
C         -5.90450       -8.26620        2.60650
C         -6.03810       -9.67150        2.55820
C         -5.52820      -10.42500        1.48120
C         -5.67330      -11.78380        1.44110
C         -6.33950      -12.42590        2.49400
F         -6.47130      -13.76350        2.43710
C         -6.85180      -11.74350        3.56210
C         -6.71180      -10.34300        3.61980
C         -7.23230       -9.60930        4.71090
C         -7.08110       -8.24830        4.74100
C         -7.49450       -7.25080        5.72130
C         -8.04160       -7.51190        6.94950
C         -8.35600       -8.80520        7.41580
N         -8.63550       -9.83230        7.84560
C         -8.32590       -6.53240        7.92480
N         -8.54990       -5.79570        8.77630
H          6.26970        1.28390       -7.86530
H         12.45400        1.69870       -7.02890
H         14.63070        0.60370       -7.46600
H         15.95780       -1.15360       -8.61170
H         12.44180       -2.59170      -10.55560
H         10.28410       -1.52680      -10.15070
H          8.34730        4.13270       -6.15330
H          9.31550        5.63190       -4.92080
H          9.24620        6.45960       -3.35570
H         10.23250        4.19620       -3.06700
H          8.80670        3.45660       -3.79110
H          8.67300        4.29070       -2.23620
H          4.35020        8.08870       -2.31080
H          5.23340       10.20790       -3.19200
H          5.75360       10.43480       -5.58720
H          6.24160        9.27850       -7.70760
H          5.66900        7.62640       -7.97980
H          3.89310       10.11280       -7.85650
H          3.32430        8.46660       -8.13030
H          4.35770        9.25260       -9.32850
H          4.43930        6.43590       -6.25140
H         -7.20920        3.48780        3.76510
H         -8.82080        4.37580        5.39950
H         -8.95090        3.41270        7.66090
H         -7.17430        0.36600        8.69970
H         -8.44130        1.52420        9.12510
H         -6.69980        3.22740        9.66860
H         -6.48050        1.76360       10.63380
H         -5.43550        2.07450        9.24320
H         -5.80330        0.70630        6.68990
H         -0.77160        1.80130       -1.27800
H          0.87860        1.72840       -1.95480
H         -1.45790        3.33300       -3.11430
H          0.14360        3.17200       -3.84410
H         -0.90670        1.76300       -3.71070
H         -1.27260        0.44530        0.95700
H          0.07340        1.55240        0.56760
H          0.24240        2.18580        2.96840
H          0.52670        0.46260        2.69580
H         -1.01380        1.00530        3.36230
H         -1.99860       -5.87460        4.48080
H         -1.82680       -5.30790        6.14080
H         -2.71840       -7.60930        6.12240
H         -3.95400       -6.50470        6.74410
H         -4.06450       -7.10680        5.09300
H         -0.77140       -3.71250        4.66250
H         -1.12330       -2.03540        4.19130
H         -1.64800       -4.47410        2.42180
H         -1.95520       -2.78990        1.99780
H         -0.29580       -3.35090        2.24510
H         -8.27770       -4.66960        6.45140
H         -5.40520       -7.73860        1.80730
H         -5.02040       -9.90780        0.68090
H         -5.29180      -12.37460        0.62350
H         -7.35860      -12.27070        4.35510
H         -7.74610      -10.14440        5.49340
