157

C         -3.26560       -8.89320        1.62550
C         -3.59530      -10.21290        1.77850
C         -4.93650      -10.83550        1.67990
O         -6.02380      -10.29810        1.65480
C         -4.69300      -12.28860        1.59510
C         -5.60230      -13.29080        1.41820
C         -5.14910      -14.62690        1.34860
C         -6.04320      -15.70120        1.16420
C         -5.59110      -16.98950        1.09310
C         -4.21550      -17.23250        1.20700
F         -3.78940      -18.50710        1.13360
C         -3.30590      -16.22810        1.38740
C         -3.75410      -14.89480        1.46370
C         -2.83670      -13.83480        1.65150
C         -3.30040      -12.54790        1.71920
C         -2.61160      -11.27470        1.90380
C         -1.28240      -11.13600        2.21140
C         -0.62430       -9.92220        2.50140
N         -0.01530       -8.98670        2.77290
C         -0.38310      -12.21680        2.32540
N          0.40240      -13.04810        2.42620
C         -4.07510       -7.74920        1.48570
C         -5.41550       -7.49610        1.70110
C         -5.79320       -6.17240        1.45910
S         -7.45180       -5.67720        1.78040
C         -7.22070       -4.11120        2.71170
C         -8.58130       -3.61400        3.15700
C         -4.74600       -5.37470        0.99990
S         -3.26070       -6.27730        0.98900
C         -4.70930       -4.02530        0.54830
C         -5.65380       -3.28910       -0.15000
C         -6.92720       -3.78450       -0.67130
C         -7.01170       -5.01770       -1.31160
C         -8.22160       -5.44250       -1.82390
C         -9.34910       -4.64820       -1.70610
C         -9.28060       -3.41200       -1.07700
C        -10.47990       -2.51290       -0.99350
C        -10.45500       -1.49510       -2.13580
C         -8.06290       -2.98840       -0.56840
C         -5.18940       -1.98480       -0.41120
S         -5.88620       -0.65490       -1.30480
C         -4.42180        0.23490       -1.07030
C         -3.83730        1.43810       -1.49410
C         -4.26010        2.40180       -2.43720
C         -3.31840        3.38650       -2.89370
N         -3.81930        4.16080       -3.84280
S         -5.34420        3.70080       -4.13150
N         -5.42440        2.48920       -3.06000
C         -2.04950        3.45740       -2.27680
C         -0.96410        4.33290       -2.45060
S         -0.47180        5.62050       -3.49690
C          1.01220        5.76170       -2.58310
C          2.14250        6.58490       -2.73520
C          2.26440        7.52280       -3.85480
C          1.23340        8.41640       -4.12390
C          1.33080        9.27500       -5.20380
C          2.44920        9.25050       -6.01610
C          3.48540        8.35640       -5.76800
C          4.72560        8.37710       -6.61440
C          5.60360        9.57320       -6.23800
C          3.37600        7.48910       -4.69290
C          3.08070        6.33610       -1.74130
S          2.57480        5.04720       -0.65250
C          1.09630        4.85710       -1.52080
C         -0.02790        4.02720       -1.45790
N         -0.47250        2.97650       -0.69590
C         -1.69970        2.58870       -1.20700
C         -2.53470        1.47910       -0.92530
N         -2.32430        0.31200       -0.21640
C         -3.46190       -0.44520       -0.31330
C         -3.89670       -1.72610        0.05080
S         -3.23420       -3.10820        0.84860
C         -1.08720       -0.28180        0.24050
C         -1.05660       -0.45010        1.75930
C          0.00710        2.83550        0.66240
C         -0.33990        4.06580        1.50060
C          4.31190        6.98020       -1.45120
C          4.89860        8.06790       -2.07730
C          6.13350        8.39610       -1.53960
S          7.10720        9.68670       -2.25100
C          8.54380        8.74190       -2.89820
C          8.12290        7.56350       -3.75120
C          6.50090        7.62560       -0.42370
S          5.28730        6.40190       -0.13260
C          7.63080        7.88820        0.35810
C          8.04410        7.31790        1.53620
C          7.32400        6.28870        2.29500
O          6.35530        5.64670        1.92060
C          8.00130        6.19330        3.59960
C          9.09900        7.05200        3.60950
C          9.90330        7.16210        4.75110
C          9.59050        6.40910        5.85330
C          8.48930        5.52640        5.87170
C          8.17730        4.75430        7.00940
C          7.10310        3.90810        7.00450
C          6.29140        3.79430        5.86410
C          6.56150        4.52600        4.74110
C          7.66290        5.40610        4.71670
C          9.19930        7.71580        2.31140
C         10.24730        8.49690        1.89550
C         11.35350        8.84790        2.69630
N         12.27970        9.17980        3.28850
C         10.40520        9.00220        0.58960
N         10.62210        9.40480       -0.46470
H         -2.20670       -8.67200        1.55090
H         -6.65470      -13.06570        1.32960
H         -7.09830      -15.48870        1.07880
H         -6.26130      -17.82260        0.95170
H         -2.25400      -16.45210        1.47250
H         -1.78770      -14.07080        1.72970
H         -6.10980       -8.24330        2.03810
H         -6.57530       -4.33290        3.56150
H         -6.73720       -3.38640        2.05970
H         -9.21390       -3.43240        2.29080
H         -9.06820       -4.35120        3.79080
H         -8.47280       -2.68700        3.71600
H         -6.12930       -5.63180       -1.41450
H         -8.28600       -6.40070       -2.31730
H        -10.29210       -4.99110       -2.10650
H        -10.47910       -1.98000       -0.03990
H        -11.39470       -3.10520       -1.05360
H         -9.55020       -0.89330       -2.08730
H        -11.31690       -0.83470       -2.07570
H        -10.47430       -2.00540       -3.09610
H         -7.99990       -2.03310       -0.06660
H          0.36710        8.44550       -3.48070
H          0.52930        9.96860       -5.40970
H          2.52050        9.92660       -6.85560
H          4.45380        8.45010       -7.66970
H          5.28730        7.45170       -6.47090
H          6.52180        9.56960       -6.82110
H          5.07790       10.50570       -6.42870
H          5.86060        9.54410       -5.18110
H          4.15890        6.76820       -4.50210
H         -0.25140        0.31960       -0.11800
H         -1.00330       -1.27330       -0.21940
H         -1.27150        0.48450        2.27310
H         -1.79840       -1.18050        2.07020
H         -0.07730       -0.80380        2.06870
H          1.09300        2.70230        0.63180
H         -0.45250        1.96590        1.11850
H         -1.41640        4.22480        1.50800
H          0.00010        3.91810        2.52180
H          0.14090        4.95550        1.10380
H          4.46310        8.60690       -2.89690
H          9.17380        8.43600       -2.06520
H          9.08100        9.48510       -3.48580
H          9.00680        7.09020       -4.17390
H          7.58810        6.82430       -3.15690
H          7.47830        7.88720       -4.56500
H          8.21740        8.72320       -0.00830
H         10.74860        7.82970        4.77200
H         10.19900        6.48640        6.74280
H          8.80360        4.84440        7.88520
H          6.87090        3.32030        7.88030
H          5.44760        3.12040        5.88230
H          5.94460        4.44660        3.85990
