
  xtb     02042222343D
 energy: -276.545705801974 gnorm: 0.000442362098 xtb: 6.4.1 (unknown)
157174  0     0  0            999 V2000
   -6.3101    2.4538   -5.0542 C   0  0  0  0  0  0  0  0  0  0  0  0
   -4.9870    2.4717   -5.4266 C   0  0  0  0  0  0  0  0  0  0  0  0
   -3.8497    2.3417   -4.5125 C   0  0  0  0  0  0  0  0  0  0  0  0
   -3.8695    2.3516   -3.2919 O   0  0  0  0  0  0  0  0  0  0  0  0
   -2.6541    2.1880   -5.3541 C   0  0  0  0  0  0  0  0  0  0  0  0
   -1.3653    1.9584   -4.9696 C   0  0  0  0  0  0  0  0  0  0  0  0
   -0.3737    1.7844   -5.9602 C   0  0  0  0  0  0  0  0  0  0  0  0
    0.9692    1.5227   -5.6203 C   0  0  0  0  0  0  0  0  0  0  0  0
    1.9161    1.3286   -6.5873 C   0  0  0  0  0  0  0  0  0  0  0  0
    1.5301    1.3971   -7.9325 C   0  0  0  0  0  0  0  0  0  0  0  0
    2.4728    1.1861   -8.8696 F   0  0  0  0  0  0  0  0  0  0  0  0
    0.2440    1.6593   -8.3168 C   0  0  0  0  0  0  0  0  0  0  0  0
   -0.7450    1.8596   -7.3340 C   0  0  0  0  0  0  0  0  0  0  0  0
   -2.0886    2.1180   -7.6997 C   0  0  0  0  0  0  0  0  0  0  0  0
   -3.0343    2.2793   -6.7224 C   0  0  0  0  0  0  0  0  0  0  0  0
   -4.4767    2.5192   -6.7840 C   0  0  0  0  0  0  0  0  0  0  0  0
   -5.1855    2.7667   -7.9312 C   0  0  0  0  0  0  0  0  0  0  0  0
   -6.5679    3.0375   -7.9976 C   0  0  0  0  0  0  0  0  0  0  0  0
   -7.6851    3.2681   -8.1328 N   0  0  0  0  0  0  0  0  0  0  0  0
   -4.6087    2.8104   -9.2177 C   0  0  0  0  0  0  0  0  0  0  0  0
   -4.1999    2.8562  -10.2896 N   0  0  0  0  0  0  0  0  0  0  0  0
   -6.8744    2.2828   -3.7806 C   0  0  0  0  0  0  0  0  0  0  0  0
   -8.2431    2.1513   -3.5612 C   0  0  0  0  0  0  0  0  0  0  0  0
   -8.5988    1.8772   -2.2423 C   0  0  0  0  0  0  0  0  0  0  0  0
  -10.2905    1.7036   -1.7976 S   0  0  0  0  0  0  0  0  0  0  0  0
  -10.3309    2.4209   -0.1101 C   0  0  0  0  0  0  0  0  0  0  0  0
  -11.7215    2.9588    0.1636 C   0  0  0  0  0  0  0  0  0  0  0  0
   -7.4881    1.7835   -1.4072 C   0  0  0  0  0  0  0  0  0  0  0  0
   -6.0129    2.1202   -2.2723 S   0  0  0  0  0  0  0  0  0  0  0  0
   -7.2954    1.3911   -0.0487 C   0  0  0  0  0  0  0  0  0  0  0  0
   -7.7823    0.3175    0.6828 C   0  0  0  0  0  0  0  0  0  0  0  0
   -8.8384   -0.6042    0.2645 C   0  0  0  0  0  0  0  0  0  0  0  0
   -9.7613   -1.0605    1.2048 C   0  0  0  0  0  0  0  0  0  0  0  0
  -10.7697   -1.9214    0.8192 C   0  0  0  0  0  0  0  0  0  0  0  0
  -10.8664   -2.3394   -0.4970 C   0  0  0  0  0  0  0  0  0  0  0  0
   -9.9456   -1.9100   -1.4434 C   0  0  0  0  0  0  0  0  0  0  0  0
  -10.0135   -2.3914   -2.8634 C   0  0  0  0  0  0  0  0  0  0  0  0
   -9.1328   -3.6275   -3.0545 C   0  0  0  0  0  0  0  0  0  0  0  0
   -8.9322   -1.0496   -1.0495 C   0  0  0  0  0  0  0  0  0  0  0  0
   -7.0423    0.1366    1.8725 C   0  0  0  0  0  0  0  0  0  0  0  0
   -6.9707   -1.1744    3.0351 S   0  0  0  0  0  0  0  0  0  0  0  0
   -5.4933   -0.5183    3.6690 C   0  0  0  0  0  0  0  0  0  0  0  0
   -4.4173   -0.8927    4.5003 C   0  0  0  0  0  0  0  0  0  0  0  0
   -4.1717   -2.0131    5.3267 C   0  0  0  0  0  0  0  0  0  0  0  0
   -2.8587   -2.1992    5.8914 C   0  0  0  0  0  0  0  0  0  0  0  0
   -2.7836   -3.2879    6.6388 N   0  0  0  0  0  0  0  0  0  0  0  0
   -4.2291   -4.0168    6.6395 S   0  0  0  0  0  0  0  0  0  0  0  0
   -5.0090   -2.9758    5.6762 N   0  0  0  0  0  0  0  0  0  0  0  0
   -1.8164   -1.3167    5.5221 C   0  0  0  0  0  0  0  0  0  0  0  0
   -0.4150   -1.4304    5.5868 C   0  0  0  0  0  0  0  0  0  0  0  0
    0.7957   -2.5740    6.0775 S   0  0  0  0  0  0  0  0  0  0  0  0
    2.0022   -1.6705    5.1820 C   0  0  0  0  0  0  0  0  0  0  0  0
    3.3500   -1.9151    4.8375 C   0  0  0  0  0  0  0  0  0  0  0  0
    4.1489   -3.0554    5.2825 C   0  0  0  0  0  0  0  0  0  0  0  0
    3.5844   -4.3240    5.3877 C   0  0  0  0  0  0  0  0  0  0  0  0
    4.3686   -5.3965    5.7698 C   0  0  0  0  0  0  0  0  0  0  0  0
    5.7137   -5.2196    6.0440 C   0  0  0  0  0  0  0  0  0  0  0  0
    6.2903   -3.9574    5.9620 C   0  0  0  0  0  0  0  0  0  0  0  0
    7.7585   -3.7556    6.2037 C   0  0  0  0  0  0  0  0  0  0  0  0
    8.5191   -3.7605    4.8755 C   0  0  0  0  0  0  0  0  0  0  0  0
    5.4965   -2.8842    5.5904 C   0  0  0  0  0  0  0  0  0  0  0  0
    3.8349   -0.9227    4.0006 C   0  0  0  0  0  0  0  0  0  0  0  0
    2.6658    0.3493    3.6994 S   0  0  0  0  0  0  0  0  0  0  0  0
    1.4831   -0.5044    4.6164 C   0  0  0  0  0  0  0  0  0  0  0  0
    0.1090   -0.3732    4.8375 C   0  0  0  0  0  0  0  0  0  0  0  0
   -0.8994    0.4032    4.3390 N   0  0  0  0  0  0  0  0  0  0  0  0
   -2.0924   -0.1645    4.7351 C   0  0  0  0  0  0  0  0  0  0  0  0
   -3.4203    0.1053    4.3320 C   0  0  0  0  0  0  0  0  0  0  0  0
   -3.9097    1.1087    3.5137 N   0  0  0  0  0  0  0  0  0  0  0  0
   -5.1389    0.6933    3.0703 C   0  0  0  0  0  0  0  0  0  0  0  0
   -6.0117    1.0607    2.0441 C   0  0  0  0  0  0  0  0  0  0  0  0
   -5.9645    2.2131    0.7651 S   0  0  0  0  0  0  0  0  0  0  0  0
   -3.5963    2.5220    3.5709 C   0  0  0  0  0  0  0  0  0  0  0  0
   -4.7127    3.3096    4.2555 C   0  0  0  0  0  0  0  0  0  0  0  0
   -0.6151    1.3603    3.2939 C   0  0  0  0  0  0  0  0  0  0  0  0
   -0.0397    2.6606    3.8519 C   0  0  0  0  0  0  0  0  0  0  0  0
    5.0046   -0.9021    3.1811 C   0  0  0  0  0  0  0  0  0  0  0  0
    5.6441   -1.9741    2.6019 C   0  0  0  0  0  0  0  0  0  0  0  0
    6.5706   -1.6049    1.6154 C   0  0  0  0  0  0  0  0  0  0  0  0
    7.6641   -2.6777    0.7890 S   0  0  0  0  0  0  0  0  0  0  0  0
    6.9552   -4.3311    1.1049 C   0  0  0  0  0  0  0  0  0  0  0  0
    5.6625   -4.5438    0.3428 C   0  0  0  0  0  0  0  0  0  0  0  0
    6.6547   -0.2245    1.4366 C   0  0  0  0  0  0  0  0  0  0  0  0
    5.6327    0.6045    2.5924 S   0  0  0  0  0  0  0  0  0  0  0  0
    7.3389    0.5575    0.4841 C   0  0  0  0  0  0  0  0  0  0  0  0
    7.4378    0.2810   -0.8537 C   0  0  0  0  0  0  0  0  0  0  0  0
    6.5481   -0.6621   -1.5615 C   0  0  0  0  0  0  0  0  0  0  0  0
    5.8406   -1.5243   -1.0800 O   0  0  0  0  0  0  0  0  0  0  0  0
    6.6048   -0.2584   -2.9809 C   0  0  0  0  0  0  0  0  0  0  0  0
    5.8595   -0.7157   -4.0285 C   0  0  0  0  0  0  0  0  0  0  0  0
    6.0381   -0.1389   -5.3070 C   0  0  0  0  0  0  0  0  0  0  0  0
    5.2741   -0.5522   -6.4178 C   0  0  0  0  0  0  0  0  0  0  0  0
    5.4482    0.0197   -7.6485 C   0  0  0  0  0  0  0  0  0  0  0  0
    6.4106    1.0275   -7.7952 C   0  0  0  0  0  0  0  0  0  0  0  0
    6.5783    1.5739   -9.0120 F   0  0  0  0  0  0  0  0  0  0  0  0
    7.1759    1.4676   -6.7504 C   0  0  0  0  0  0  0  0  0  0  0  0
    7.0035    0.8957   -5.4754 C   0  0  0  0  0  0  0  0  0  0  0  0
    7.7635    1.3482   -4.3705 C   0  0  0  0  0  0  0  0  0  0  0  0
    7.5597    0.7858   -3.1399 C   0  0  0  0  0  0  0  0  0  0  0  0
    8.1337    1.0851   -1.8325 C   0  0  0  0  0  0  0  0  0  0  0  0
    9.1809    1.9314   -1.5771 C   0  0  0  0  0  0  0  0  0  0  0  0
    9.7406    2.1211   -0.2963 C   0  0  0  0  0  0  0  0  0  0  0  0
   10.2481    2.3056    0.7170 N   0  0  0  0  0  0  0  0  0  0  0  0
    9.8457    2.6823   -2.5666 C   0  0  0  0  0  0  0  0  0  0  0  0
   10.4124    3.3216   -3.3339 N   0  0  0  0  0  0  0  0  0  0  0  0
   -7.0488    2.5135   -5.8444 H   0  0  0  0  0  0  0  0  0  0  0  0
   -1.1078    1.8980   -3.9228 H   0  0  0  0  0  0  0  0  0  0  0  0
    1.2398    1.4727   -4.5763 H   0  0  0  0  0  0  0  0  0  0  0  0
    2.9477    1.1238   -6.3452 H   0  0  0  0  0  0  0  0  0  0  0  0
   -0.0133    1.7084   -9.3633 H   0  0  0  0  0  0  0  0  0  0  0  0
   -2.3337    2.1682   -8.7483 H   0  0  0  0  0  0  0  0  0  0  0  0
   -8.9699    2.2458   -4.3488 H   0  0  0  0  0  0  0  0  0  0  0  0
  -10.0696    1.6368    0.5993 H   0  0  0  0  0  0  0  0  0  0  0  0
   -9.5833    3.2126   -0.0813 H   0  0  0  0  0  0  0  0  0  0  0  0
  -11.7600    3.3901    1.1616 H   0  0  0  0  0  0  0  0  0  0  0  0
  -12.4546    2.1578    0.1010 H   0  0  0  0  0  0  0  0  0  0  0  0
  -11.9849    3.7256   -0.5610 H   0  0  0  0  0  0  0  0  0  0  0  0
   -9.6955   -0.7230    2.2288 H   0  0  0  0  0  0  0  0  0  0  0  0
  -11.4881   -2.2645    1.5489 H   0  0  0  0  0  0  0  0  0  0  0  0
  -11.6634   -3.0060   -0.7928 H   0  0  0  0  0  0  0  0  0  0  0  0
   -9.6769   -1.5987   -3.5350 H   0  0  0  0  0  0  0  0  0  0  0  0
  -11.0450   -2.6395   -3.1195 H   0  0  0  0  0  0  0  0  0  0  0  0
   -8.0973   -3.3964   -2.8142 H   0  0  0  0  0  0  0  0  0  0  0  0
   -9.4633   -4.4320   -2.4013 H   0  0  0  0  0  0  0  0  0  0  0  0
   -9.1816   -3.9735   -4.0842 H   0  0  0  0  0  0  0  0  0  0  0  0
   -8.1946   -0.7337   -1.7726 H   0  0  0  0  0  0  0  0  0  0  0  0
    2.5413   -4.4702    5.1535 H   0  0  0  0  0  0  0  0  0  0  0  0
    3.9281   -6.3794    5.8470 H   0  0  0  0  0  0  0  0  0  0  0  0
    6.3210   -6.0659    6.3310 H   0  0  0  0  0  0  0  0  0  0  0  0
    8.1442   -4.5506    6.8441 H   0  0  0  0  0  0  0  0  0  0  0  0
    7.9225   -2.8003    6.7061 H   0  0  0  0  0  0  0  0  0  0  0  0
    8.3848   -4.7126    4.3654 H   0  0  0  0  0  0  0  0  0  0  0  0
    8.1580   -2.9655    4.2262 H   0  0  0  0  0  0  0  0  0  0  0  0
    9.5821   -3.6085    5.0450 H   0  0  0  0  0  0  0  0  0  0  0  0
    5.9294   -1.8953    5.5415 H   0  0  0  0  0  0  0  0  0  0  0  0
   -3.4539    2.9019    2.5533 H   0  0  0  0  0  0  0  0  0  0  0  0
   -2.6823    2.6502    4.1452 H   0  0  0  0  0  0  0  0  0  0  0  0
   -4.9015    2.9111    5.2501 H   0  0  0  0  0  0  0  0  0  0  0  0
   -5.6326    3.2616    3.6794 H   0  0  0  0  0  0  0  0  0  0  0  0
   -4.4172    4.3513    4.3462 H   0  0  0  0  0  0  0  0  0  0  0  0
   -1.5160    1.5331    2.7086 H   0  0  0  0  0  0  0  0  0  0  0  0
    0.1301    0.9099    2.6284 H   0  0  0  0  0  0  0  0  0  0  0  0
   -0.6981    3.1055    4.5946 H   0  0  0  0  0  0  0  0  0  0  0  0
    0.1086    3.3719    3.0447 H   0  0  0  0  0  0  0  0  0  0  0  0
    0.9206    2.4709    4.3241 H   0  0  0  0  0  0  0  0  0  0  0  0
    5.3976   -2.9853    2.8645 H   0  0  0  0  0  0  0  0  0  0  0  0
    6.8349   -4.4577    2.1802 H   0  0  0  0  0  0  0  0  0  0  0  0
    7.7318   -5.0125    0.7568 H   0  0  0  0  0  0  0  0  0  0  0  0
    5.2895   -5.5508    0.5205 H   0  0  0  0  0  0  0  0  0  0  0  0
    5.8304   -4.4098   -0.7226 H   0  0  0  0  0  0  0  0  0  0  0  0
    4.9053   -3.8275    0.6516 H   0  0  0  0  0  0  0  0  0  0  0  0
    7.6815    1.5260    0.8319 H   0  0  0  0  0  0  0  0  0  0  0  0
    5.1342   -1.5029   -3.8845 H   0  0  0  0  0  0  0  0  0  0  0  0
    4.5407   -1.3336   -6.2805 H   0  0  0  0  0  0  0  0  0  0  0  0
    4.8641   -0.2760   -8.5055 H   0  0  0  0  0  0  0  0  0  0  0  0
    7.9063    2.2474   -6.9001 H   0  0  0  0  0  0  0  0  0  0  0  0
    8.4755    2.1436   -4.5237 H   0  0  0  0  0  0  0  0  0  0  0  0
  1  2  2  0  0  0  0
  2  3  1  0  0  0  0
  3  4  2  0  0  0  0
  3  5  1  0  0  0  0
  5  6  2  0  0  0  0
  6  7  1  0  0  0  0
  7  8  2  0  0  0  0
  8  9  1  0  0  0  0
  9 10  2  0  0  0  0
 10 11  1  0  0  0  0
 10 12  1  0  0  0  0
 12 13  2  0  0  0  0
 13 14  1  0  0  0  0
 14 15  2  0  0  0  0
 15 16  1  0  0  0  0
 16 17  2  0  0  0  0
 17 18  1  0  0  0  0
 18 19  3  0  0  0  0
 17 20  1  0  0  0  0
 20 21  3  0  0  0  0
  1 22  1  0  0  0  0
 22 23  2  0  0  0  0
 23 24  1  0  0  0  0
 24 25  1  0  0  0  0
 25 26  1  0  0  0  0
 26 27  1  0  0  0  0
 24 28  2  0  0  0  0
 28 29  1  0  0  0  0
 28 30  1  0  0  0  0
 30 31  2  0  0  0  0
 31 32  1  0  0  0  0
 32 33  2  0  0  0  0
 33 34  1  0  0  0  0
 34 35  2  0  0  0  0
 35 36  1  0  0  0  0
 36 37  1  0  0  0  0
 37 38  1  0  0  0  0
 36 39  2  0  0  0  0
 31 40  1  0  0  0  0
 40 41  1  0  0  0  0
 41 42  1  0  0  0  0
 42 43  1  0  0  0  0
 43 44  1  0  0  0  0
 44 45  1  0  0  0  0
 45 46  2  0  0  0  0
 46 47  1  0  0  0  0
 47 48  1  0  0  0  0
 45 49  1  0  0  0  0
 49 50  1  0  0  0  0
 50 51  1  0  0  0  0
 51 52  1  0  0  0  0
 52 53  1  0  0  0  0
 53 54  1  0  0  0  0
 54 55  2  0  0  0  0
 55 56  1  0  0  0  0
 56 57  2  0  0  0  0
 57 58  1  0  0  0  0
 58 59  1  0  0  0  0
 59 60  1  0  0  0  0
 58 61  2  0  0  0  0
 53 62  2  0  0  0  0
 62 63  1  0  0  0  0
 63 64  1  0  0  0  0
 64 65  1  0  0  0  0
 65 66  1  0  0  0  0
 66 67  1  0  0  0  0
 67 68  1  0  0  0  0
 68 69  1  0  0  0  0
 69 70  1  0  0  0  0
 70 71  1  0  0  0  0
 71 72  1  0  0  0  0
 69 73  1  0  0  0  0
 73 74  1  0  0  0  0
 66 75  1  0  0  0  0
 75 76  1  0  0  0  0
 62 77  1  0  0  0  0
 77 78  2  0  0  0  0
 78 79  1  0  0  0  0
 79 80  1  0  0  0  0
 80 81  1  0  0  0  0
 81 82  1  0  0  0  0
 79 83  2  0  0  0  0
 83 84  1  0  0  0  0
 83 85  1  0  0  0  0
 85 86  2  0  0  0  0
 86 87  1  0  0  0  0
 87 88  2  0  0  0  0
 87 89  1  0  0  0  0
 89 90  2  0  0  0  0
 90 91  1  0  0  0  0
 91 92  2  0  0  0  0
 92 93  1  0  0  0  0
 93 94  2  0  0  0  0
 94 95  1  0  0  0  0
 94 96  1  0  0  0  0
 96 97  2  0  0  0  0
 97 98  1  0  0  0  0
 98 99  2  0  0  0  0
 99100  1  0  0  0  0
100101  2  0  0  0  0
101102  1  0  0  0  0
102103  3  0  0  0  0
101104  1  0  0  0  0
104105  3  0  0  0  0
 16  2  1  0  0  0  0
 29 22  1  0  0  0  0
 72 30  1  0  0  0  0
 84 77  1  0  0  0  0
100 86  1  0  0  0  0
 15  5  1  0  0  0  0
 39 32  1  0  0  0  0
 71 40  2  0  0  0  0
 99 89  1  0  0  0  0
 13  7  1  0  0  0  0
 70 42  2  0  0  0  0
 97 91  1  0  0  0  0
 68 43  2  0  0  0  0
 48 44  2  0  0  0  0
 67 49  2  0  0  0  0
 65 50  2  0  0  0  0
 64 52  2  0  0  0  0
 61 54  1  0  0  0  0
  1106  1  0  0  0  0
  6107  1  0  0  0  0
  8108  1  0  0  0  0
  9109  1  0  0  0  0
 12110  1  0  0  0  0
 14111  1  0  0  0  0
 23112  1  0  0  0  0
 26113  1  0  0  0  0
 26114  1  0  0  0  0
 27115  1  0  0  0  0
 27116  1  0  0  0  0
 27117  1  0  0  0  0
 33118  1  0  0  0  0
 34119  1  0  0  0  0
 35120  1  0  0  0  0
 37121  1  0  0  0  0
 37122  1  0  0  0  0
 38123  1  0  0  0  0
 38124  1  0  0  0  0
 38125  1  0  0  0  0
 39126  1  0  0  0  0
 55127  1  0  0  0  0
 56128  1  0  0  0  0
 57129  1  0  0  0  0
 59130  1  0  0  0  0
 59131  1  0  0  0  0
 60132  1  0  0  0  0
 60133  1  0  0  0  0
 60134  1  0  0  0  0
 61135  1  0  0  0  0
 73136  1  0  0  0  0
 73137  1  0  0  0  0
 74138  1  0  0  0  0
 74139  1  0  0  0  0
 74140  1  0  0  0  0
 75141  1  0  0  0  0
 75142  1  0  0  0  0
 76143  1  0  0  0  0
 76144  1  0  0  0  0
 76145  1  0  0  0  0
 78146  1  0  0  0  0
 81147  1  0  0  0  0
 81148  1  0  0  0  0
 82149  1  0  0  0  0
 82150  1  0  0  0  0
 82151  1  0  0  0  0
 85152  1  0  0  0  0
 90153  1  0  0  0  0
 92154  1  0  0  0  0
 93155  1  0  0  0  0
 96156  1  0  0  0  0
 98157  1  0  0  0  0
M  END
