157

C         -5.08000       -2.99470        8.18260
C         -6.11710       -3.37290        8.99740
C         -6.91320       -4.61930        8.96650
O         -6.72150       -5.63610        8.32730
C         -8.03840       -4.40000        9.89340
C         -9.08690       -5.23100       10.16330
C        -10.07970       -4.81190       11.07630
C        -11.18760       -5.62580       11.38820
C        -12.14500       -5.20480       12.26890
C        -12.01050       -3.94330       12.86410
F        -12.96330       -3.54560       13.72750
C        -10.95570       -3.11530       12.59760
C         -9.96030       -3.53270       11.69280
C         -8.85760       -2.69730       11.39730
C         -7.90680       -3.12610       10.51000
C         -6.68450       -2.50100       10.01290
C         -6.16410       -1.32310       10.48630
C         -6.77340       -0.54020       11.48960
N         -7.21150        0.14780       12.29780
C         -4.94740       -0.72570       10.09500
N         -3.96900       -0.17220        9.85690
C         -4.40890       -3.66880        7.14750
C         -4.52660       -4.93900        6.61150
C         -3.65590       -5.18800        5.55200
S         -3.69330       -6.63680        4.56330
C         -4.26610       -7.88530        5.78080
C         -3.91910       -9.26760        5.26520
C         -2.82260       -4.10640        5.25920
S         -3.17050       -2.76340        6.29520
C         -1.82270       -3.98720        4.25210
C         -0.91070       -4.92470        3.79620
C         -0.67130       -6.23160        4.40350
C         -0.64760       -6.37820        5.78900
C         -0.40530       -7.61830        6.34580
C         -0.17800       -8.71690        5.53360
C         -0.18560       -8.58600        4.15050
C          0.11080       -9.75700        3.25940
C          1.58640       -9.75210        2.85520
C         -0.42830       -7.33810        3.59750
C         -0.14930       -4.41190        2.72740
S          1.13240       -5.09390        1.75340
C          1.24900       -3.59450        0.89700
C          2.00240       -3.00850       -0.13000
C          3.09110       -3.52270       -0.86560
C          3.74050       -2.67520       -1.81900
N          4.76420       -3.26940       -2.41260
S          4.89530       -4.77110       -1.82090
N          3.65200       -4.71960       -0.78520
C          3.22360       -1.38100       -2.04020
C          3.60380       -0.40450       -2.97150
S          4.78070       -0.16130       -4.21820
C          4.04620        1.38620       -4.57200
C          4.32260        2.36870       -5.53880
C          5.36930        2.20440       -6.55160
C          5.07340        2.32930       -7.90750
C          6.06970        2.14920       -8.84740
C          7.35890        1.83680       -8.44850
C          7.66590        1.69030       -7.10210
C          9.04090        1.28090       -6.66180
C          9.10080       -0.23660       -6.47520
C          6.66100        1.87260       -6.16240
C          3.44600        3.43890       -5.43230
S          2.25690        3.20880       -4.16050
C          2.95180        1.68140       -3.75350
C          2.70420        0.65370       -2.83550
N          1.79150        0.36990       -1.85850
C          2.09300       -0.87350       -1.33090
C          1.51530       -1.67840       -0.30720
N          0.51600       -1.47000        0.62800
C          0.34880       -2.62490        1.34030
C         -0.44760       -3.08830        2.39460
S         -1.69370       -2.45190        3.40550
C         -0.22930       -0.30120        1.03230
C         -1.66000       -0.32520        0.49280
C          0.70640        1.29900       -1.64820
C          1.13580        2.48380       -0.78240
C          3.42470        4.66460       -6.14920
C          4.43060        5.18730       -6.94290
C          4.09290        6.41360       -7.50020
S          5.08930        7.35070       -8.58270
C          6.51350        6.25240       -8.91590
C          7.57510        6.32170       -7.83460
C          2.81130        6.87220       -7.12120
S          2.04850        5.71620       -6.05050
C          2.27270        8.07280       -7.57700
C          1.05940        8.66560       -7.30510
C          0.03330        8.13250       -6.41170
O          0.06570        7.09900       -5.76410
C         -1.07700        9.10590       -6.43790
C         -2.28040        9.05540       -5.77130
C         -3.18010       10.10270       -5.96760
O         -4.35440       10.03460       -5.24200
C         -5.53280       10.48710       -5.72290
O         -5.69370       10.93830       -6.82090
C         -6.60050       10.32140       -4.67710
C         -2.86010       11.16590       -6.80490
C         -1.64420       11.20370       -7.47430
C         -0.74130       10.16860       -7.29480
C          0.59110        9.92220       -7.84850
C          1.24620       10.75440       -8.72080
C          2.52380       10.53920       -9.27820
N          3.55170       10.45350       -9.78470
C          0.72080       11.97600       -9.19110
N          0.36200       12.98320       -9.61030
H         -4.71080       -1.98660        8.32970
H         -9.16000       -6.19480        9.68200
H        -11.26940       -6.59350       10.91640
H        -12.99910       -5.81460       12.51750
H        -10.88410       -2.15080       13.07560
H         -8.80070       -1.73470       11.87870
H         -5.25150       -5.64170        6.97670
H         -3.75040       -7.67410        6.71670
H         -5.34170       -7.76840        5.91150
H         -4.24420      -10.01890        5.98150
H         -4.41200       -9.45570        4.31390
H         -2.84440       -9.35740        5.12210
H         -0.80870       -5.51890        6.42350
H         -0.39050       -7.73050        7.42020
H          0.00920       -9.68420        5.97810
H         -0.12000      -10.68950        3.77860
H         -0.50780       -9.70240        2.36150
H          1.83070       -8.83310        2.32740
H          2.21980       -9.81890        3.73700
H          1.80520      -10.59620        2.20560
H         -0.45750       -7.22880        2.52380
H          4.06480        2.56380       -8.21440
H          5.83960        2.24690       -9.89850
H          8.13190        1.69880       -9.19070
H          9.77770        1.58380       -7.40830
H          9.28860        1.76900       -5.71700
H          8.86900       -0.74130       -7.41040
H         10.09360       -0.54080       -6.15270
H          8.37780       -0.55480       -5.72750
H          6.88700        1.76810       -5.11110
H         -0.27230       -0.30880        2.12700
H          0.30370        0.59630        0.73350
H         -2.15980        0.60950        0.73100
H         -1.67870       -0.47290       -0.58520
H         -2.21700       -1.13840        0.95030
H          0.41280        1.67890       -2.63260
H         -0.14960        0.77830       -1.23070
H          0.27820        3.11520       -0.56880
H          1.57630        2.15400        0.15650
H          1.87690        3.07920       -1.30890
H          5.36910        4.68790       -7.08220
H          6.90640        6.62460       -9.86220
H          6.13490        5.24200       -9.06360
H          7.95980        7.33510       -7.75000
H          7.17590        6.02600       -6.86720
H          8.39740        5.65490       -8.08680
H          2.93320        8.60420       -8.25270
H         -2.52380        8.23390       -5.11640
H         -6.54850        9.32480       -4.24730
H         -7.57530       10.49460       -5.12170
H         -6.43040       11.04400       -3.88130
H         -3.56420       11.96990       -6.94420
H         -1.42660       12.03960       -8.11830
