151

C          4.81680       -9.72830        1.48220
C          5.75500      -10.30300        0.65830
C          6.08270       -9.85820       -0.70000
O          5.62630       -8.90150       -1.30380
C          7.08500      -10.80610       -1.21270
C          7.69500      -10.82570       -2.43290
C          8.64250      -11.83610       -2.71130
C          9.30660      -11.90490       -3.95260
C         10.22390      -12.88620       -4.20760
C         10.49860      -13.83200       -3.21110
F         11.40480      -14.78980       -3.47960
C          9.88220      -13.81160       -1.99060
C          8.93510      -12.80770       -1.71090
C          8.28390      -12.76060       -0.45520
C          7.37000      -11.77200       -0.20720
C          6.55900      -11.46650        0.97070
C          6.59650      -12.16290        2.15310
C          5.85140      -11.86390        3.31160
N          5.28910      -11.68540        4.29790
C          7.41460      -13.28870        2.38060
N          8.05290      -14.20910        2.63330
C          4.01140       -8.60130        1.27930
C          3.06940       -8.17360        2.21370
C          2.38880       -7.02810        1.84180
S          1.12860       -6.29210        2.83840
C          2.10970       -5.90410        4.33630
C          3.16520       -4.85330        4.05870
C          2.78090       -6.53930        0.59030
S          4.00910       -7.54520       -0.11520
C          2.35710       -5.35130       -0.04840
C          2.73380       -4.89070       -1.30600
C          3.49250       -5.65240       -2.30400
C          4.69550       -5.15460       -2.78930
C          5.40540       -5.87690       -3.73030
C          4.91960       -7.08520       -4.19320
C          3.70880       -7.58720       -3.73200
C          3.16000       -8.87750       -4.26720
C          2.32750       -8.62850       -5.52620
C          2.99720       -6.85620       -2.79560
C          2.28200       -3.58480       -1.53440
S          2.48290       -2.49510       -2.88710
C          1.57150       -1.30640       -2.02000
C          1.16110        0.02590       -2.16200
C          1.44750        0.97010       -3.17180
C          1.01830        2.32470       -2.99090
N          1.40010        3.11450       -3.98250
S          2.22570        2.22590       -5.05490
N          2.12980        0.80020       -4.29340
C          0.23760        2.64490       -1.85930
C         -0.37290        3.84980       -1.48520
S         -0.46840        5.48990       -2.02750
C         -1.54340        5.83300       -0.69430
C         -2.16950        7.01630       -0.27530
C         -1.96580        8.29970       -0.95640
C         -1.39110        9.37460       -0.28480
C         -1.17270       10.56210       -0.95490
C         -1.51660       10.68270       -2.28960
C         -2.07590        9.61420       -2.97720
C         -2.38590        9.71380       -4.44260
C         -1.20780        9.19050       -5.26720
C         -2.29050        8.42250       -2.30070
C         -2.95390        6.80540        0.84840
S         -2.87590        5.13250        1.40680
C         -1.80710        4.72120        0.11370
C         -1.12570        3.58520       -0.33690
N         -0.97900        2.27370        0.02890
C         -0.13060        1.66960       -0.88740
C          0.42480        0.36560       -0.98880
N          0.41790       -0.73930       -0.15210
C          1.12170       -1.73850       -0.76820
C          1.53460       -3.04440       -0.48300
S          1.38180       -4.16740        0.82240
C          0.11860       -0.85230        1.25710
C          1.01650        0.05440        2.09550
C         -1.92450        1.68760        0.95300
C         -2.89740        0.75210        0.23950
C         -3.83010        7.70120        1.50510
C         -4.58750        7.41400        2.63410
C         -5.38110        8.47350        3.03410
S         -6.43540        8.38330        4.44870
C         -5.57080        9.54090        5.57920
C         -4.28360        8.93700        6.10180
C         -5.28920        9.60060        2.19590
S         -4.11870        9.31120        0.92670
C         -6.07450       10.74240        2.35940
C         -6.12520       11.89990        1.61610
C         -5.36850       12.16970        0.39090
O         -4.49220       11.49130       -0.11670
C         -5.88700       13.44830       -0.13320
C         -5.53210       14.11910       -1.28710
C         -6.17560       15.31080       -1.58280
C         -7.15100       15.79370       -0.72120
Br        -8.02520       17.42510       -1.15210
C         -7.51620       15.13270        0.44630
C         -6.87010       13.94430        0.74020
C         -6.99840       13.02350        1.87280
C         -7.75430       13.25500        2.99380
C         -7.76690       12.44860        4.15040
N         -7.79420       11.87150        5.14340
C         -8.58440       14.38180        3.16900
N         -9.28180       15.27140        3.36900
H          4.65330      -10.20140        2.44280
H          7.45890      -10.07680       -3.17410
H          9.07860      -11.16430       -4.70450
H         10.74140      -12.95250       -5.15150
H         10.11900      -14.55620       -1.24670
H          8.52900      -13.51240        0.27740
H          2.89270       -8.70030        3.13520
H          2.54940       -6.83130        4.70040
H          1.37260       -5.54840        5.05480
H          3.69920       -4.61440        4.97610
H          3.88350       -5.21590        3.32540
H          2.70510       -3.94630        3.67320
H          5.07830       -4.21720       -2.41410
H          6.34600       -5.49510       -4.09910
H          5.48540       -7.64950       -4.92050
H          3.98270       -9.55470       -4.50440
H          2.53620       -9.35460       -3.50880
H          1.49560       -7.96400       -5.30380
H          1.93070       -9.56480       -5.91210
H          2.93720       -8.16440       -6.29830
H          2.04920       -7.22690       -2.43050
H         -1.11220        9.27080        0.75360
H         -0.73030       11.39770       -0.43360
H         -1.34570       11.61660       -2.80540
H         -3.27650        9.12610       -4.67390
H         -2.58260       10.75330       -4.71140
H         -0.31440        9.77650       -5.06340
H         -0.99960        8.15340       -5.01450
H         -1.42940        9.25280       -6.33000
H         -2.72940        7.58200       -2.81950
H         -0.93760       -0.65750        1.44270
H          0.30400       -1.89430        1.52940
H          2.05700       -0.23530        1.96850
H          0.75780       -0.03630        3.14700
H          0.91640        1.09500        1.79540
H         -1.40570        1.18360        1.76850
H         -2.48180        2.51820        1.39330
H         -3.58690        0.31610        0.95730
H         -2.36990       -0.04810       -0.27440
H         -3.47170        1.30720       -0.49860
H         -4.55360        6.47120        3.15140
H         -6.28760        9.71940        6.37870
H         -5.39260       10.47390        5.04800
H         -3.58960        8.74460        5.28490
H         -3.81350        9.62440        6.80220
H         -4.48380        7.99900        6.61460
H         -6.77490       10.66570        3.18410
H         -4.77130       13.71540       -1.93690
H         -5.92740       15.86430       -2.47510
H         -8.28100       15.54600        1.08320
