
  xtb     02052213323D
 energy: -258.892746138305 gnorm: 0.000795922574 xtb: 6.4.1 (unknown)
148164  0     0  0            999 V2000
   -1.4100   -9.7502    2.6180 C   0  0  0  0  0  0  0  0  0  0  0  0
   -0.4032  -10.0582    1.7549 C   0  0  0  0  0  0  0  0  0  0  0  0
   -0.5505  -11.1955    0.8071 C   0  0  0  0  0  0  0  0  0  0  0  0
   -1.3777  -12.0770    0.8518 O   0  0  0  0  0  0  0  0  0  0  0  0
    0.4838  -10.9706   -0.2236 C   0  0  0  0  0  0  0  0  0  0  0  0
    0.6998  -11.6499   -1.3876 C   0  0  0  0  0  0  0  0  0  0  0  0
    1.7420  -11.2330   -2.2464 C   0  0  0  0  0  0  0  0  0  0  0  0
    2.0079  -11.9008   -3.4593 C   0  0  0  0  0  0  0  0  0  0  0  0
    3.0141  -11.4860   -4.2867 C   0  0  0  0  0  0  0  0  0  0  0  0
    3.7867  -10.3785   -3.9119 C   0  0  0  0  0  0  0  0  0  0  0  0
    4.7717   -9.9835   -4.7396 F   0  0  0  0  0  0  0  0  0  0  0  0
    3.5723   -9.6955   -2.7473 C   0  0  0  0  0  0  0  0  0  0  0  0
    2.5412  -10.1102   -1.8822 C   0  0  0  0  0  0  0  0  0  0  0  0
    2.3010   -9.4305   -0.6654 C   0  0  0  0  0  0  0  0  0  0  0  0
    1.2920   -9.8589    0.1531 C   0  0  0  0  0  0  0  0  0  0  0  0
    0.8466   -9.3902    1.4616 C   0  0  0  0  0  0  0  0  0  0  0  0
    1.6167   -8.6864    2.3515 C   0  0  0  0  0  0  0  0  0  0  0  0
    1.2769   -8.5182    3.7091 C   0  0  0  0  0  0  0  0  0  0  0  0
    1.0650   -8.4069    4.8323 N   0  0  0  0  0  0  0  0  0  0  0  0
    2.8673   -8.1234    2.0308 C   0  0  0  0  0  0  0  0  0  0  0  0
    3.8788   -7.6254    1.8142 N   0  0  0  0  0  0  0  0  0  0  0  0
   -1.6501   -8.5167    3.2678 C   0  0  0  0  0  0  0  0  0  0  0  0
   -2.4395   -8.3016    4.3768 C   0  0  0  0  0  0  0  0  0  0  0  0
   -2.4951   -6.9645    4.7904 C   0  0  0  0  0  0  0  0  0  0  0  0
   -3.4949   -6.5079    6.1612 S   0  0  0  0  0  0  0  0  0  0  0  0
   -4.2630   -4.9437    5.5805 C   0  0  0  0  0  0  0  0  0  0  0  0
   -5.6279   -4.7963    6.2233 C   0  0  0  0  0  0  0  0  0  0  0  0
   -1.7422   -6.1178    3.9891 C   0  0  0  0  0  0  0  0  0  0  0  0
   -1.0309   -6.9991    2.6653 S   0  0  0  0  0  0  0  0  0  0  0  0
   -1.4417   -4.7303    4.1078 C   0  0  0  0  0  0  0  0  0  0  0  0
   -1.1257   -4.0022    5.2417 C   0  0  0  0  0  0  0  0  0  0  0  0
   -0.9881   -4.5660    6.5845 C   0  0  0  0  0  0  0  0  0  0  0  0
   -1.4893   -3.8750    7.6849 C   0  0  0  0  0  0  0  0  0  0  0  0
   -1.3767   -4.4217    8.9488 C   0  0  0  0  0  0  0  0  0  0  0  0
   -0.7589   -5.6466    9.1266 C   0  0  0  0  0  0  0  0  0  0  0  0
   -0.2304   -6.3377    8.0425 C   0  0  0  0  0  0  0  0  0  0  0  0
    0.4916   -7.6383    8.2350 C   0  0  0  0  0  0  0  0  0  0  0  0
    1.9600   -7.3847    8.5813 C   0  0  0  0  0  0  0  0  0  0  0  0
   -0.3444   -5.7850    6.7773 C   0  0  0  0  0  0  0  0  0  0  0  0
   -0.8468   -2.6582    4.9183 C   0  0  0  0  0  0  0  0  0  0  0  0
   -0.3295   -1.2961    5.8832 S   0  0  0  0  0  0  0  0  0  0  0  0
   -0.2006   -0.3523    4.4385 C   0  0  0  0  0  0  0  0  0  0  0  0
    0.2264    0.9235    4.0346 C   0  0  0  0  0  0  0  0  0  0  0  0
    0.8513    1.9648    4.7556 C   0  0  0  0  0  0  0  0  0  0  0  0
    1.3781    3.0884    4.0339 C   0  0  0  0  0  0  0  0  0  0  0  0
    2.0039    3.9474    4.8231 N   0  0  0  0  0  0  0  0  0  0  0  0
    1.9301    3.3949    6.3435 S   0  0  0  0  0  0  0  0  0  0  0  0
    1.0993    2.0361    6.0537 N   0  0  0  0  0  0  0  0  0  0  0  0
    1.1245    3.1881    2.6484 C   0  0  0  0  0  0  0  0  0  0  0  0
    1.3740    4.2212    1.7316 C   0  0  0  0  0  0  0  0  0  0  0  0
    2.1668    5.7577    1.6757 S   0  0  0  0  0  0  0  0  0  0  0  0
    1.6174    5.9499    0.0269 C   0  0  0  0  0  0  0  0  0  0  0  0
    1.7615    6.9979   -0.9031 C   0  0  0  0  0  0  0  0  0  0  0  0
    2.4611    8.2421   -0.5761 C   0  0  0  0  0  0  0  0  0  0  0  0
    1.8719    9.4815   -0.8161 C   0  0  0  0  0  0  0  0  0  0  0  0
    2.5324   10.6385   -0.4500 C   0  0  0  0  0  0  0  0  0  0  0  0
    3.7736   10.5723    0.1606 C   0  0  0  0  0  0  0  0  0  0  0  0
    4.3718    9.3448    0.4143 C   0  0  0  0  0  0  0  0  0  0  0  0
    5.6863    9.2540    1.1330 C   0  0  0  0  0  0  0  0  0  0  0  0
    5.4539    8.9905    2.6223 C   0  0  0  0  0  0  0  0  0  0  0  0
    3.7047    8.1867    0.0430 C   0  0  0  0  0  0  0  0  0  0  0  0
    1.1024    6.6996   -2.0810 C   0  0  0  0  0  0  0  0  0  0  0  0
    0.2808    5.1536   -2.0420 S   0  0  0  0  0  0  0  0  0  0  0  0
    0.8552    4.8736   -0.4370 C   0  0  0  0  0  0  0  0  0  0  0  0
    0.7376    3.8724    0.5373 C   0  0  0  0  0  0  0  0  0  0  0  0
    0.1365    2.6492    0.6702 N   0  0  0  0  0  0  0  0  0  0  0  0
    0.3823    2.1933    1.9512 C   0  0  0  0  0  0  0  0  0  0  0  0
    0.0589    0.9858    2.6237 C   0  0  0  0  0  0  0  0  0  0  0  0
   -0.4251   -0.2369    2.1811 N   0  0  0  0  0  0  0  0  0  0  0  0
   -0.5603   -1.0452    3.2804 C   0  0  0  0  0  0  0  0  0  0  0  0
   -0.9170   -2.3707    3.5536 C   0  0  0  0  0  0  0  0  0  0  0  0
   -1.3537   -3.7681    2.6363 S   0  0  0  0  0  0  0  0  0  0  0  0
   -0.2726   -0.8583    0.8831 C   0  0  0  0  0  0  0  0  0  0  0  0
    1.1990   -1.1200    0.5700 C   0  0  0  0  0  0  0  0  0  0  0  0
   -0.8537    2.2245   -0.2930 C   0  0  0  0  0  0  0  0  0  0  0  0
   -0.2214    1.6607   -1.5645 C   0  0  0  0  0  0  0  0  0  0  0  0
    1.0023    7.4008   -3.3280 C   0  0  0  0  0  0  0  0  0  0  0  0
    1.8807    8.4090   -3.7661 C   0  0  0  0  0  0  0  0  0  0  0  0
    1.6639    8.9305   -5.0168 C   0  0  0  0  0  0  0  0  0  0  0  0
    0.5846    8.4291   -5.7668 C   0  0  0  0  0  0  0  0  0  0  0  0
   -0.2193    7.4885   -5.2644 N   0  0  0  0  0  0  0  0  0  0  0  0
   -0.0060    6.9921   -4.1082 N   0  0  0  0  0  0  0  0  0  0  0  0
    0.2580    8.9571   -7.0755 C   0  0  0  0  0  0  0  0  0  0  0  0
   -0.0784    8.1839   -8.1283 C   0  0  0  0  0  0  0  0  0  0  0  0
    0.0310    6.6905   -8.1544 C   0  0  0  0  0  0  0  0  0  0  0  0
    0.6780    5.9909   -7.4121 O   0  0  0  0  0  0  0  0  0  0  0  0
   -0.7036    6.2772   -9.3628 C   0  0  0  0  0  0  0  0  0  0  0  0
   -1.0092    5.0037   -9.8052 C   0  0  0  0  0  0  0  0  0  0  0  0
   -1.7091    4.8684  -10.9925 C   0  0  0  0  0  0  0  0  0  0  0  0
   -2.0973    5.9819  -11.7379 C   0  0  0  0  0  0  0  0  0  0  0  0
   -2.8723    5.8035  -13.0044 C   0  0  0  0  0  0  0  0  0  0  0  0
   -1.7787    7.2620  -11.2910 C   0  0  0  0  0  0  0  0  0  0  0  0
   -1.0793    7.4126  -10.1041 C   0  0  0  0  0  0  0  0  0  0  0  0
   -0.6157    8.6112   -9.4133 C   0  0  0  0  0  0  0  0  0  0  0  0
   -0.6600    9.8885   -9.8994 C   0  0  0  0  0  0  0  0  0  0  0  0
   -1.1854   10.2400  -11.1616 C   0  0  0  0  0  0  0  0  0  0  0  0
   -1.5966   10.5914  -12.1738 N   0  0  0  0  0  0  0  0  0  0  0  0
   -0.1509   11.0230   -9.2318 C   0  0  0  0  0  0  0  0  0  0  0  0
    0.2471   11.9862   -8.7497 N   0  0  0  0  0  0  0  0  0  0  0  0
   -2.1563  -10.5229    2.7727 H   0  0  0  0  0  0  0  0  0  0  0  0
    0.0832  -12.4958   -1.6519 H   0  0  0  0  0  0  0  0  0  0  0  0
    1.3993  -12.7515   -3.7268 H   0  0  0  0  0  0  0  0  0  0  0  0
    3.2299  -11.9858   -5.2177 H   0  0  0  0  0  0  0  0  0  0  0  0
    4.1897   -8.8496   -2.4883 H   0  0  0  0  0  0  0  0  0  0  0  0
    2.9145   -8.5794   -0.4149 H   0  0  0  0  0  0  0  0  0  0  0  0
   -2.9482   -9.0906    4.9004 H   0  0  0  0  0  0  0  0  0  0  0  0
   -4.3374   -5.0068    4.4955 H   0  0  0  0  0  0  0  0  0  0  0  0
   -3.6100   -4.1173    5.8580 H   0  0  0  0  0  0  0  0  0  0  0  0
   -5.5330   -4.7675    7.3061 H   0  0  0  0  0  0  0  0  0  0  0  0
   -6.0954   -3.8727    5.8883 H   0  0  0  0  0  0  0  0  0  0  0  0
   -6.2689   -5.6325    5.9551 H   0  0  0  0  0  0  0  0  0  0  0  0
   -1.9832   -2.9242    7.5457 H   0  0  0  0  0  0  0  0  0  0  0  0
   -1.7790   -3.8900    9.7985 H   0  0  0  0  0  0  0  0  0  0  0  0
   -0.6833   -6.0719   10.1170 H   0  0  0  0  0  0  0  0  0  0  0  0
    0.4397   -8.2260    7.3184 H   0  0  0  0  0  0  0  0  0  0  0  0
    0.0217   -8.2048    9.0418 H   0  0  0  0  0  0  0  0  0  0  0  0
    2.4801   -8.3268    8.7362 H   0  0  0  0  0  0  0  0  0  0  0  0
    2.4484   -6.8501    7.7701 H   0  0  0  0  0  0  0  0  0  0  0  0
    2.0428   -6.7871    9.4870 H   0  0  0  0  0  0  0  0  0  0  0  0
    0.0816   -6.3104    5.9343 H   0  0  0  0  0  0  0  0  0  0  0  0
    0.8945    9.5303   -1.2740 H   0  0  0  0  0  0  0  0  0  0  0  0
    2.0736   11.5985   -0.6356 H   0  0  0  0  0  0  0  0  0  0  0  0
    4.2806   11.4826    0.4465 H   0  0  0  0  0  0  0  0  0  0  0  0
    6.2820    8.4405    0.7136 H   0  0  0  0  0  0  0  0  0  0  0  0
    6.2433   10.1849    1.0112 H   0  0  0  0  0  0  0  0  0  0  0  0
    4.9082    8.0602    2.7621 H   0  0  0  0  0  0  0  0  0  0  0  0
    6.4030    8.9208    3.1482 H   0  0  0  0  0  0  0  0  0  0  0  0
    4.8712    9.7970    3.0618 H   0  0  0  0  0  0  0  0  0  0  0  0
    4.1629    7.2258    0.2268 H   0  0  0  0  0  0  0  0  0  0  0  0
   -0.7240   -0.2533    0.1023 H   0  0  0  0  0  0  0  0  0  0  0  0
   -0.8143   -1.8068    0.9242 H   0  0  0  0  0  0  0  0  0  0  0  0
    1.7594   -0.1873    0.5595 H   0  0  0  0  0  0  0  0  0  0  0  0
    1.2926   -1.6010   -0.3999 H   0  0  0  0  0  0  0  0  0  0  0  0
    1.6342   -1.7728    1.3232 H   0  0  0  0  0  0  0  0  0  0  0  0
   -1.5252    1.5113    0.1872 H   0  0  0  0  0  0  0  0  0  0  0  0
   -1.4486    3.1042   -0.5642 H   0  0  0  0  0  0  0  0  0  0  0  0
    0.4909    0.8715   -1.3411 H   0  0  0  0  0  0  0  0  0  0  0  0
    0.3018    2.4489   -2.0984 H   0  0  0  0  0  0  0  0  0  0  0  0
   -0.9963    1.2656   -2.2157 H   0  0  0  0  0  0  0  0  0  0  0  0
    2.7042    8.7328   -3.1499 H   0  0  0  0  0  0  0  0  0  0  0  0
    2.3167    9.6802   -5.4375 H   0  0  0  0  0  0  0  0  0  0  0  0
    0.2525   10.0361   -7.1574 H   0  0  0  0  0  0  0  0  0  0  0  0
   -0.7076    4.1446   -9.2261 H   0  0  0  0  0  0  0  0  0  0  0  0
   -1.9627    3.8826  -11.3544 H   0  0  0  0  0  0  0  0  0  0  0  0
   -3.9288    5.6651  -12.7726 H   0  0  0  0  0  0  0  0  0  0  0  0
   -2.7788    6.6768  -13.6445 H   0  0  0  0  0  0  0  0  0  0  0  0
   -2.5324    4.9243  -13.5469 H   0  0  0  0  0  0  0  0  0  0  0  0
   -2.0833    8.1171  -11.8730 H   0  0  0  0  0  0  0  0  0  0  0  0
  1  2  2  0  0  0  0
  2  3  1  0  0  0  0
  3  4  2  0  0  0  0
  3  5  1  0  0  0  0
  5  6  2  0  0  0  0
  6  7  1  0  0  0  0
  7  8  2  0  0  0  0
  8  9  1  0  0  0  0
  9 10  2  0  0  0  0
 10 11  1  0  0  0  0
 10 12  1  0  0  0  0
 12 13  2  0  0  0  0
 13 14  1  0  0  0  0
 14 15  2  0  0  0  0
 15 16  1  0  0  0  0
 16 17  2  0  0  0  0
 17 18  1  0  0  0  0
 18 19  3  0  0  0  0
 17 20  1  0  0  0  0
 20 21  3  0  0  0  0
  1 22  1  0  0  0  0
 22 23  2  0  0  0  0
 23 24  1  0  0  0  0
 24 25  1  0  0  0  0
 25 26  1  0  0  0  0
 26 27  1  0  0  0  0
 24 28  2  0  0  0  0
 28 29  1  0  0  0  0
 28 30  1  0  0  0  0
 30 31  2  0  0  0  0
 31 32  1  0  0  0  0
 32 33  2  0  0  0  0
 33 34  1  0  0  0  0
 34 35  2  0  0  0  0
 35 36  1  0  0  0  0
 36 37  1  0  0  0  0
 37 38  1  0  0  0  0
 36 39  2  0  0  0  0
 31 40  1  0  0  0  0
 40 41  1  0  0  0  0
 41 42  1  0  0  0  0
 42 43  1  0  0  0  0
 43 44  1  0  0  0  0
 44 45  1  0  0  0  0
 45 46  2  0  0  0  0
 46 47  1  0  0  0  0
 47 48  1  0  0  0  0
 45 49  1  0  0  0  0
 49 50  1  0  0  0  0
 50 51  1  0  0  0  0
 51 52  1  0  0  0  0
 52 53  1  0  0  0  0
 53 54  1  0  0  0  0
 54 55  2  0  0  0  0
 55 56  1  0  0  0  0
 56 57  2  0  0  0  0
 57 58  1  0  0  0  0
 58 59  1  0  0  0  0
 59 60  1  0  0  0  0
 58 61  2  0  0  0  0
 53 62  2  0  0  0  0
 62 63  1  0  0  0  0
 63 64  1  0  0  0  0
 64 65  1  0  0  0  0
 65 66  1  0  0  0  0
 66 67  1  0  0  0  0
 67 68  1  0  0  0  0
 68 69  1  0  0  0  0
 69 70  1  0  0  0  0
 70 71  1  0  0  0  0
 71 72  1  0  0  0  0
 69 73  1  0  0  0  0
 73 74  1  0  0  0  0
 66 75  1  0  0  0  0
 75 76  1  0  0  0  0
 62 77  1  0  0  0  0
 77 78  2  0  0  0  0
 78 79  1  0  0  0  0
 79 80  2  0  0  0  0
 80 81  1  0  0  0  0
 81 82  2  0  0  0  0
 80 83  1  0  0  0  0
 83 84  2  0  0  0  0
 84 85  1  0  0  0  0
 85 86  2  0  0  0  0
 85 87  1  0  0  0  0
 87 88  2  0  0  0  0
 88 89  1  0  0  0  0
 89 90  2  0  0  0  0
 90 91  1  0  0  0  0
 90 92  1  0  0  0  0
 92 93  2  0  0  0  0
 93 94  1  0  0  0  0
 94 95  2  0  0  0  0
 95 96  1  0  0  0  0
 96 97  3  0  0  0  0
 95 98  1  0  0  0  0
 98 99  3  0  0  0  0
 16  2  1  0  0  0  0
 29 22  1  0  0  0  0
 72 30  1  0  0  0  0
 82 77  1  0  0  0  0
 94 84  1  0  0  0  0
 15  5  1  0  0  0  0
 39 32  1  0  0  0  0
 71 40  2  0  0  0  0
 93 87  1  0  0  0  0
 13  7  1  0  0  0  0
 70 42  2  0  0  0  0
 68 43  2  0  0  0  0
 48 44  2  0  0  0  0
 67 49  2  0  0  0  0
 65 50  2  0  0  0  0
 64 52  2  0  0  0  0
 61 54  1  0  0  0  0
  1100  1  0  0  0  0
  6101  1  0  0  0  0
  8102  1  0  0  0  0
  9103  1  0  0  0  0
 12104  1  0  0  0  0
 14105  1  0  0  0  0
 23106  1  0  0  0  0
 26107  1  0  0  0  0
 26108  1  0  0  0  0
 27109  1  0  0  0  0
 27110  1  0  0  0  0
 27111  1  0  0  0  0
 33112  1  0  0  0  0
 34113  1  0  0  0  0
 35114  1  0  0  0  0
 37115  1  0  0  0  0
 37116  1  0  0  0  0
 38117  1  0  0  0  0
 38118  1  0  0  0  0
 38119  1  0  0  0  0
 39120  1  0  0  0  0
 55121  1  0  0  0  0
 56122  1  0  0  0  0
 57123  1  0  0  0  0
 59124  1  0  0  0  0
 59125  1  0  0  0  0
 60126  1  0  0  0  0
 60127  1  0  0  0  0
 60128  1  0  0  0  0
 61129  1  0  0  0  0
 73130  1  0  0  0  0
 73131  1  0  0  0  0
 74132  1  0  0  0  0
 74133  1  0  0  0  0
 74134  1  0  0  0  0
 75135  1  0  0  0  0
 75136  1  0  0  0  0
 76137  1  0  0  0  0
 76138  1  0  0  0  0
 76139  1  0  0  0  0
 78140  1  0  0  0  0
 79141  1  0  0  0  0
 83142  1  0  0  0  0
 88143  1  0  0  0  0
 89144  1  0  0  0  0
 91145  1  0  0  0  0
 91146  1  0  0  0  0
 91147  1  0  0  0  0
 92148  1  0  0  0  0
M  END
