
  xtb     02112208493D
 energy: -269.982224641268 gnorm: 0.000642094150 xtb: 6.4.1 (unknown)
155171  0     0  0            999 V2000
   -2.3385   -9.2321    5.7259 C   0  0  0  0  0  0  0  0  0  0  0  0
   -2.7174   -8.4739    6.8087 C   0  0  0  0  0  0  0  0  0  0  0  0
   -2.8495   -7.0163    6.8123 C   0  0  0  0  0  0  0  0  0  0  0  0
   -2.6423   -6.2491    5.8853 O   0  0  0  0  0  0  0  0  0  0  0  0
   -3.2823   -6.6445    8.1689 C   0  0  0  0  0  0  0  0  0  0  0  0
   -3.5474   -5.4051    8.6734 C   0  0  0  0  0  0  0  0  0  0  0  0
   -3.9561   -5.2841   10.0206 C   0  0  0  0  0  0  0  0  0  0  0  0
   -4.2462   -4.0298   10.5939 C   0  0  0  0  0  0  0  0  0  0  0  0
   -4.6421   -3.9262   11.8987 C   0  0  0  0  0  0  0  0  0  0  0  0
   -4.7559   -5.0927   12.6663 C   0  0  0  0  0  0  0  0  0  0  0  0
   -5.1463   -4.9714   13.9487 F   0  0  0  0  0  0  0  0  0  0  0  0
   -4.4865   -6.3338   12.1593 C   0  0  0  0  0  0  0  0  0  0  0  0
   -4.0789   -6.4589   10.8173 C   0  0  0  0  0  0  0  0  0  0  0  0
   -3.7955   -7.7308   10.2644 C   0  0  0  0  0  0  0  0  0  0  0  0
   -3.4025   -7.8242    8.9567 C   0  0  0  0  0  0  0  0  0  0  0  0
   -3.0510   -8.9745    8.1249 C   0  0  0  0  0  0  0  0  0  0  0  0
   -3.0485  -10.2810    8.5480 C   0  0  0  0  0  0  0  0  0  0  0  0
   -2.7106  -11.4010    7.7625 C   0  0  0  0  0  0  0  0  0  0  0  0
   -2.4521  -12.3635    7.1899 N   0  0  0  0  0  0  0  0  0  0  0  0
   -3.3901  -10.6890    9.8537 C   0  0  0  0  0  0  0  0  0  0  0  0
   -3.6557  -11.0920   10.8957 N   0  0  0  0  0  0  0  0  0  0  0  0
   -2.0140   -8.8401    4.4225 C   0  0  0  0  0  0  0  0  0  0  0  0
   -1.6383   -9.7637    3.4454 C   0  0  0  0  0  0  0  0  0  0  0  0
   -1.3606   -9.2080    2.2057 C   0  0  0  0  0  0  0  0  0  0  0  0
   -0.7219  -10.0523    0.8063 S   0  0  0  0  0  0  0  0  0  0  0  0
   -0.1661  -11.6548    1.4975 C   0  0  0  0  0  0  0  0  0  0  0  0
   -1.2633  -12.7018    1.5031 C   0  0  0  0  0  0  0  0  0  0  0  0
   -1.5494   -7.8193    2.2052 C   0  0  0  0  0  0  0  0  0  0  0  0
   -2.0204   -7.2239    3.7641 S   0  0  0  0  0  0  0  0  0  0  0  0
   -1.3630   -6.8952    1.1418 C   0  0  0  0  0  0  0  0  0  0  0  0
   -1.6374   -7.0244   -0.2111 C   0  0  0  0  0  0  0  0  0  0  0  0
   -2.3795   -8.1340   -0.8035 C   0  0  0  0  0  0  0  0  0  0  0  0
   -2.0170   -8.6555   -2.0424 C   0  0  0  0  0  0  0  0  0  0  0  0
   -2.7369   -9.7032   -2.5826 C   0  0  0  0  0  0  0  0  0  0  0  0
   -3.8227  -10.2314   -1.9052 C   0  0  0  0  0  0  0  0  0  0  0  0
   -4.2152   -9.7049   -0.6813 C   0  0  0  0  0  0  0  0  0  0  0  0
   -5.3743  -10.2796    0.0819 C   0  0  0  0  0  0  0  0  0  0  0  0
   -4.8758  -11.2188    1.1814 C   0  0  0  0  0  0  0  0  0  0  0  0
   -3.4882   -8.6554   -0.1430 C   0  0  0  0  0  0  0  0  0  0  0  0
   -1.2416   -5.8746   -0.9208 C   0  0  0  0  0  0  0  0  0  0  0  0
   -1.3310   -5.4440   -2.6117 S   0  0  0  0  0  0  0  0  0  0  0  0
   -0.6563   -3.8974   -2.2294 C   0  0  0  0  0  0  0  0  0  0  0  0
   -0.2324   -2.7316   -2.8858 C   0  0  0  0  0  0  0  0  0  0  0  0
   -0.1301   -2.4205   -4.2590 C   0  0  0  0  0  0  0  0  0  0  0  0
    0.4867   -1.1836   -4.6452 C   0  0  0  0  0  0  0  0  0  0  0  0
    0.5749   -1.0510   -5.9594 N   0  0  0  0  0  0  0  0  0  0  0  0
   -0.0674   -2.3657   -6.6515 S   0  0  0  0  0  0  0  0  0  0  0  0
   -0.4819   -3.1570   -5.3014 N   0  0  0  0  0  0  0  0  0  0  0  0
    0.8559   -0.2621   -3.6411 C   0  0  0  0  0  0  0  0  0  0  0  0
    1.3340    1.0557   -3.7281 C   0  0  0  0  0  0  0  0  0  0  0  0
    1.7979    2.2047   -4.9368 S   0  0  0  0  0  0  0  0  0  0  0  0
    2.0501    3.3870   -3.6755 C   0  0  0  0  0  0  0  0  0  0  0  0
    2.4695    4.7285   -3.7083 C   0  0  0  0  0  0  0  0  0  0  0  0
    2.8021    5.4316   -4.9523 C   0  0  0  0  0  0  0  0  0  0  0  0
    1.8573    5.5159   -5.9683 C   0  0  0  0  0  0  0  0  0  0  0  0
    2.1656    6.1888   -7.1356 C   0  0  0  0  0  0  0  0  0  0  0  0
    3.4089    6.7722   -7.2965 C   0  0  0  0  0  0  0  0  0  0  0  0
    4.3702    6.6800   -6.2983 C   0  0  0  0  0  0  0  0  0  0  0  0
    5.7348    7.2753   -6.4852 C   0  0  0  0  0  0  0  0  0  0  0  0
    6.6974    6.2441   -7.0769 C   0  0  0  0  0  0  0  0  0  0  0  0
    4.0599    5.9949   -5.1346 C   0  0  0  0  0  0  0  0  0  0  0  0
    2.5193    5.2757   -2.4375 C   0  0  0  0  0  0  0  0  0  0  0  0
    2.0672    4.1055   -1.1946 S   0  0  0  0  0  0  0  0  0  0  0  0
    1.7923    2.8939   -2.3934 C   0  0  0  0  0  0  0  0  0  0  0  0
    1.3849    1.5558   -2.4245 C   0  0  0  0  0  0  0  0  0  0  0  0
    0.9941    0.5922   -1.5289 N   0  0  0  0  0  0  0  0  0  0  0  0
    0.6679   -0.5432   -2.2593 C   0  0  0  0  0  0  0  0  0  0  0  0
    0.2388   -1.8410   -1.8794 C   0  0  0  0  0  0  0  0  0  0  0  0
    0.1526   -2.4807   -0.6563 N   0  0  0  0  0  0  0  0  0  0  0  0
   -0.3920   -3.7198   -0.8682 C   0  0  0  0  0  0  0  0  0  0  0  0
   -0.7158   -4.8572   -0.1187 C   0  0  0  0  0  0  0  0  0  0  0  0
   -0.6789   -5.3264    1.5433 S   0  0  0  0  0  0  0  0  0  0  0  0
    0.8273   -2.1971    0.5899 C   0  0  0  0  0  0  0  0  0  0  0  0
   -0.1463   -1.8271    1.7076 C   0  0  0  0  0  0  0  0  0  0  0  0
    0.4755    1.0228   -0.2478 C   0  0  0  0  0  0  0  0  0  0  0  0
   -1.0381    1.2177   -0.3097 C   0  0  0  0  0  0  0  0  0  0  0  0
    2.7919    6.6091   -2.0360 C   0  0  0  0  0  0  0  0  0  0  0  0
    2.8856    7.0384   -0.7221 C   0  0  0  0  0  0  0  0  0  0  0  0
    3.1144    8.4048   -0.6138 C   0  0  0  0  0  0  0  0  0  0  0  0
    3.3046    9.3026    0.8684 S   0  0  0  0  0  0  0  0  0  0  0  0
    3.0825    8.0129    2.1531 C   0  0  0  0  0  0  0  0  0  0  0  0
    3.2106    8.6634    3.5170 C   0  0  0  0  0  0  0  0  0  0  0  0
    3.1951    9.0566   -1.8632 C   0  0  0  0  0  0  0  0  0  0  0  0
    2.9929    7.9071   -3.1682 S   0  0  0  0  0  0  0  0  0  0  0  0
    3.3982   10.4305   -1.9899 C   0  0  0  0  0  0  0  0  0  0  0  0
    3.5154   11.2116   -3.1166 C   0  0  0  0  0  0  0  0  0  0  0  0
    3.4978   10.7274   -4.5015 C   0  0  0  0  0  0  0  0  0  0  0  0
    3.3626    9.5767   -4.8882 O   0  0  0  0  0  0  0  0  0  0  0  0
    3.6860   11.9109   -5.3486 C   0  0  0  0  0  0  0  0  0  0  0  0
    3.7453   12.0009   -6.7239 C   0  0  0  0  0  0  0  0  0  0  0  0
    3.9269   13.2438   -7.3104 C   0  0  0  0  0  0  0  0  0  0  0  0
    4.0485   14.3850   -6.5167 C   0  0  0  0  0  0  0  0  0  0  0  0
    4.2271   15.6364   -6.9939 O   0  0  0  0  0  0  0  0  0  0  0  0
    4.2981   15.8404   -8.3856 C   0  0  0  0  0  0  0  0  0  0  0  0
    3.9884   14.2913   -5.1166 C   0  0  0  0  0  0  0  0  0  0  0  0
    3.8066   13.0553   -4.5367 C   0  0  0  0  0  0  0  0  0  0  0  0
    3.6986   12.6453   -3.1336 C   0  0  0  0  0  0  0  0  0  0  0  0
    3.7501   13.4982   -2.0600 C   0  0  0  0  0  0  0  0  0  0  0  0
    3.9281   14.8933   -2.1649 C   0  0  0  0  0  0  0  0  0  0  0  0
    4.0719   16.0328   -2.1649 N   0  0  0  0  0  0  0  0  0  0  0  0
    3.6285   13.1365   -0.7022 C   0  0  0  0  0  0  0  0  0  0  0  0
    3.5406   12.9446    0.4276 N   0  0  0  0  0  0  0  0  0  0  0  0
   -2.2796  -10.3032    5.8754 H   0  0  0  0  0  0  0  0  0  0  0  0
   -3.4475   -4.5274    8.0523 H   0  0  0  0  0  0  0  0  0  0  0  0
   -4.1509   -3.1454    9.9818 H   0  0  0  0  0  0  0  0  0  0  0  0
   -4.8689   -2.9745   12.3524 H   0  0  0  0  0  0  0  0  0  0  0  0
   -4.5853   -7.2105   12.7802 H   0  0  0  0  0  0  0  0  0  0  0  0
   -3.8995   -8.5984   10.8956 H   0  0  0  0  0  0  0  0  0  0  0  0
   -1.5696  -10.8111    3.6766 H   0  0  0  0  0  0  0  0  0  0  0  0
    0.6435  -11.9550    0.8320 H   0  0  0  0  0  0  0  0  0  0  0  0
    0.2435  -11.4714    2.4894 H   0  0  0  0  0  0  0  0  0  0  0  0
   -2.0918  -12.4068    2.1421 H   0  0  0  0  0  0  0  0  0  0  0  0
   -1.6447  -12.8460    0.4948 H   0  0  0  0  0  0  0  0  0  0  0  0
   -0.8665  -13.6483    1.8652 H   0  0  0  0  0  0  0  0  0  0  0  0
   -1.1606   -8.2559   -2.5629 H   0  0  0  0  0  0  0  0  0  0  0  0
   -2.4476  -10.1143   -3.5384 H   0  0  0  0  0  0  0  0  0  0  0  0
   -4.3764  -11.0545   -2.3339 H   0  0  0  0  0  0  0  0  0  0  0  0
   -6.0304  -10.8302   -0.5945 H   0  0  0  0  0  0  0  0  0  0  0  0
   -5.9519   -9.4714    0.5361 H   0  0  0  0  0  0  0  0  0  0  0  0
   -4.2205  -10.6837    1.8659 H   0  0  0  0  0  0  0  0  0  0  0  0
   -5.7119  -11.6236    1.7470 H   0  0  0  0  0  0  0  0  0  0  0  0
   -4.3193  -12.0452    0.7453 H   0  0  0  0  0  0  0  0  0  0  0  0
   -3.7943   -8.2250    0.8003 H   0  0  0  0  0  0  0  0  0  0  0  0
    0.8818    5.0729   -5.8323 H   0  0  0  0  0  0  0  0  0  0  0  0
    1.4277    6.2630   -7.9209 H   0  0  0  0  0  0  0  0  0  0  0  0
    3.6371    7.3081   -8.2065 H   0  0  0  0  0  0  0  0  0  0  0  0
    5.6701    8.1366   -7.1521 H   0  0  0  0  0  0  0  0  0  0  0  0
    6.1169    7.6210   -5.5230 H   0  0  0  0  0  0  0  0  0  0  0  0
    7.6863    6.6771   -7.2097 H   0  0  0  0  0  0  0  0  0  0  0  0
    6.7810    5.3825   -6.4183 H   0  0  0  0  0  0  0  0  0  0  0  0
    6.3358    5.8999   -8.0435 H   0  0  0  0  0  0  0  0  0  0  0  0
    4.8014    5.9015   -4.3534 H   0  0  0  0  0  0  0  0  0  0  0  0
    1.3654   -3.1047    0.8872 H   0  0  0  0  0  0  0  0  0  0  0  0
    1.5720   -1.4193    0.4156 H   0  0  0  0  0  0  0  0  0  0  0  0
   -0.7808   -2.6771    1.9430 H   0  0  0  0  0  0  0  0  0  0  0  0
   -0.7852   -0.9959    1.4240 H   0  0  0  0  0  0  0  0  0  0  0  0
    0.4084   -1.5591    2.6028 H   0  0  0  0  0  0  0  0  0  0  0  0
    0.7360    0.3221    0.5404 H   0  0  0  0  0  0  0  0  0  0  0  0
    0.9604    1.9754   -0.0197 H   0  0  0  0  0  0  0  0  0  0  0  0
   -1.4082    1.5693    0.6496 H   0  0  0  0  0  0  0  0  0  0  0  0
   -1.2907    1.9538   -1.0696 H   0  0  0  0  0  0  0  0  0  0  0  0
   -1.5348    0.2828   -0.5610 H   0  0  0  0  0  0  0  0  0  0  0  0
    2.7892    6.3619    0.1080 H   0  0  0  0  0  0  0  0  0  0  0  0
    3.8536    7.2571    2.0045 H   0  0  0  0  0  0  0  0  0  0  0  0
    2.0939    7.5747    2.0172 H   0  0  0  0  0  0  0  0  0  0  0  0
    3.0772    7.9165    4.2966 H   0  0  0  0  0  0  0  0  0  0  0  0
    4.1919    9.1176    3.6312 H   0  0  0  0  0  0  0  0  0  0  0  0
    2.4581    9.4383    3.6410 H   0  0  0  0  0  0  0  0  0  0  0  0
    3.4705   10.9398   -1.0353 H   0  0  0  0  0  0  0  0  0  0  0  0
    3.6475   11.1113   -7.3271 H   0  0  0  0  0  0  0  0  0  0  0  0
    3.9713   13.3154   -8.3854 H   0  0  0  0  0  0  0  0  0  0  0  0
    3.3720   15.5369   -8.8836 H   0  0  0  0  0  0  0  0  0  0  0  0
    4.4425   16.9114   -8.5166 H   0  0  0  0  0  0  0  0  0  0  0  0
    5.1440   15.3048   -8.8274 H   0  0  0  0  0  0  0  0  0  0  0  0
    4.0873   15.2000   -4.5473 H   0  0  0  0  0  0  0  0  0  0  0  0
  1  2  2  0  0  0  0
  2  3  1  0  0  0  0
  3  4  2  0  0  0  0
  3  5  1  0  0  0  0
  5  6  2  0  0  0  0
  6  7  1  0  0  0  0
  7  8  2  0  0  0  0
  8  9  1  0  0  0  0
  9 10  2  0  0  0  0
 10 11  1  0  0  0  0
 10 12  1  0  0  0  0
 12 13  2  0  0  0  0
 13 14  1  0  0  0  0
 14 15  2  0  0  0  0
 15 16  1  0  0  0  0
 16 17  2  0  0  0  0
 17 18  1  0  0  0  0
 18 19  3  0  0  0  0
 17 20  1  0  0  0  0
 20 21  3  0  0  0  0
  1 22  1  0  0  0  0
 22 23  2  0  0  0  0
 23 24  1  0  0  0  0
 24 25  1  0  0  0  0
 25 26  1  0  0  0  0
 26 27  1  0  0  0  0
 24 28  2  0  0  0  0
 28 29  1  0  0  0  0
 28 30  1  0  0  0  0
 30 31  2  0  0  0  0
 31 32  1  0  0  0  0
 32 33  2  0  0  0  0
 33 34  1  0  0  0  0
 34 35  2  0  0  0  0
 35 36  1  0  0  0  0
 36 37  1  0  0  0  0
 37 38  1  0  0  0  0
 36 39  2  0  0  0  0
 31 40  1  0  0  0  0
 40 41  1  0  0  0  0
 41 42  1  0  0  0  0
 42 43  1  0  0  0  0
 43 44  1  0  0  0  0
 44 45  1  0  0  0  0
 45 46  2  0  0  0  0
 46 47  1  0  0  0  0
 47 48  1  0  0  0  0
 45 49  1  0  0  0  0
 49 50  1  0  0  0  0
 50 51  1  0  0  0  0
 51 52  1  0  0  0  0
 52 53  1  0  0  0  0
 53 54  1  0  0  0  0
 54 55  2  0  0  0  0
 55 56  1  0  0  0  0
 56 57  2  0  0  0  0
 57 58  1  0  0  0  0
 58 59  1  0  0  0  0
 59 60  1  0  0  0  0
 58 61  2  0  0  0  0
 53 62  2  0  0  0  0
 62 63  1  0  0  0  0
 63 64  1  0  0  0  0
 64 65  1  0  0  0  0
 65 66  1  0  0  0  0
 66 67  1  0  0  0  0
 67 68  1  0  0  0  0
 68 69  1  0  0  0  0
 69 70  1  0  0  0  0
 70 71  1  0  0  0  0
 71 72  1  0  0  0  0
 69 73  1  0  0  0  0
 73 74  1  0  0  0  0
 66 75  1  0  0  0  0
 75 76  1  0  0  0  0
 62 77  1  0  0  0  0
 77 78  2  0  0  0  0
 78 79  1  0  0  0  0
 79 80  1  0  0  0  0
 80 81  1  0  0  0  0
 81 82  1  0  0  0  0
 79 83  2  0  0  0  0
 83 84  1  0  0  0  0
 83 85  1  0  0  0  0
 85 86  2  0  0  0  0
 86 87  1  0  0  0  0
 87 88  2  0  0  0  0
 87 89  1  0  0  0  0
 89 90  2  0  0  0  0
 90 91  1  0  0  0  0
 91 92  2  0  0  0  0
 92 93  1  0  0  0  0
 93 94  1  0  0  0  0
 92 95  1  0  0  0  0
 95 96  2  0  0  0  0
 96 97  1  0  0  0  0
 97 98  2  0  0  0  0
 98 99  1  0  0  0  0
 99100  3  0  0  0  0
 98101  1  0  0  0  0
101102  3  0  0  0  0
 16  2  1  0  0  0  0
 29 22  1  0  0  0  0
 72 30  1  0  0  0  0
 84 77  1  0  0  0  0
 97 86  1  0  0  0  0
 15  5  1  0  0  0  0
 39 32  1  0  0  0  0
 71 40  2  0  0  0  0
 96 89  1  0  0  0  0
 13  7  1  0  0  0  0
 70 42  2  0  0  0  0
 68 43  2  0  0  0  0
 48 44  2  0  0  0  0
 67 49  2  0  0  0  0
 65 50  2  0  0  0  0
 64 52  2  0  0  0  0
 61 54  1  0  0  0  0
  1103  1  0  0  0  0
  6104  1  0  0  0  0
  8105  1  0  0  0  0
  9106  1  0  0  0  0
 12107  1  0  0  0  0
 14108  1  0  0  0  0
 23109  1  0  0  0  0
 26110  1  0  0  0  0
 26111  1  0  0  0  0
 27112  1  0  0  0  0
 27113  1  0  0  0  0
 27114  1  0  0  0  0
 33115  1  0  0  0  0
 34116  1  0  0  0  0
 35117  1  0  0  0  0
 37118  1  0  0  0  0
 37119  1  0  0  0  0
 38120  1  0  0  0  0
 38121  1  0  0  0  0
 38122  1  0  0  0  0
 39123  1  0  0  0  0
 55124  1  0  0  0  0
 56125  1  0  0  0  0
 57126  1  0  0  0  0
 59127  1  0  0  0  0
 59128  1  0  0  0  0
 60129  1  0  0  0  0
 60130  1  0  0  0  0
 60131  1  0  0  0  0
 61132  1  0  0  0  0
 73133  1  0  0  0  0
 73134  1  0  0  0  0
 74135  1  0  0  0  0
 74136  1  0  0  0  0
 74137  1  0  0  0  0
 75138  1  0  0  0  0
 75139  1  0  0  0  0
 76140  1  0  0  0  0
 76141  1  0  0  0  0
 76142  1  0  0  0  0
 78143  1  0  0  0  0
 81144  1  0  0  0  0
 81145  1  0  0  0  0
 82146  1  0  0  0  0
 82147  1  0  0  0  0
 82148  1  0  0  0  0
 85149  1  0  0  0  0
 90150  1  0  0  0  0
 91151  1  0  0  0  0
 94152  1  0  0  0  0
 94153  1  0  0  0  0
 94154  1  0  0  0  0
 95155  1  0  0  0  0
M  END
