
  xtb     02052214423D
 energy: -266.965924596662 gnorm: 0.000644798842 xtb: 6.4.1 (unknown)
151167  0     0  0            999 V2000
   -7.5011    7.2854    0.1253 C   0  0  0  0  0  0  0  0  0  0  0  0
   -8.4175    8.2067    0.5373 C   0  0  0  0  0  0  0  0  0  0  0  0
   -9.6445    8.4226   -0.2755 C   0  0  0  0  0  0  0  0  0  0  0  0
   -9.8434    8.0344   -1.4044 O   0  0  0  0  0  0  0  0  0  0  0  0
  -10.5717    9.1517    0.6113 C   0  0  0  0  0  0  0  0  0  0  0  0
  -11.8774    9.4870    0.3991 C   0  0  0  0  0  0  0  0  0  0  0  0
  -12.5905   10.1597    1.4168 C   0  0  0  0  0  0  0  0  0  0  0  0
  -13.9413   10.5269    1.2496 C   0  0  0  0  0  0  0  0  0  0  0  0
  -14.6248   11.1703    2.2436 C   0  0  0  0  0  0  0  0  0  0  0  0
  -13.9606   11.4640    3.4421 C   0  0  0  0  0  0  0  0  0  0  0  0
  -14.6498   12.0968    4.4094 F   0  0  0  0  0  0  0  0  0  0  0  0
  -12.6520   11.1311    3.6561 C   0  0  0  0  0  0  0  0  0  0  0  0
  -11.9322   10.4692    2.6426 C   0  0  0  0  0  0  0  0  0  0  0  0
  -10.5750   10.1173    2.8312 C   0  0  0  0  0  0  0  0  0  0  0  0
   -9.9034    9.4735    1.8278 C   0  0  0  0  0  0  0  0  0  0  0  0
   -8.5182    9.0187    1.7287 C   0  0  0  0  0  0  0  0  0  0  0  0
   -7.4770    9.4926    2.4858 C   0  0  0  0  0  0  0  0  0  0  0  0
   -7.6385   10.3615    3.5834 C   0  0  0  0  0  0  0  0  0  0  0  0
   -7.7180   11.0590    4.4919 N   0  0  0  0  0  0  0  0  0  0  0  0
   -6.1202    9.2468    2.1977 C   0  0  0  0  0  0  0  0  0  0  0  0
   -5.0007    9.1241    1.9744 N   0  0  0  0  0  0  0  0  0  0  0  0
   -6.5030    6.6434    0.8888 C   0  0  0  0  0  0  0  0  0  0  0  0
   -6.4317    6.4308    2.2502 C   0  0  0  0  0  0  0  0  0  0  0  0
   -5.3174    5.6897    2.6531 C   0  0  0  0  0  0  0  0  0  0  0  0
   -5.1359    5.2352    4.3401 S   0  0  0  0  0  0  0  0  0  0  0  0
   -4.5535    3.4958    4.2214 C   0  0  0  0  0  0  0  0  0  0  0  0
   -5.0239    2.7347    5.4452 C   0  0  0  0  0  0  0  0  0  0  0  0
   -4.4726    5.3634    1.5976 C   0  0  0  0  0  0  0  0  0  0  0  0
   -5.1600    5.8729    0.0854 S   0  0  0  0  0  0  0  0  0  0  0  0
   -3.1956    4.7315    1.6115 C   0  0  0  0  0  0  0  0  0  0  0  0
   -2.1607    4.9009    2.5159 C   0  0  0  0  0  0  0  0  0  0  0  0
   -2.1393    5.8919    3.5907 C   0  0  0  0  0  0  0  0  0  0  0  0
   -2.6231    7.1820    3.3843 C   0  0  0  0  0  0  0  0  0  0  0  0
   -2.5893    8.1004    4.4147 C   0  0  0  0  0  0  0  0  0  0  0  0
   -2.0718    7.7492    5.6497 C   0  0  0  0  0  0  0  0  0  0  0  0
   -1.5728    6.4717    5.8689 C   0  0  0  0  0  0  0  0  0  0  0  0
   -0.9583    6.0913    7.1849 C   0  0  0  0  0  0  0  0  0  0  0  0
    0.5631    6.2393    7.1219 C   0  0  0  0  0  0  0  0  0  0  0  0
   -1.6064    5.5538    4.8310 C   0  0  0  0  0  0  0  0  0  0  0  0
   -1.0838    4.0406    2.2166 C   0  0  0  0  0  0  0  0  0  0  0  0
    0.4652    3.7740    2.9792 S   0  0  0  0  0  0  0  0  0  0  0  0
    0.8381    2.5987    1.7658 C   0  0  0  0  0  0  0  0  0  0  0  0
    1.8593    1.6851    1.4468 C   0  0  0  0  0  0  0  0  0  0  0  0
    3.0337    1.2774    2.1194 C   0  0  0  0  0  0  0  0  0  0  0  0
    3.7770    0.1511    1.6151 C   0  0  0  0  0  0  0  0  0  0  0  0
    4.7981   -0.1662    2.3950 N   0  0  0  0  0  0  0  0  0  0  0  0
    4.8336    0.8609    3.6446 S   0  0  0  0  0  0  0  0  0  0  0  0
    3.5419    1.7508    3.2461 N   0  0  0  0  0  0  0  0  0  0  0  0
    3.4007   -0.4276    0.3816 C   0  0  0  0  0  0  0  0  0  0  0  0
    3.9541   -1.4470   -0.4151 C   0  0  0  0  0  0  0  0  0  0  0  0
    5.2130   -2.6323   -0.3347 S   0  0  0  0  0  0  0  0  0  0  0  0
    4.7436   -3.1994   -1.9177 C   0  0  0  0  0  0  0  0  0  0  0  0
    5.2083   -4.2481   -2.7232 C   0  0  0  0  0  0  0  0  0  0  0  0
    6.3317   -5.1366   -2.3864 C   0  0  0  0  0  0  0  0  0  0  0  0
    7.5759   -4.9269   -2.9696 C   0  0  0  0  0  0  0  0  0  0  0  0
    8.6175   -5.7892   -2.6841 C   0  0  0  0  0  0  0  0  0  0  0  0
    8.4213   -6.8591   -1.8311 C   0  0  0  0  0  0  0  0  0  0  0  0
    7.1864   -7.0737   -1.2333 C   0  0  0  0  0  0  0  0  0  0  0  0
    6.9932   -8.2158   -0.2805 C   0  0  0  0  0  0  0  0  0  0  0  0
    7.4464   -7.8220    1.1266 C   0  0  0  0  0  0  0  0  0  0  0  0
    6.1488   -6.1960   -1.5075 C   0  0  0  0  0  0  0  0  0  0  0  0
    4.4832   -4.3472   -3.8983 C   0  0  0  0  0  0  0  0  0  0  0  0
    3.2370   -3.1049   -4.0220 S   0  0  0  0  0  0  0  0  0  0  0  0
    3.6764   -2.4828   -2.4720 C   0  0  0  0  0  0  0  0  0  0  0  0
    3.2232   -1.4810   -1.6097 C   0  0  0  0  0  0  0  0  0  0  0  0
    2.2268   -0.5344   -1.5824 N   0  0  0  0  0  0  0  0  0  0  0  0
    2.3007    0.0892   -0.3492 C   0  0  0  0  0  0  0  0  0  0  0  0
    1.4421    1.0268    0.2617 C   0  0  0  0  0  0  0  0  0  0  0  0
    0.1855    1.4778   -0.1011 N   0  0  0  0  0  0  0  0  0  0  0  0
   -0.1760    2.4338    0.8163 C   0  0  0  0  0  0  0  0  0  0  0  0
   -1.2774    3.2569    1.0772 C   0  0  0  0  0  0  0  0  0  0  0  0
   -2.8132    3.5653    0.3489 S   0  0  0  0  0  0  0  0  0  0  0  0
   -0.8310    0.7214   -0.8041 C   0  0  0  0  0  0  0  0  0  0  0  0
   -1.7588   -0.0011    0.1724 C   0  0  0  0  0  0  0  0  0  0  0  0
    1.7502    0.0699   -2.8111 C   0  0  0  0  0  0  0  0  0  0  0  0
    2.9069    0.6269   -3.6406 C   0  0  0  0  0  0  0  0  0  0  0  0
    4.5861   -5.3473   -4.8962 C   0  0  0  0  0  0  0  0  0  0  0  0
    3.8539   -5.4031   -6.0717 C   0  0  0  0  0  0  0  0  0  0  0  0
    4.1164   -6.5453   -6.8161 C   0  0  0  0  0  0  0  0  0  0  0  0
    3.3629   -6.9929   -8.3250 S   0  0  0  0  0  0  0  0  0  0  0  0
    2.6132   -5.4298   -8.9038 C   0  0  0  0  0  0  0  0  0  0  0  0
    3.6604   -4.4165   -9.3220 C   0  0  0  0  0  0  0  0  0  0  0  0
    5.0584   -7.4045   -6.2054 C   0  0  0  0  0  0  0  0  0  0  0  0
    5.6040   -6.7330   -4.6824 S   0  0  0  0  0  0  0  0  0  0  0  0
    5.4817   -8.6003   -6.7786 C   0  0  0  0  0  0  0  0  0  0  0  0
    6.3291   -9.5716   -6.2880 C   0  0  0  0  0  0  0  0  0  0  0  0
    6.9358   -9.5800   -4.9559 C   0  0  0  0  0  0  0  0  0  0  0  0
    6.8820   -8.7123   -4.1032 O   0  0  0  0  0  0  0  0  0  0  0  0
    7.6340  -10.8777   -4.8400 C   0  0  0  0  0  0  0  0  0  0  0  0
    8.3467  -11.4238   -3.7898 C   0  0  0  0  0  0  0  0  0  0  0  0
    8.5039  -10.7558   -2.6392 F   0  0  0  0  0  0  0  0  0  0  0  0
    8.9124  -12.6865   -3.9157 C   0  0  0  0  0  0  0  0  0  0  0  0
    8.7558  -13.3879   -5.0981 C   0  0  0  0  0  0  0  0  0  0  0  0
    8.0462  -12.8575   -6.1694 C   0  0  0  0  0  0  0  0  0  0  0  0
    7.4850  -11.5986   -6.0388 C   0  0  0  0  0  0  0  0  0  0  0  0
    6.6979  -10.7869   -6.9728 C   0  0  0  0  0  0  0  0  0  0  0  0
    6.4129  -11.1376   -8.2691 C   0  0  0  0  0  0  0  0  0  0  0  0
    5.7170  -10.3465   -9.2071 C   0  0  0  0  0  0  0  0  0  0  0  0
    5.1830   -9.7739  -10.0481 N   0  0  0  0  0  0  0  0  0  0  0  0
    6.8038  -12.3528   -8.8675 C   0  0  0  0  0  0  0  0  0  0  0  0
    7.0833  -13.3199   -9.4204 N   0  0  0  0  0  0  0  0  0  0  0  0
   -7.6024    6.9621   -0.9060 H   0  0  0  0  0  0  0  0  0  0  0  0
  -12.3624    9.2402   -0.5335 H   0  0  0  0  0  0  0  0  0  0  0  0
  -14.4313   10.2893    0.3174 H   0  0  0  0  0  0  0  0  0  0  0  0
  -15.6584   11.4573    2.1318 H   0  0  0  0  0  0  0  0  0  0  0  0
  -12.1718   11.3763    4.5905 H   0  0  0  0  0  0  0  0  0  0  0  0
  -10.1034   10.3565    3.7713 H   0  0  0  0  0  0  0  0  0  0  0  0
   -7.1910    6.7431    2.9444 H   0  0  0  0  0  0  0  0  0  0  0  0
   -4.9716    3.0791    3.3060 H   0  0  0  0  0  0  0  0  0  0  0  0
   -3.4661    3.5012    4.1616 H   0  0  0  0  0  0  0  0  0  0  0  0
   -6.1094    2.7399    5.5051 H   0  0  0  0  0  0  0  0  0  0  0  0
   -4.6790    1.7041    5.3942 H   0  0  0  0  0  0  0  0  0  0  0  0
   -4.6268    3.1923    6.3481 H   0  0  0  0  0  0  0  0  0  0  0  0
   -3.0172    7.4713    2.4226 H   0  0  0  0  0  0  0  0  0  0  0  0
   -2.9738    9.0950    4.2479 H   0  0  0  0  0  0  0  0  0  0  0  0
   -2.0544    8.4731    6.4515 H   0  0  0  0  0  0  0  0  0  0  0  0
   -1.2079    5.0552    7.4243 H   0  0  0  0  0  0  0  0  0  0  0  0
   -1.3531    6.7298    7.9772 H   0  0  0  0  0  0  0  0  0  0  0  0
    0.9737    5.6026    6.3414 H   0  0  0  0  0  0  0  0  0  0  0  0
    0.8327    7.2694    6.8998 H   0  0  0  0  0  0  0  0  0  0  0  0
    1.0123    5.9595    8.0719 H   0  0  0  0  0  0  0  0  0  0  0  0
   -1.2318    4.5533    4.9981 H   0  0  0  0  0  0  0  0  0  0  0  0
    7.7160   -4.0989   -3.6497 H   0  0  0  0  0  0  0  0  0  0  0  0
    9.5836   -5.6306   -3.1408 H   0  0  0  0  0  0  0  0  0  0  0  0
    9.2306   -7.5462   -1.6337 H   0  0  0  0  0  0  0  0  0  0  0  0
    7.5727   -9.0736   -0.6243 H   0  0  0  0  0  0  0  0  0  0  0  0
    5.9403   -8.5020   -0.2552 H   0  0  0  0  0  0  0  0  0  0  0  0
    8.4989   -7.5479    1.1230 H   0  0  0  0  0  0  0  0  0  0  0  0
    7.3059   -8.6498    1.8178 H   0  0  0  0  0  0  0  0  0  0  0  0
    6.8735   -6.9689    1.4844 H   0  0  0  0  0  0  0  0  0  0  0  0
    5.1777   -6.3498   -1.0580 H   0  0  0  0  0  0  0  0  0  0  0  0
   -1.4098    1.4121   -1.4255 H   0  0  0  0  0  0  0  0  0  0  0  0
   -0.3527   -0.0234   -1.4360 H   0  0  0  0  0  0  0  0  0  0  0  0
   -1.1845   -0.6708    0.8090 H   0  0  0  0  0  0  0  0  0  0  0  0
   -2.2918    0.7067    0.8008 H   0  0  0  0  0  0  0  0  0  0  0  0
   -2.4870   -0.5850   -0.3835 H   0  0  0  0  0  0  0  0  0  0  0  0
    1.2094   -0.6857   -3.3906 H   0  0  0  0  0  0  0  0  0  0  0  0
    1.0803    0.8919   -2.5629 H   0  0  0  0  0  0  0  0  0  0  0  0
    3.4793    1.3417   -3.0534 H   0  0  0  0  0  0  0  0  0  0  0  0
    3.5711   -0.1677   -3.9681 H   0  0  0  0  0  0  0  0  0  0  0  0
    2.5136    1.1316   -4.5187 H   0  0  0  0  0  0  0  0  0  0  0  0
    3.1519   -4.6345   -6.3418 H   0  0  0  0  0  0  0  0  0  0  0  0
    1.9532   -5.0526   -8.1241 H   0  0  0  0  0  0  0  0  0  0  0  0
    2.0087   -5.7390   -9.7562 H   0  0  0  0  0  0  0  0  0  0  0  0
    3.1747   -3.5191   -9.7000 H   0  0  0  0  0  0  0  0  0  0  0  0
    4.2887   -4.8298  -10.1072 H   0  0  0  0  0  0  0  0  0  0  0  0
    4.2952   -4.1409   -8.4825 H   0  0  0  0  0  0  0  0  0  0  0  0
    5.0468   -8.7862   -7.7545 H   0  0  0  0  0  0  0  0  0  0  0  0
    9.4647  -13.1018   -3.0876 H   0  0  0  0  0  0  0  0  0  0  0  0
    9.1940  -14.3696   -5.1912 H   0  0  0  0  0  0  0  0  0  0  0  0
    7.9416  -13.4299   -7.0756 H   0  0  0  0  0  0  0  0  0  0  0  0
  1  2  2  0  0  0  0
  2  3  1  0  0  0  0
  3  4  2  0  0  0  0
  3  5  1  0  0  0  0
  5  6  2  0  0  0  0
  6  7  1  0  0  0  0
  7  8  2  0  0  0  0
  8  9  1  0  0  0  0
  9 10  2  0  0  0  0
 10 11  1  0  0  0  0
 10 12  1  0  0  0  0
 12 13  2  0  0  0  0
 13 14  1  0  0  0  0
 14 15  2  0  0  0  0
 15 16  1  0  0  0  0
 16 17  2  0  0  0  0
 17 18  1  0  0  0  0
 18 19  3  0  0  0  0
 17 20  1  0  0  0  0
 20 21  3  0  0  0  0
  1 22  1  0  0  0  0
 22 23  2  0  0  0  0
 23 24  1  0  0  0  0
 24 25  1  0  0  0  0
 25 26  1  0  0  0  0
 26 27  1  0  0  0  0
 24 28  2  0  0  0  0
 28 29  1  0  0  0  0
 28 30  1  0  0  0  0
 30 31  2  0  0  0  0
 31 32  1  0  0  0  0
 32 33  2  0  0  0  0
 33 34  1  0  0  0  0
 34 35  2  0  0  0  0
 35 36  1  0  0  0  0
 36 37  1  0  0  0  0
 37 38  1  0  0  0  0
 36 39  2  0  0  0  0
 31 40  1  0  0  0  0
 40 41  1  0  0  0  0
 41 42  1  0  0  0  0
 42 43  1  0  0  0  0
 43 44  1  0  0  0  0
 44 45  1  0  0  0  0
 45 46  2  0  0  0  0
 46 47  1  0  0  0  0
 47 48  1  0  0  0  0
 45 49  1  0  0  0  0
 49 50  1  0  0  0  0
 50 51  1  0  0  0  0
 51 52  1  0  0  0  0
 52 53  1  0  0  0  0
 53 54  1  0  0  0  0
 54 55  2  0  0  0  0
 55 56  1  0  0  0  0
 56 57  2  0  0  0  0
 57 58  1  0  0  0  0
 58 59  1  0  0  0  0
 59 60  1  0  0  0  0
 58 61  2  0  0  0  0
 53 62  2  0  0  0  0
 62 63  1  0  0  0  0
 63 64  1  0  0  0  0
 64 65  1  0  0  0  0
 65 66  1  0  0  0  0
 66 67  1  0  0  0  0
 67 68  1  0  0  0  0
 68 69  1  0  0  0  0
 69 70  1  0  0  0  0
 70 71  1  0  0  0  0
 71 72  1  0  0  0  0
 69 73  1  0  0  0  0
 73 74  1  0  0  0  0
 66 75  1  0  0  0  0
 75 76  1  0  0  0  0
 62 77  1  0  0  0  0
 77 78  2  0  0  0  0
 78 79  1  0  0  0  0
 79 80  1  0  0  0  0
 80 81  1  0  0  0  0
 81 82  1  0  0  0  0
 79 83  2  0  0  0  0
 83 84  1  0  0  0  0
 83 85  1  0  0  0  0
 85 86  2  0  0  0  0
 86 87  1  0  0  0  0
 87 88  2  0  0  0  0
 87 89  1  0  0  0  0
 89 90  2  0  0  0  0
 90 91  1  0  0  0  0
 90 92  1  0  0  0  0
 92 93  2  0  0  0  0
 93 94  1  0  0  0  0
 94 95  2  0  0  0  0
 95 96  1  0  0  0  0
 96 97  2  0  0  0  0
 97 98  1  0  0  0  0
 98 99  3  0  0  0  0
 97100  1  0  0  0  0
100101  3  0  0  0  0
 16  2  1  0  0  0  0
 29 22  1  0  0  0  0
 72 30  1  0  0  0  0
 84 77  1  0  0  0  0
 96 86  1  0  0  0  0
 15  5  1  0  0  0  0
 39 32  1  0  0  0  0
 71 40  2  0  0  0  0
 95 89  1  0  0  0  0
 13  7  1  0  0  0  0
 70 42  2  0  0  0  0
 68 43  2  0  0  0  0
 48 44  2  0  0  0  0
 67 49  2  0  0  0  0
 65 50  2  0  0  0  0
 64 52  2  0  0  0  0
 61 54  1  0  0  0  0
  1102  1  0  0  0  0
  6103  1  0  0  0  0
  8104  1  0  0  0  0
  9105  1  0  0  0  0
 12106  1  0  0  0  0
 14107  1  0  0  0  0
 23108  1  0  0  0  0
 26109  1  0  0  0  0
 26110  1  0  0  0  0
 27111  1  0  0  0  0
 27112  1  0  0  0  0
 27113  1  0  0  0  0
 33114  1  0  0  0  0
 34115  1  0  0  0  0
 35116  1  0  0  0  0
 37117  1  0  0  0  0
 37118  1  0  0  0  0
 38119  1  0  0  0  0
 38120  1  0  0  0  0
 38121  1  0  0  0  0
 39122  1  0  0  0  0
 55123  1  0  0  0  0
 56124  1  0  0  0  0
 57125  1  0  0  0  0
 59126  1  0  0  0  0
 59127  1  0  0  0  0
 60128  1  0  0  0  0
 60129  1  0  0  0  0
 60130  1  0  0  0  0
 61131  1  0  0  0  0
 73132  1  0  0  0  0
 73133  1  0  0  0  0
 74134  1  0  0  0  0
 74135  1  0  0  0  0
 74136  1  0  0  0  0
 75137  1  0  0  0  0
 75138  1  0  0  0  0
 76139  1  0  0  0  0
 76140  1  0  0  0  0
 76141  1  0  0  0  0
 78142  1  0  0  0  0
 81143  1  0  0  0  0
 81144  1  0  0  0  0
 82145  1  0  0  0  0
 82146  1  0  0  0  0
 82147  1  0  0  0  0
 85148  1  0  0  0  0
 92149  1  0  0  0  0
 93150  1  0  0  0  0
 94151  1  0  0  0  0
M  END
