174

C          4.97720       -6.28620        6.70640
C          5.75730       -5.42530        7.43520
C          5.86850       -3.97690        7.21590
O          5.31150       -3.30880        6.36250
C          6.79700       -3.47750        8.24320
C          7.22220       -2.19930        8.46160
C          8.12590       -1.94600        9.51740
C          8.59840       -0.64600        9.78920
C          9.47350       -0.41480       10.81400
C          9.89930       -1.49510       11.59850
F         10.76080       -1.24810       12.60200
C          9.47180       -2.77500       11.37800
C          8.57040       -3.03130       10.32680
C          8.11100       -4.34570       10.07500
C          7.23500       -4.56800        9.04640
C          6.60070       -5.79010        8.55630
C          6.79340       -7.04230        9.08350
C          7.63350       -7.31640       10.18300
N          8.29660       -7.61140       11.07270
C          6.19940       -8.23480        8.62260
N          5.75940       -9.24980        8.31070
C          4.12910       -6.04120        5.61510
C          3.39950       -7.05260        5.00650
C          2.60320       -6.64950        3.93310
C          1.76020       -7.56910        3.16850
O          1.09910       -7.21450        2.21100
C          1.74320       -9.01280        3.63020
C          0.81410       -9.86380        2.77500
C          2.71890       -5.26120        3.69480
S          3.81560       -4.51700        4.82520
C          2.11430       -4.40910        2.74640
C          2.35250       -3.03100        2.70590
C          1.64970       -2.39990        1.70140
C          1.47430       -0.98720        1.20530
C          2.72550       -0.41230        0.56420
C          2.85200        0.96100        0.39660
C          3.96280        1.49210       -0.23070
C          4.97170        0.66890       -0.71350
C          6.20130        1.24940       -1.35040
C          7.28200        1.49730       -0.29600
C          4.83660       -0.70300       -0.55030
C          3.72620       -1.23970        0.07460
C          0.99060       -0.12990        2.35820
C         -0.34920        0.18100        2.53470
C         -0.75490        0.93820        3.61950
C          0.16140        1.39440        4.55630
C         -0.28690        2.18210        5.75350
C         -0.59930        1.24590        6.92260
C          1.49990        1.06270        4.38550
C          1.91060        0.31010        3.30310
C          0.45180       -1.19850        0.10060
C          0.13170       -2.57050       -0.03700
C          0.86210       -3.28150        0.96370
S          0.98650       -4.90360        1.49360
C         -0.76130       -3.02340       -1.00610
C         -1.34390       -2.07830       -1.81660
C         -2.34530       -2.29130       -2.94140
C         -3.68670       -2.82930       -2.47650
C         -4.06610       -2.80070       -1.14280
C         -5.31400       -3.25930       -0.76030
C         -6.21480       -3.74830       -1.69580
C         -7.58320       -4.20630       -1.28100
C         -8.56930       -3.03670       -1.30720
C         -5.83640       -3.75820       -3.03260
C         -4.59100       -3.30350       -3.41960
C         -1.70710       -3.19350       -3.98040
C         -1.77460       -4.57370       -3.83420
C         -1.15920       -5.40670       -4.74830
C         -0.45680       -4.88700       -5.82820
C          0.16670       -5.79650       -6.84720
C         -0.84270       -6.14060       -7.94440
C         -0.38700       -3.50760       -5.96600
C         -0.99800       -2.66910       -5.05140
C         -2.56010       -0.87320       -3.40650
C         -1.80640        0.00300       -2.63850
C         -1.02980       -0.70580       -1.67190
C         -0.11920       -0.25440       -0.72010
S         -2.06560        1.64280       -3.06530
C         -3.20410        1.14740       -4.30220
C         -3.34970       -0.23070       -4.35250
C         -3.86330        2.12270       -5.09340
C         -4.63740        1.89120       -6.22380
C         -5.17850        3.05210       -6.75790
C         -6.06820        3.09470       -7.94800
O         -7.11470        3.69770       -7.94370
C         -5.52400        2.39370       -9.16770
C         -4.33740        3.20250       -9.70060
C         -4.82990        4.20770       -6.03530
S         -3.80570        3.80420       -4.68330
C         -5.19780        5.49620       -6.44230
C         -4.99860        6.70330       -5.82450
C         -4.50280        6.90450       -4.45800
O         -3.97730        6.08130       -3.72970
C         -4.79370        8.31220       -4.12970
C         -4.60180        8.97500       -2.95260
C         -4.98490       10.33190       -2.85670
C         -4.81480       11.06250       -1.66320
C         -5.19780       12.37230       -1.57800
C         -5.76640       12.98630       -2.70190
F         -6.13870       14.27550       -2.59870
C         -5.95170       12.32460       -3.88400
C         -5.56230       10.97540       -3.98980
C         -5.73950       10.26490       -5.20060
C         -5.35840        8.95250       -5.27040
C         -5.40880        7.98370       -6.36120
C         -5.68470        8.26060       -7.67540
C         -5.53420        7.33680       -8.73090
N         -5.37330        6.65090       -9.63830
C         -6.07090        9.53250       -8.14460
N         -6.39520       10.54480       -8.57820
H          4.99560       -7.32890        6.99870
H          6.87340       -1.39130        7.83600
H          8.25590        0.17010        9.17090
H          9.84480        0.57330       11.03550
H          9.82080       -3.58270       12.00220
H          8.46730       -5.14270       10.70720
H          3.46610       -8.06620        5.35930
H          1.42330       -9.03930        4.67440
H          2.76180       -9.40450        3.58020
H          1.13340       -9.84220        1.73620
H          0.81690      -10.89300        3.12420
H         -0.20080       -9.47750        2.82240
H          3.01490       -2.54390        3.39880
H          2.08190        1.62050        0.77020
H          4.04570        2.56310       -0.35000
H          5.95440        2.19280       -1.84140
H          6.58700        0.56150       -2.10560
H          7.54960        0.56540        0.19720
H          8.17420        1.91620       -0.75560
H          6.92070        2.19190        0.45920
H          5.60840       -1.36260       -0.92100
H          3.64140       -2.31110        0.18230
H         -1.08310       -0.16390        1.82110
H         -1.80200        1.17960        3.73650
H          0.49790        2.88020        6.05210
H         -1.18050        2.75820        5.50490
H         -0.92100        1.81530        7.79160
H          0.28290        0.66910        7.19130
H         -1.39070        0.55140        6.64930
H          2.22940        1.40110        5.10740
H          2.95670        0.06990        3.18080
H         -0.98390       -4.07480       -1.09860
H         -3.38410       -2.42420       -0.39470
H         -5.58950       -3.23840        0.28450
H         -7.93360       -4.98730       -1.95880
H         -7.54440       -4.62140       -0.27190
H         -8.24420       -2.25260       -0.62700
H         -8.63110       -2.61580       -2.30830
H         -9.56080       -3.36800       -1.00760
H         -6.52440       -4.13000       -3.77860
H         -4.30960       -3.32850       -4.46260
H         -2.32310       -4.99920       -3.00640
H         -1.22290       -6.47780       -4.61960
H          1.03490       -5.31010       -7.29630
H          0.50150       -6.71720       -6.36530
H         -1.70980       -6.63970       -7.51750
H         -0.39220       -6.79850       -8.68390
H         -1.18070       -5.23560       -8.44450
H          0.15660       -3.08140       -6.79730
H         -0.92220       -1.59850       -5.17580
H          0.11330        0.79570       -0.63370
H         -4.01430       -0.72590       -5.03580
H         -4.80990        0.90860       -6.62430
H         -6.30940        2.34260       -9.92230
H         -5.19820        1.38490       -8.91170
H         -3.95680        2.74600      -10.61060
H         -4.64510        4.22110       -9.92640
H         -3.53480        3.23630       -8.96630
H         -5.76150        5.51540       -7.36680
H         -4.16680        8.47030       -2.10300
H         -4.37510       10.56710       -0.81050
H         -5.07580       12.94470       -0.67220
H         -6.39130       12.82990       -4.72970
H         -6.18180       10.77630       -6.04070
