
  xtb     02112205433D
 energy: -344.240633424925 gnorm: 0.000551956570 xtb: 6.4.1 (unknown)
186205  0     0  0            999 V2000
    3.2339   -5.2179   10.1254 C   0  0  0  0  0  0  0  0  0  0  0  0
    3.4664   -4.5096   11.2748 C   0  0  0  0  0  0  0  0  0  0  0  0
    3.3024   -3.0544   11.4923 C   0  0  0  0  0  0  0  0  0  0  0  0
    2.7400   -2.2380   10.7896 O   0  0  0  0  0  0  0  0  0  0  0  0
    4.0126   -2.7588   12.7505 C   0  0  0  0  0  0  0  0  0  0  0  0
    4.2093   -1.5475   13.3477 C   0  0  0  0  0  0  0  0  0  0  0  0
    4.9395   -1.4859   14.5553 C   0  0  0  0  0  0  0  0  0  0  0  0
    5.1729   -0.2621   15.2150 C   0  0  0  0  0  0  0  0  0  0  0  0
    5.8878   -0.2149   16.3794 C   0  0  0  0  0  0  0  0  0  0  0  0
    6.3903   -1.4085   16.9151 C   0  0  0  0  0  0  0  0  0  0  0  0
    7.0924   -1.3417   18.0609 F   0  0  0  0  0  0  0  0  0  0  0  0
    6.1915   -2.6217   16.3170 C   0  0  0  0  0  0  0  0  0  0  0  0
    5.4564   -2.6893   15.1175 C   0  0  0  0  0  0  0  0  0  0  0  0
    5.2311   -3.9307   14.4777 C   0  0  0  0  0  0  0  0  0  0  0  0
    4.5144   -3.9657   13.3115 C   0  0  0  0  0  0  0  0  0  0  0  0
    4.1199   -5.0704   12.4442 C   0  0  0  0  0  0  0  0  0  0  0  0
    4.2625   -6.4015   12.7403 C   0  0  0  0  0  0  0  0  0  0  0  0
    4.8957   -6.8831   13.9049 C   0  0  0  0  0  0  0  0  0  0  0  0
    5.4035   -7.3333   14.8309 N   0  0  0  0  0  0  0  0  0  0  0  0
    3.7566   -7.4678   11.9669 C   0  0  0  0  0  0  0  0  0  0  0  0
    3.3508   -8.3873   11.4107 N   0  0  0  0  0  0  0  0  0  0  0  0
    2.5784   -4.8356    8.9397 C   0  0  0  0  0  0  0  0  0  0  0  0
    1.7190   -3.7943    8.6492 C   0  0  0  0  0  0  0  0  0  0  0  0
    1.2364   -3.7988    7.3368 C   0  0  0  0  0  0  0  0  0  0  0  0
    0.2075   -2.8618    6.8428 C   0  0  0  0  0  0  0  0  0  0  0  0
   -0.5524   -3.1559    5.9447 O   0  0  0  0  0  0  0  0  0  0  0  0
    0.1492   -1.5161    7.5279 C   0  0  0  0  0  0  0  0  0  0  0  0
    1.4705   -0.7598    7.3926 C   0  0  0  0  0  0  0  0  0  0  0  0
    1.7298   -4.8739    6.5845 C   0  0  0  0  0  0  0  0  0  0  0  0
    2.7854   -5.8661    7.5331 S   0  0  0  0  0  0  0  0  0  0  0  0
    1.5629   -5.1354    5.1974 C   0  0  0  0  0  0  0  0  0  0  0  0
    1.6456   -6.3656    4.5532 C   0  0  0  0  0  0  0  0  0  0  0  0
    1.7026   -7.6580    5.2350 C   0  0  0  0  0  0  0  0  0  0  0  0
    2.5970   -8.6353    4.8098 C   0  0  0  0  0  0  0  0  0  0  0  0
    2.6489   -9.8502    5.4674 C   0  0  0  0  0  0  0  0  0  0  0  0
    1.8151  -10.0993    6.5424 C   0  0  0  0  0  0  0  0  0  0  0  0
    0.9028   -9.1405    6.9693 C   0  0  0  0  0  0  0  0  0  0  0  0
   -0.0363   -9.4294    8.1040 C   0  0  0  0  0  0  0  0  0  0  0  0
   -1.2887  -10.1447    7.5937 C   0  0  0  0  0  0  0  0  0  0  0  0
    0.8487   -7.9283    6.3016 C   0  0  0  0  0  0  0  0  0  0  0  0
    1.5977   -6.2138    3.1589 C   0  0  0  0  0  0  0  0  0  0  0  0
    1.6251   -7.3567    1.8359 S   0  0  0  0  0  0  0  0  0  0  0  0
    1.4853   -6.0389    0.7224 C   0  0  0  0  0  0  0  0  0  0  0  0
    1.4345   -5.8152   -0.6645 C   0  0  0  0  0  0  0  0  0  0  0  0
    1.5964   -6.6533   -1.7923 C   0  0  0  0  0  0  0  0  0  0  0  0
    1.6331   -6.0664   -3.1082 C   0  0  0  0  0  0  0  0  0  0  0  0
    1.8645   -6.9649   -4.0516 N   0  0  0  0  0  0  0  0  0  0  0  0
    2.0131   -8.4189   -3.3575 S   0  0  0  0  0  0  0  0  0  0  0  0
    1.7930   -7.9615   -1.8209 N   0  0  0  0  0  0  0  0  0  0  0  0
    1.3678   -4.6853   -3.2583 C   0  0  0  0  0  0  0  0  0  0  0  0
    1.2005   -3.8477   -4.3759 C   0  0  0  0  0  0  0  0  0  0  0  0
    1.2962   -3.9207   -6.1017 S   0  0  0  0  0  0  0  0  0  0  0  0
    0.8093   -2.2405   -6.1768 C   0  0  0  0  0  0  0  0  0  0  0  0
    0.5627   -1.3671   -7.2468 C   0  0  0  0  0  0  0  0  0  0  0  0
    0.4976   -1.8233   -8.6333 C   0  0  0  0  0  0  0  0  0  0  0  0
    1.4754   -2.6673   -9.1509 C   0  0  0  0  0  0  0  0  0  0  0  0
    1.3751   -3.1149  -10.4542 C   0  0  0  0  0  0  0  0  0  0  0  0
    0.3032   -2.7372  -11.2430 C   0  0  0  0  0  0  0  0  0  0  0  0
   -0.6902   -1.9062  -10.7376 C   0  0  0  0  0  0  0  0  0  0  0  0
   -1.8799   -1.5338  -11.5748 C   0  0  0  0  0  0  0  0  0  0  0  0
   -2.9845   -2.5826  -11.4307 C   0  0  0  0  0  0  0  0  0  0  0  0
   -0.5863   -1.4611   -9.4304 C   0  0  0  0  0  0  0  0  0  0  0  0
    0.2301   -0.0914   -6.7873 C   0  0  0  0  0  0  0  0  0  0  0  0
    0.0828   -0.0197   -5.0375 S   0  0  0  0  0  0  0  0  0  0  0  0
    0.5907   -1.6696   -4.9184 C   0  0  0  0  0  0  0  0  0  0  0  0
    0.8003   -2.5933   -3.8940 C   0  0  0  0  0  0  0  0  0  0  0  0
    0.7126   -2.6130   -2.5223 N   0  0  0  0  0  0  0  0  0  0  0  0
    1.0923   -3.8813   -2.1209 C   0  0  0  0  0  0  0  0  0  0  0  0
    1.2804   -4.4132   -0.8302 C   0  0  0  0  0  0  0  0  0  0  0  0
    1.3031   -3.7948    0.4036 N   0  0  0  0  0  0  0  0  0  0  0  0
    1.4164   -4.7849    1.3457 C   0  0  0  0  0  0  0  0  0  0  0  0
    1.4823   -4.8836    2.7382 C   0  0  0  0  0  0  0  0  0  0  0  0
    1.4090   -3.7966    4.0723 S   0  0  0  0  0  0  0  0  0  0  0  0
    1.7498   -2.4459    0.6848 C   0  0  0  0  0  0  0  0  0  0  0  0
    3.2098   -2.4316    1.1376 C   0  0  0  0  0  0  0  0  0  0  0  0
   -0.2954   -1.7931   -1.8731 C   0  0  0  0  0  0  0  0  0  0  0  0
   -1.6900   -2.1392   -2.3925 C   0  0  0  0  0  0  0  0  0  0  0  0
    0.0556    1.1146   -7.5255 C   0  0  0  0  0  0  0  0  0  0  0  0
    0.5885    1.3578   -8.7938 C   0  0  0  0  0  0  0  0  0  0  0  0
    1.4706    0.5073   -9.3425 F   0  0  0  0  0  0  0  0  0  0  0  0
    0.2759    2.4985   -9.5315 C   0  0  0  0  0  0  0  0  0  0  0  0
    0.7863    2.6104  -10.7655 F   0  0  0  0  0  0  0  0  0  0  0  0
   -0.5694    3.4920   -9.0548 C   0  0  0  0  0  0  0  0  0  0  0  0
   -0.9754    3.3645   -7.6941 C   0  0  0  0  0  0  0  0  0  0  0  0
   -1.6488    4.3625   -7.1143 N   0  0  0  0  0  0  0  0  0  0  0  0
   -2.0030    4.2875   -5.8528 C   0  0  0  0  0  0  0  0  0  0  0  0
   -2.8449    5.3955   -5.3963 C   0  0  0  0  0  0  0  0  0  0  0  0
   -3.9686    5.2050   -4.6010 C   0  0  0  0  0  0  0  0  0  0  0  0
   -4.8188    6.2555   -4.3064 C   0  0  0  0  0  0  0  0  0  0  0  0
   -4.5724    7.5398   -4.7907 C   0  0  0  0  0  0  0  0  0  0  0  0
   -5.3342    8.6317   -4.6116 O   0  0  0  0  0  0  0  0  0  0  0  0
   -6.5373    8.5546   -3.8672 C   0  0  0  0  0  0  0  0  0  0  0  0
   -6.2933    8.5884   -2.3626 C   0  0  0  0  0  0  0  0  0  0  0  0
   -3.4228    7.7114   -5.5810 C   0  0  0  0  0  0  0  0  0  0  0  0
   -2.5835    6.6728   -5.8942 C   0  0  0  0  0  0  0  0  0  0  0  0
   -3.1563    8.9364   -6.0768 F   0  0  0  0  0  0  0  0  0  0  0  0
   -1.5925    3.1719   -5.0633 C   0  0  0  0  0  0  0  0  0  0  0  0
   -0.9620    2.1688   -5.6379 N   0  0  0  0  0  0  0  0  0  0  0  0
   -0.6527    2.2120   -6.9366 C   0  0  0  0  0  0  0  0  0  0  0  0
   -1.7424    3.1316   -3.6080 C   0  0  0  0  0  0  0  0  0  0  0  0
   -1.5889    4.2816   -2.8386 C   0  0  0  0  0  0  0  0  0  0  0  0
   -1.6742    4.2403   -1.4598 C   0  0  0  0  0  0  0  0  0  0  0  0
   -1.9222    3.0422   -0.7936 C   0  0  0  0  0  0  0  0  0  0  0  0
   -2.0529    2.8683    0.5372 O   0  0  0  0  0  0  0  0  0  0  0  0
   -1.8549    3.9565    1.4208 C   0  0  0  0  0  0  0  0  0  0  0  0
   -0.3780    4.2655    1.6432 C   0  0  0  0  0  0  0  0  0  0  0  0
   -2.0636    1.8931   -1.5871 C   0  0  0  0  0  0  0  0  0  0  0  0
   -2.2956    0.7168   -0.9663 F   0  0  0  0  0  0  0  0  0  0  0  0
   -1.9707    1.9187   -2.9573 C   0  0  0  0  0  0  0  0  0  0  0  0
   -0.9109    4.6686   -9.7993 C   0  0  0  0  0  0  0  0  0  0  0  0
   -2.0794    5.3300   -9.5863 C   0  0  0  0  0  0  0  0  0  0  0  0
   -3.2573    4.7173   -8.9048 C   0  0  0  0  0  0  0  0  0  0  0  0
   -3.5362    3.5423   -8.8140 O   0  0  0  0  0  0  0  0  0  0  0  0
   -4.1432    5.8566   -8.5761 C   0  0  0  0  0  0  0  0  0  0  0  0
   -5.2993    5.8545   -7.8224 C   0  0  0  0  0  0  0  0  0  0  0  0
   -5.9564    7.0606   -7.6525 C   0  0  0  0  0  0  0  0  0  0  0  0
   -7.0631    7.1075   -6.8930 F   0  0  0  0  0  0  0  0  0  0  0  0
   -5.4764    8.2273   -8.2481 C   0  0  0  0  0  0  0  0  0  0  0  0
   -6.1420    9.3719   -8.0704 F   0  0  0  0  0  0  0  0  0  0  0  0
   -4.3272    8.2245   -9.0241 C   0  0  0  0  0  0  0  0  0  0  0  0
   -3.6520    7.0232   -9.1858 C   0  0  0  0  0  0  0  0  0  0  0  0
   -2.4156    6.7051   -9.9028 C   0  0  0  0  0  0  0  0  0  0  0  0
   -1.7021    7.5703  -10.6865 C   0  0  0  0  0  0  0  0  0  0  0  0
   -0.5074    7.2409  -11.3628 C   0  0  0  0  0  0  0  0  0  0  0  0
    0.4708    7.0466  -11.9305 N   0  0  0  0  0  0  0  0  0  0  0  0
   -2.0850    8.9032  -10.9491 C   0  0  0  0  0  0  0  0  0  0  0  0
   -2.3463    9.9903  -11.2073 N   0  0  0  0  0  0  0  0  0  0  0  0
    3.6471   -6.2192   10.0841 H   0  0  0  0  0  0  0  0  0  0  0  0
    3.8140   -0.6463   12.9030 H   0  0  0  0  0  0  0  0  0  0  0  0
    4.7761    0.6441   14.7825 H   0  0  0  0  0  0  0  0  0  0  0  0
    6.0760    0.7128   16.8962 H   0  0  0  0  0  0  0  0  0  0  0  0
    6.5915   -3.5209   16.7591 H   0  0  0  0  0  0  0  0  0  0  0  0
    5.6392   -4.8223   14.9257 H   0  0  0  0  0  0  0  0  0  0  0  0
    1.4321   -3.0756    9.3924 H   0  0  0  0  0  0  0  0  0  0  0  0
   -0.6594   -0.9470    7.0652 H   0  0  0  0  0  0  0  0  0  0  0  0
   -0.0876   -1.6557    8.5838 H   0  0  0  0  0  0  0  0  0  0  0  0
    2.2687   -1.2688    7.9259 H   0  0  0  0  0  0  0  0  0  0  0  0
    1.7500   -0.6705    6.3446 H   0  0  0  0  0  0  0  0  0  0  0  0
    1.3653    0.2390    7.8085 H   0  0  0  0  0  0  0  0  0  0  0  0
    3.2596   -8.4329    3.9820 H   0  0  0  0  0  0  0  0  0  0  0  0
    3.3489  -10.6049    5.1412 H   0  0  0  0  0  0  0  0  0  0  0  0
    1.8694  -11.0467    7.0582 H   0  0  0  0  0  0  0  0  0  0  0  0
   -0.3269   -8.4961    8.5904 H   0  0  0  0  0  0  0  0  0  0  0  0
    0.4640  -10.0570    8.8435 H   0  0  0  0  0  0  0  0  0  0  0  0
   -1.8070   -9.5262    6.8641 H   0  0  0  0  0  0  0  0  0  0  0  0
   -1.0208  -11.0843    7.1158 H   0  0  0  0  0  0  0  0  0  0  0  0
   -1.9679  -10.3546    8.4164 H   0  0  0  0  0  0  0  0  0  0  0  0
    0.1300   -7.1796    6.6062 H   0  0  0  0  0  0  0  0  0  0  0  0
    2.3228   -2.9437   -8.5426 H   0  0  0  0  0  0  0  0  0  0  0  0
    2.1419   -3.7584  -10.8591 H   0  0  0  0  0  0  0  0  0  0  0  0
    0.2357   -3.0859  -12.2633 H   0  0  0  0  0  0  0  0  0  0  0  0
   -1.5843   -1.4631  -12.6232 H   0  0  0  0  0  0  0  0  0  0  0  0
   -2.2641   -0.5609  -11.2615 H   0  0  0  0  0  0  0  0  0  0  0  0
   -2.6258   -3.5577  -11.7526 H   0  0  0  0  0  0  0  0  0  0  0  0
   -3.2998   -2.6600  -10.3924 H   0  0  0  0  0  0  0  0  0  0  0  0
   -3.8464   -2.3116  -12.0359 H   0  0  0  0  0  0  0  0  0  0  0  0
   -1.3596   -0.8251   -9.0201 H   0  0  0  0  0  0  0  0  0  0  0  0
    1.6660   -1.8489   -0.2213 H   0  0  0  0  0  0  0  0  0  0  0  0
    1.1129   -2.0206    1.4669 H   0  0  0  0  0  0  0  0  0  0  0  0
    3.8409   -2.8959    0.3827 H   0  0  0  0  0  0  0  0  0  0  0  0
    3.5348   -1.4049    1.2805 H   0  0  0  0  0  0  0  0  0  0  0  0
    3.3344   -2.9662    2.0749 H   0  0  0  0  0  0  0  0  0  0  0  0
   -0.2773   -1.9688   -0.8001 H   0  0  0  0  0  0  0  0  0  0  0  0
   -0.0685   -0.7430   -2.0769 H   0  0  0  0  0  0  0  0  0  0  0  0
   -1.8920   -3.1980   -2.2434 H   0  0  0  0  0  0  0  0  0  0  0  0
   -2.4301   -1.5626   -1.8476 H   0  0  0  0  0  0  0  0  0  0  0  0
   -1.7775   -1.9140   -3.4521 H   0  0  0  0  0  0  0  0  0  0  0  0
   -4.2003    4.2190   -4.2281 H   0  0  0  0  0  0  0  0  0  0  0  0
   -5.6934    6.0608   -3.7075 H   0  0  0  0  0  0  0  0  0  0  0  0
   -7.1112    7.6681   -4.1589 H   0  0  0  0  0  0  0  0  0  0  0  0
   -7.0948    9.4427   -4.1744 H   0  0  0  0  0  0  0  0  0  0  0  0
   -7.2459    8.5997   -1.8408 H   0  0  0  0  0  0  0  0  0  0  0  0
   -5.7378    9.4854   -2.1009 H   0  0  0  0  0  0  0  0  0  0  0  0
   -5.7223    7.7223   -2.0356 H   0  0  0  0  0  0  0  0  0  0  0  0
   -1.7246    6.8473   -6.5221 H   0  0  0  0  0  0  0  0  0  0  0  0
   -1.3731    5.2240   -3.3172 H   0  0  0  0  0  0  0  0  0  0  0  0
   -1.5415    5.1561   -0.9072 H   0  0  0  0  0  0  0  0  0  0  0  0
   -2.3100    3.6245    2.3575 H   0  0  0  0  0  0  0  0  0  0  0  0
   -2.3949    4.8430    1.0680 H   0  0  0  0  0  0  0  0  0  0  0  0
   -0.2793    5.0686    2.3679 H   0  0  0  0  0  0  0  0  0  0  0  0
    0.1043    4.5657    0.7160 H   0  0  0  0  0  0  0  0  0  0  0  0
    0.1288    3.3827    2.0243 H   0  0  0  0  0  0  0  0  0  0  0  0
   -2.0792    1.0081   -3.5225 H   0  0  0  0  0  0  0  0  0  0  0  0
   -0.1643    5.0495  -10.4832 H   0  0  0  0  0  0  0  0  0  0  0  0
   -5.6727    4.9510   -7.3684 H   0  0  0  0  0  0  0  0  0  0  0  0
   -3.9940    9.1517   -9.4605 H   0  0  0  0  0  0  0  0  0  0  0  0
  1  2  2  0  0  0  0
  2  3  1  0  0  0  0
  3  4  2  0  0  0  0
  3  5  1  0  0  0  0
  5  6  2  0  0  0  0
  6  7  1  0  0  0  0
  7  8  2  0  0  0  0
  8  9  1  0  0  0  0
  9 10  2  0  0  0  0
 10 11  1  0  0  0  0
 10 12  1  0  0  0  0
 12 13  2  0  0  0  0
 13 14  1  0  0  0  0
 14 15  2  0  0  0  0
 15 16  1  0  0  0  0
 16 17  2  0  0  0  0
 17 18  1  0  0  0  0
 18 19  3  0  0  0  0
 17 20  1  0  0  0  0
 20 21  3  0  0  0  0
  1 22  1  0  0  0  0
 22 23  2  0  0  0  0
 23 24  1  0  0  0  0
 24 25  1  0  0  0  0
 25 26  2  0  0  0  0
 25 27  1  0  0  0  0
 27 28  1  0  0  0  0
 24 29  2  0  0  0  0
 29 30  1  0  0  0  0
 29 31  1  0  0  0  0
 31 32  2  0  0  0  0
 32 33  1  0  0  0  0
 33 34  2  0  0  0  0
 34 35  1  0  0  0  0
 35 36  2  0  0  0  0
 36 37  1  0  0  0  0
 37 38  1  0  0  0  0
 38 39  1  0  0  0  0
 37 40  2  0  0  0  0
 32 41  1  0  0  0  0
 41 42  1  0  0  0  0
 42 43  1  0  0  0  0
 43 44  1  0  0  0  0
 44 45  1  0  0  0  0
 45 46  1  0  0  0  0
 46 47  2  0  0  0  0
 47 48  1  0  0  0  0
 48 49  1  0  0  0  0
 46 50  1  0  0  0  0
 50 51  1  0  0  0  0
 51 52  1  0  0  0  0
 52 53  1  0  0  0  0
 53 54  1  0  0  0  0
 54 55  1  0  0  0  0
 55 56  2  0  0  0  0
 56 57  1  0  0  0  0
 57 58  2  0  0  0  0
 58 59  1  0  0  0  0
 59 60  1  0  0  0  0
 60 61  1  0  0  0  0
 59 62  2  0  0  0  0
 54 63  2  0  0  0  0
 63 64  1  0  0  0  0
 64 65  1  0  0  0  0
 65 66  1  0  0  0  0
 66 67  1  0  0  0  0
 67 68  1  0  0  0  0
 68 69  1  0  0  0  0
 69 70  1  0  0  0  0
 70 71  1  0  0  0  0
 71 72  1  0  0  0  0
 72 73  1  0  0  0  0
 70 74  1  0  0  0  0
 74 75  1  0  0  0  0
 67 76  1  0  0  0  0
 76 77  1  0  0  0  0
 63 78  1  0  0  0  0
 78 79  2  0  0  0  0
 79 80  1  0  0  0  0
 79 81  1  0  0  0  0
 81 82  1  0  0  0  0
 81 83  2  0  0  0  0
 83 84  1  0  0  0  0
 84 85  2  0  0  0  0
 85 86  1  0  0  0  0
 86 87  1  0  0  0  0
 87 88  2  0  0  0  0
 88 89  1  0  0  0  0
 89 90  2  0  0  0  0
 90 91  1  0  0  0  0
 91 92  1  0  0  0  0
 92 93  1  0  0  0  0
 90 94  1  0  0  0  0
 94 95  2  0  0  0  0
 94 96  1  0  0  0  0
 86 97  2  0  0  0  0
 97 98  1  0  0  0  0
 98 99  2  0  0  0  0
 97100  1  0  0  0  0
100101  2  0  0  0  0
101102  1  0  0  0  0
102103  2  0  0  0  0
103104  1  0  0  0  0
104105  1  0  0  0  0
105106  1  0  0  0  0
103107  1  0  0  0  0
107108  1  0  0  0  0
107109  2  0  0  0  0
 83110  1  0  0  0  0
110111  2  0  0  0  0
111112  1  0  0  0  0
112113  2  0  0  0  0
112114  1  0  0  0  0
114115  2  0  0  0  0
115116  1  0  0  0  0
116117  1  0  0  0  0
116118  2  0  0  0  0
118119  1  0  0  0  0
118120  1  0  0  0  0
120121  2  0  0  0  0
121122  1  0  0  0  0
122123  2  0  0  0  0
123124  1  0  0  0  0
124125  3  0  0  0  0
123126  1  0  0  0  0
126127  3  0  0  0  0
 16  2  1  0  0  0  0
 30 22  1  0  0  0  0
 73 31  1  0  0  0  0
 99 78  1  0  0  0  0
109100  1  0  0  0  0
122111  1  0  0  0  0
 15  5  1  0  0  0  0
 40 33  1  0  0  0  0
 72 41  2  0  0  0  0
 99 84  1  0  0  0  0
121114  1  0  0  0  0
 13  7  1  0  0  0  0
 71 43  2  0  0  0  0
 95 87  1  0  0  0  0
 69 44  2  0  0  0  0
 49 45  2  0  0  0  0
 68 50  2  0  0  0  0
 66 51  2  0  0  0  0
 65 53  2  0  0  0  0
 62 55  1  0  0  0  0
  1128  1  0  0  0  0
  6129  1  0  0  0  0
  8130  1  0  0  0  0
  9131  1  0  0  0  0
 12132  1  0  0  0  0
 14133  1  0  0  0  0
 23134  1  0  0  0  0
 27135  1  0  0  0  0
 27136  1  0  0  0  0
 28137  1  0  0  0  0
 28138  1  0  0  0  0
 28139  1  0  0  0  0
 34140  1  0  0  0  0
 35141  1  0  0  0  0
 36142  1  0  0  0  0
 38143  1  0  0  0  0
 38144  1  0  0  0  0
 39145  1  0  0  0  0
 39146  1  0  0  0  0
 39147  1  0  0  0  0
 40148  1  0  0  0  0
 56149  1  0  0  0  0
 57150  1  0  0  0  0
 58151  1  0  0  0  0
 60152  1  0  0  0  0
 60153  1  0  0  0  0
 61154  1  0  0  0  0
 61155  1  0  0  0  0
 61156  1  0  0  0  0
 62157  1  0  0  0  0
 74158  1  0  0  0  0
 74159  1  0  0  0  0
 75160  1  0  0  0  0
 75161  1  0  0  0  0
 75162  1  0  0  0  0
 76163  1  0  0  0  0
 76164  1  0  0  0  0
 77165  1  0  0  0  0
 77166  1  0  0  0  0
 77167  1  0  0  0  0
 88168  1  0  0  0  0
 89169  1  0  0  0  0
 92170  1  0  0  0  0
 92171  1  0  0  0  0
 93172  1  0  0  0  0
 93173  1  0  0  0  0
 93174  1  0  0  0  0
 95175  1  0  0  0  0
101176  1  0  0  0  0
102177  1  0  0  0  0
105178  1  0  0  0  0
105179  1  0  0  0  0
106180  1  0  0  0  0
106181  1  0  0  0  0
106182  1  0  0  0  0
109183  1  0  0  0  0
110184  1  0  0  0  0
115185  1  0  0  0  0
120186  1  0  0  0  0
M  END
