
  xtb     02052201323D
 energy: -346.083008678369 gnorm: 0.000726915188 xtb: 6.4.1 (unknown)
194217  0     0  0            999 V2000
    9.8124   -0.0284    2.9627 C   0  0  0  0  0  0  0  0  0  0  0  0
    9.3635    0.7675    1.9473 C   0  0  0  0  0  0  0  0  0  0  0  0
   10.2575    1.7452    1.2766 C   0  0  0  0  0  0  0  0  0  0  0  0
   11.4603    1.8292    1.3916 O   0  0  0  0  0  0  0  0  0  0  0  0
    9.3590    2.6156    0.4878 C   0  0  0  0  0  0  0  0  0  0  0  0
    9.6579    3.7266   -0.2472 C   0  0  0  0  0  0  0  0  0  0  0  0
    8.6221    4.4023   -0.9331 C   0  0  0  0  0  0  0  0  0  0  0  0
    8.8800    5.5420   -1.7225 C   0  0  0  0  0  0  0  0  0  0  0  0
    7.8726    6.1791   -2.3934 C   0  0  0  0  0  0  0  0  0  0  0  0
    6.5674    5.6822   -2.2831 C   0  0  0  0  0  0  0  0  0  0  0  0
    5.5886    6.3177   -2.9572 F   0  0  0  0  0  0  0  0  0  0  0  0
    6.2585    4.5868   -1.5269 C   0  0  0  0  0  0  0  0  0  0  0  0
    7.2856    3.9169   -0.8335 C   0  0  0  0  0  0  0  0  0  0  0  0
    7.0036    2.7663   -0.0614 C   0  0  0  0  0  0  0  0  0  0  0  0
    8.0258    2.1212    0.5797 C   0  0  0  0  0  0  0  0  0  0  0  0
    8.0431    0.8944    1.3693 C   0  0  0  0  0  0  0  0  0  0  0  0
    7.0794   -0.0822    1.3144 C   0  0  0  0  0  0  0  0  0  0  0  0
    7.2579   -1.3903    1.8059 C   0  0  0  0  0  0  0  0  0  0  0  0
    7.3804   -2.4860    2.1297 N   0  0  0  0  0  0  0  0  0  0  0  0
    5.8283    0.0762    0.6880 C   0  0  0  0  0  0  0  0  0  0  0  0
    4.7813    0.1517    0.2220 N   0  0  0  0  0  0  0  0  0  0  0  0
    9.0005   -0.6704    3.9275 C   0  0  0  0  0  0  0  0  0  0  0  0
    7.4957    0.0969    4.4476 S   0  0  0  0  0  0  0  0  0  0  0  0
    7.0911   -1.3025    5.3555 C   0  0  0  0  0  0  0  0  0  0  0  0
    6.0217   -1.8647    6.0360 C   0  0  0  0  0  0  0  0  0  0  0  0
    6.3740   -3.2033    6.3224 C   0  0  0  0  0  0  0  0  0  0  0  0
    7.6570   -3.4397    5.9035 N   0  0  0  0  0  0  0  0  0  0  0  0
    8.2788   -4.7359    5.7958 C   0  0  0  0  0  0  0  0  0  0  0  0
    7.8475   -5.4456    4.5141 C   0  0  0  0  0  0  0  0  0  0  0  0
    8.0937   -2.3002    5.2727 C   0  0  0  0  0  0  0  0  0  0  0  0
    9.1939   -1.9109    4.5128 C   0  0  0  0  0  0  0  0  0  0  0  0
    5.3165   -3.9585    6.8432 C   0  0  0  0  0  0  0  0  0  0  0  0
    4.1615   -3.2099    6.9555 C   0  0  0  0  0  0  0  0  0  0  0  0
    4.3980   -1.5241    6.4813 S   0  0  0  0  0  0  0  0  0  0  0  0
    2.8109   -3.6109    7.1684 C   0  0  0  0  0  0  0  0  0  0  0  0
    2.2344   -4.8751    7.1787 C   0  0  0  0  0  0  0  0  0  0  0  0
    2.9553   -6.1332    7.3763 C   0  0  0  0  0  0  0  0  0  0  0  0
    2.7626   -7.2045    6.5098 C   0  0  0  0  0  0  0  0  0  0  0  0
    3.4412   -8.3904    6.7208 C   0  0  0  0  0  0  0  0  0  0  0  0
    4.3034   -8.5217    7.7948 C   0  0  0  0  0  0  0  0  0  0  0  0
    4.4973   -7.4665    8.6791 C   0  0  0  0  0  0  0  0  0  0  0  0
    5.3882   -7.6253    9.8780 C   0  0  0  0  0  0  0  0  0  0  0  0
    4.5966   -8.1972   11.0555 C   0  0  0  0  0  0  0  0  0  0  0  0
    3.8166   -6.2788    8.4610 C   0  0  0  0  0  0  0  0  0  0  0  0
    0.8437   -4.8040    6.9444 C   0  0  0  0  0  0  0  0  0  0  0  0
   -0.3847   -6.0066    6.5889 S   0  0  0  0  0  0  0  0  0  0  0  0
   -1.4933   -4.7374    6.1630 C   0  0  0  0  0  0  0  0  0  0  0  0
   -2.7295   -4.5494    5.5137 C   0  0  0  0  0  0  0  0  0  0  0  0
   -3.7084   -5.4563    5.0491 C   0  0  0  0  0  0  0  0  0  0  0  0
   -4.8095   -4.9628    4.2652 C   0  0  0  0  0  0  0  0  0  0  0  0
   -5.6444   -5.9246    3.9076 N   0  0  0  0  0  0  0  0  0  0  0  0
   -5.0992   -7.3288    4.5026 S   0  0  0  0  0  0  0  0  0  0  0  0
   -3.7696   -6.7649    5.2351 N   0  0  0  0  0  0  0  0  0  0  0  0
   -4.8314   -3.5989    3.8945 C   0  0  0  0  0  0  0  0  0  0  0  0
   -5.5556   -2.9130    2.9018 C   0  0  0  0  0  0  0  0  0  0  0  0
   -6.7292   -3.2190    1.6580 S   0  0  0  0  0  0  0  0  0  0  0  0
   -6.3989   -1.6402    0.9683 C   0  0  0  0  0  0  0  0  0  0  0  0
   -6.7928   -0.9941   -0.2248 C   0  0  0  0  0  0  0  0  0  0  0  0
   -7.7820   -1.5210   -1.1631 C   0  0  0  0  0  0  0  0  0  0  0  0
   -7.7864   -2.8688   -1.5102 C   0  0  0  0  0  0  0  0  0  0  0  0
   -8.7428   -3.3498   -2.3837 C   0  0  0  0  0  0  0  0  0  0  0  0
   -9.6924   -2.4979   -2.9199 C   0  0  0  0  0  0  0  0  0  0  0  0
   -9.7039   -1.1499   -2.5845 C   0  0  0  0  0  0  0  0  0  0  0  0
  -10.6873   -0.2081   -3.2165 C   0  0  0  0  0  0  0  0  0  0  0  0
  -10.1039    0.3651   -4.5101 C   0  0  0  0  0  0  0  0  0  0  0  0
   -8.7515   -0.6756   -1.6967 C   0  0  0  0  0  0  0  0  0  0  0  0
   -6.1224    0.2080   -0.3891 C   0  0  0  0  0  0  0  0  0  0  0  0
   -5.0842    0.5896    0.9815 S   0  0  0  0  0  0  0  0  0  0  0  0
   -5.4765   -0.9142    1.7215 C   0  0  0  0  0  0  0  0  0  0  0  0
   -5.0037   -1.6326    2.8224 C   0  0  0  0  0  0  0  0  0  0  0  0
   -4.0196   -1.4761    3.7556 N   0  0  0  0  0  0  0  0  0  0  0  0
   -3.8663   -2.6850    4.4071 C   0  0  0  0  0  0  0  0  0  0  0  0
   -2.8762   -3.1477    5.3096 C   0  0  0  0  0  0  0  0  0  0  0  0
   -1.8076   -2.4981    5.9086 N   0  0  0  0  0  0  0  0  0  0  0  0
   -0.9611   -3.4652    6.3759 C   0  0  0  0  0  0  0  0  0  0  0  0
    0.3612   -3.5014    6.8206 C   0  0  0  0  0  0  0  0  0  0  0  0
    1.6091   -2.3326    7.0226 S   0  0  0  0  0  0  0  0  0  0  0  0
   -1.7133   -1.1609    6.4586 C   0  0  0  0  0  0  0  0  0  0  0  0
   -2.9771   -0.7781    7.2228 C   0  0  0  0  0  0  0  0  0  0  0  0
   -3.1580   -0.3191    3.6892 C   0  0  0  0  0  0  0  0  0  0  0  0
   -1.8300   -0.6402    3.0081 C   0  0  0  0  0  0  0  0  0  0  0  0
   -5.9412    1.0438   -1.5269 C   0  0  0  0  0  0  0  0  0  0  0  0
   -5.1468    2.1602   -1.5362 C   0  0  0  0  0  0  0  0  0  0  0  0
   -4.9041    2.6843   -2.8193 C   0  0  0  0  0  0  0  0  0  0  0  0
   -4.0584    3.7566   -3.1614 C   0  0  0  0  0  0  0  0  0  0  0  0
   -3.1826    4.4199   -2.2187 C   0  0  0  0  0  0  0  0  0  0  0  0
   -2.7743    5.7240   -2.2296 C   0  0  0  0  0  0  0  0  0  0  0  0
   -1.7430    5.9621   -1.3006 C   0  0  0  0  0  0  0  0  0  0  0  0
   -1.1993    7.1824   -1.1372 F   0  0  0  0  0  0  0  0  0  0  0  0
   -1.3370    4.8758   -0.5846 C   0  0  0  0  0  0  0  0  0  0  0  0
   -0.2293    4.7806    0.4055 C   0  0  0  0  0  0  0  0  0  0  0  0
    0.8961    3.8838   -0.1143 C   0  0  0  0  0  0  0  0  0  0  0  0
   -2.2749    3.4987   -1.0486 S   0  0  0  0  0  0  0  0  0  0  0  0
   -3.9482    4.0398   -4.5143 C   0  0  0  0  0  0  0  0  0  0  0  0
   -4.5914    3.2955   -5.5327 C   0  0  0  0  0  0  0  0  0  0  0  0
   -5.4649    2.2409   -5.1822 C   0  0  0  0  0  0  0  0  0  0  0  0
   -6.1440    1.4753   -6.2046 C   0  0  0  0  0  0  0  0  0  0  0  0
   -6.2541   -0.2595   -6.1201 S   0  0  0  0  0  0  0  0  0  0  0  0
   -7.1024   -0.3504   -7.6233 C   0  0  0  0  0  0  0  0  0  0  0  0
   -7.5171   -1.6344   -8.2533 C   0  0  0  0  0  0  0  0  0  0  0  0
   -8.7164   -2.2984   -7.5605 C   0  0  0  0  0  0  0  0  0  0  0  0
   -8.3505   -2.9316   -6.2250 C   0  0  0  0  0  0  0  0  0  0  0  0
   -7.2870    0.9097   -8.1162 C   0  0  0  0  0  0  0  0  0  0  0  0
   -6.7475    1.9486   -7.3371 C   0  0  0  0  0  0  0  0  0  0  0  0
   -7.9259    1.1455   -9.2778 F   0  0  0  0  0  0  0  0  0  0  0  0
   -5.5787    1.9532   -3.8278 C   0  0  0  0  0  0  0  0  0  0  0  0
   -6.4941    0.6347   -3.1374 S   0  0  0  0  0  0  0  0  0  0  0  0
   -4.0835    3.6183   -6.8145 C   0  0  0  0  0  0  0  0  0  0  0  0
   -3.0664    4.5343   -6.7887 C   0  0  0  0  0  0  0  0  0  0  0  0
   -2.8222    5.1853   -5.1763 S   0  0  0  0  0  0  0  0  0  0  0  0
   -2.2136    4.9387   -7.8542 C   0  0  0  0  0  0  0  0  0  0  0  0
   -0.9091    5.3046   -7.7387 C   0  0  0  0  0  0  0  0  0  0  0  0
   -0.2440    6.0862   -8.8187 C   0  0  0  0  0  0  0  0  0  0  0  0
   -0.6507    6.2578   -9.9449 O   0  0  0  0  0  0  0  0  0  0  0  0
    0.9734    6.6434   -8.1967 C   0  0  0  0  0  0  0  0  0  0  0  0
    1.8902    7.5067   -8.7245 C   0  0  0  0  0  0  0  0  0  0  0  0
    2.9981    7.9017   -7.9412 C   0  0  0  0  0  0  0  0  0  0  0  0
    3.9817    8.7774   -8.4451 C   0  0  0  0  0  0  0  0  0  0  0  0
    5.0598    9.1375   -7.6852 C   0  0  0  0  0  0  0  0  0  0  0  0
    5.1768    8.6230   -6.3866 C   0  0  0  0  0  0  0  0  0  0  0  0
    6.2535    8.9807   -5.6605 F   0  0  0  0  0  0  0  0  0  0  0  0
    4.2484    7.7796   -5.8438 C   0  0  0  0  0  0  0  0  0  0  0  0
    3.1329    7.3968   -6.6146 C   0  0  0  0  0  0  0  0  0  0  0  0
    2.1652    6.5095   -6.0905 C   0  0  0  0  0  0  0  0  0  0  0  0
    1.1056    6.1337   -6.8718 C   0  0  0  0  0  0  0  0  0  0  0  0
    0.0210    5.1906   -6.6296 C   0  0  0  0  0  0  0  0  0  0  0  0
    0.0254    4.2155   -5.6657 C   0  0  0  0  0  0  0  0  0  0  0  0
   -0.8414    3.1019   -5.6810 C   0  0  0  0  0  0  0  0  0  0  0  0
   -1.4778    2.1463   -5.6987 N   0  0  0  0  0  0  0  0  0  0  0  0
    0.9139    4.1776   -4.5738 C   0  0  0  0  0  0  0  0  0  0  0  0
    1.5671    4.1156   -3.6310 N   0  0  0  0  0  0  0  0  0  0  0  0
   10.8880   -0.1370    3.0561 H   0  0  0  0  0  0  0  0  0  0  0  0
   10.6750    4.0831   -0.3140 H   0  0  0  0  0  0  0  0  0  0  0  0
    9.8943    5.9052   -1.7930 H   0  0  0  0  0  0  0  0  0  0  0  0
    8.0536    7.0492   -3.0048 H   0  0  0  0  0  0  0  0  0  0  0  0
    5.2418    4.2299   -1.4700 H   0  0  0  0  0  0  0  0  0  0  0  0
    5.9830    2.4243    0.0052 H   0  0  0  0  0  0  0  0  0  0  0  0
    7.9967   -5.3253    6.6727 H   0  0  0  0  0  0  0  0  0  0  0  0
    9.3623   -4.5927    5.8049 H   0  0  0  0  0  0  0  0  0  0  0  0
    6.7788   -5.6453    4.5365 H   0  0  0  0  0  0  0  0  0  0  0  0
    8.0601   -4.8200    3.6504 H   0  0  0  0  0  0  0  0  0  0  0  0
    8.3781   -6.3879    4.4108 H   0  0  0  0  0  0  0  0  0  0  0  0
   10.0543   -2.5182    4.2985 H   0  0  0  0  0  0  0  0  0  0  0  0
    5.3641   -5.0059    7.0743 H   0  0  0  0  0  0  0  0  0  0  0  0
    2.0971   -7.0996    5.6670 H   0  0  0  0  0  0  0  0  0  0  0  0
    3.2966   -9.2175    6.0418 H   0  0  0  0  0  0  0  0  0  0  0  0
    4.8307   -9.4515    7.9526 H   0  0  0  0  0  0  0  0  0  0  0  0
    5.8061   -6.6569   10.1619 H   0  0  0  0  0  0  0  0  0  0  0  0
    6.2141   -8.2986    9.6391 H   0  0  0  0  0  0  0  0  0  0  0  0
    4.1767   -9.1657   10.7939 H   0  0  0  0  0  0  0  0  0  0  0  0
    5.2402   -8.3197   11.9234 H   0  0  0  0  0  0  0  0  0  0  0  0
    3.7786   -7.5308   11.3199 H   0  0  0  0  0  0  0  0  0  0  0  0
    3.9456   -5.4516    9.1456 H   0  0  0  0  0  0  0  0  0  0  0  0
   -7.0367   -3.5310   -1.1054 H   0  0  0  0  0  0  0  0  0  0  0  0
   -8.7455   -4.3962   -2.6501 H   0  0  0  0  0  0  0  0  0  0  0  0
  -10.4393   -2.8819   -3.5995 H   0  0  0  0  0  0  0  0  0  0  0  0
  -10.9136    0.6098   -2.5298 H   0  0  0  0  0  0  0  0  0  0  0  0
  -11.6171   -0.7341   -3.4418 H   0  0  0  0  0  0  0  0  0  0  0  0
   -9.1712    0.8864   -4.3059 H   0  0  0  0  0  0  0  0  0  0  0  0
  -10.8015    1.0628   -4.9675 H   0  0  0  0  0  0  0  0  0  0  0  0
   -9.8979   -0.4354   -5.2161 H   0  0  0  0  0  0  0  0  0  0  0  0
   -8.7731    0.3626   -1.3969 H   0  0  0  0  0  0  0  0  0  0  0  0
   -1.4725   -0.4315    5.6836 H   0  0  0  0  0  0  0  0  0  0  0  0
   -0.8666   -1.1738    7.1500 H   0  0  0  0  0  0  0  0  0  0  0  0
   -3.8554   -0.8167    6.5827 H   0  0  0  0  0  0  0  0  0  0  0  0
   -2.8766    0.2280    7.6213 H   0  0  0  0  0  0  0  0  0  0  0  0
   -3.1338   -1.4654    8.0511 H   0  0  0  0  0  0  0  0  0  0  0  0
   -3.6895    0.4309    3.0985 H   0  0  0  0  0  0  0  0  0  0  0  0
   -3.0144    0.1010    4.6832 H   0  0  0  0  0  0  0  0  0  0  0  0
   -2.0079   -0.9524    1.9819 H   0  0  0  0  0  0  0  0  0  0  0  0
   -1.3061   -1.4420    3.5225 H   0  0  0  0  0  0  0  0  0  0  0  0
   -1.1968    0.2425    2.9930 H   0  0  0  0  0  0  0  0  0  0  0  0
   -4.7266    2.5778   -0.6391 H   0  0  0  0  0  0  0  0  0  0  0  0
   -3.2007    6.4957   -2.8434 H   0  0  0  0  0  0  0  0  0  0  0  0
   -0.6094    4.3779    1.3487 H   0  0  0  0  0  0  0  0  0  0  0  0
    0.1502    5.7881    0.5894 H   0  0  0  0  0  0  0  0  0  0  0  0
    0.5334    2.8686   -0.2588 H   0  0  0  0  0  0  0  0  0  0  0  0
    1.7162    3.8620    0.5987 H   0  0  0  0  0  0  0  0  0  0  0  0
    1.2679    4.2520   -1.0674 H   0  0  0  0  0  0  0  0  0  0  0  0
   -7.7800   -1.4206   -9.2921 H   0  0  0  0  0  0  0  0  0  0  0  0
   -6.6762   -2.3322   -8.2475 H   0  0  0  0  0  0  0  0  0  0  0  0
   -9.1037   -3.0714   -8.2273 H   0  0  0  0  0  0  0  0  0  0  0  0
   -9.5053   -1.5559   -7.4209 H   0  0  0  0  0  0  0  0  0  0  0  0
   -8.0060   -2.1876   -5.5104 H   0  0  0  0  0  0  0  0  0  0  0  0
   -7.5601   -3.6669   -6.3581 H   0  0  0  0  0  0  0  0  0  0  0  0
   -9.2151   -3.4346   -5.7996 H   0  0  0  0  0  0  0  0  0  0  0  0
   -6.8361    2.9884   -7.5920 H   0  0  0  0  0  0  0  0  0  0  0  0
   -4.3703    3.1013   -7.7124 H   0  0  0  0  0  0  0  0  0  0  0  0
   -2.6482    5.0039   -8.8462 H   0  0  0  0  0  0  0  0  0  0  0  0
    1.7771    7.8777   -9.7322 H   0  0  0  0  0  0  0  0  0  0  0  0
    3.8712    9.1591   -9.4490 H   0  0  0  0  0  0  0  0  0  0  0  0
    5.8222    9.8033   -8.0577 H   0  0  0  0  0  0  0  0  0  0  0  0
    4.3721    7.4013   -4.8416 H   0  0  0  0  0  0  0  0  0  0  0  0
    2.2854    6.1511   -5.0804 H   0  0  0  0  0  0  0  0  0  0  0  0
  1  2  2  0  0  0  0
  2  3  1  0  0  0  0
  3  4  2  0  0  0  0
  3  5  1  0  0  0  0
  5  6  2  0  0  0  0
  6  7  1  0  0  0  0
  7  8  2  0  0  0  0
  8  9  1  0  0  0  0
  9 10  2  0  0  0  0
 10 11  1  0  0  0  0
 10 12  1  0  0  0  0
 12 13  2  0  0  0  0
 13 14  1  0  0  0  0
 14 15  2  0  0  0  0
 15 16  1  0  0  0  0
 16 17  2  0  0  0  0
 17 18  1  0  0  0  0
 18 19  3  0  0  0  0
 17 20  1  0  0  0  0
 20 21  3  0  0  0  0
  1 22  1  0  0  0  0
 22 23  1  0  0  0  0
 23 24  1  0  0  0  0
 24 25  1  0  0  0  0
 25 26  2  0  0  0  0
 26 27  1  0  0  0  0
 27 28  1  0  0  0  0
 28 29  1  0  0  0  0
 27 30  1  0  0  0  0
 30 31  1  0  0  0  0
 26 32  1  0  0  0  0
 32 33  2  0  0  0  0
 33 34  1  0  0  0  0
 33 35  1  0  0  0  0
 35 36  2  0  0  0  0
 36 37  1  0  0  0  0
 37 38  2  0  0  0  0
 38 39  1  0  0  0  0
 39 40  2  0  0  0  0
 40 41  1  0  0  0  0
 41 42  1  0  0  0  0
 42 43  1  0  0  0  0
 41 44  2  0  0  0  0
 36 45  1  0  0  0  0
 45 46  1  0  0  0  0
 46 47  1  0  0  0  0
 47 48  1  0  0  0  0
 48 49  1  0  0  0  0
 49 50  1  0  0  0  0
 50 51  2  0  0  0  0
 51 52  1  0  0  0  0
 52 53  1  0  0  0  0
 50 54  1  0  0  0  0
 54 55  1  0  0  0  0
 55 56  1  0  0  0  0
 56 57  1  0  0  0  0
 57 58  1  0  0  0  0
 58 59  1  0  0  0  0
 59 60  2  0  0  0  0
 60 61  1  0  0  0  0
 61 62  2  0  0  0  0
 62 63  1  0  0  0  0
 63 64  1  0  0  0  0
 64 65  1  0  0  0  0
 63 66  2  0  0  0  0
 58 67  2  0  0  0  0
 67 68  1  0  0  0  0
 68 69  1  0  0  0  0
 69 70  1  0  0  0  0
 70 71  1  0  0  0  0
 71 72  1  0  0  0  0
 72 73  1  0  0  0  0
 73 74  1  0  0  0  0
 74 75  1  0  0  0  0
 75 76  1  0  0  0  0
 76 77  1  0  0  0  0
 74 78  1  0  0  0  0
 78 79  1  0  0  0  0
 71 80  1  0  0  0  0
 80 81  1  0  0  0  0
 67 82  1  0  0  0  0
 82 83  2  0  0  0  0
 83 84  1  0  0  0  0
 84 85  2  0  0  0  0
 85 86  1  0  0  0  0
 86 87  2  0  0  0  0
 87 88  1  0  0  0  0
 88 89  1  0  0  0  0
 88 90  2  0  0  0  0
 90 91  1  0  0  0  0
 91 92  1  0  0  0  0
 90 93  1  0  0  0  0
 85 94  1  0  0  0  0
 94 95  2  0  0  0  0
 95 96  1  0  0  0  0
 96 97  1  0  0  0  0
 97 98  1  0  0  0  0
 98 99  1  0  0  0  0
 99100  1  0  0  0  0
100101  1  0  0  0  0
101102  1  0  0  0  0
 99103  2  0  0  0  0
103104  1  0  0  0  0
103105  1  0  0  0  0
 96106  2  0  0  0  0
106107  1  0  0  0  0
 95108  1  0  0  0  0
108109  2  0  0  0  0
109110  1  0  0  0  0
109111  1  0  0  0  0
111112  2  0  0  0  0
112113  1  0  0  0  0
113114  2  0  0  0  0
113115  1  0  0  0  0
115116  2  0  0  0  0
116117  1  0  0  0  0
117118  2  0  0  0  0
118119  1  0  0  0  0
119120  2  0  0  0  0
120121  1  0  0  0  0
120122  1  0  0  0  0
122123  2  0  0  0  0
123124  1  0  0  0  0
124125  2  0  0  0  0
125126  1  0  0  0  0
126127  2  0  0  0  0
127128  1  0  0  0  0
128129  3  0  0  0  0
127130  1  0  0  0  0
130131  3  0  0  0  0
 16  2  1  0  0  0  0
 31 22  2  0  0  0  0
 77 35  1  0  0  0  0
107 82  1  0  0  0  0
126112  1  0  0  0  0
 15  5  1  0  0  0  0
 30 24  2  0  0  0  0
 44 37  1  0  0  0  0
 76 45  2  0  0  0  0
106 84  1  0  0  0  0
125115  1  0  0  0  0
 13  7  1  0  0  0  0
 34 25  1  0  0  0  0
 75 47  2  0  0  0  0
 93 86  1  0  0  0  0
110 94  1  0  0  0  0
123117  1  0  0  0  0
 73 48  2  0  0  0  0
104 97  2  0  0  0  0
 53 49  2  0  0  0  0
 72 54  2  0  0  0  0
 70 55  2  0  0  0  0
 69 57  2  0  0  0  0
 66 59  1  0  0  0  0
  1132  1  0  0  0  0
  6133  1  0  0  0  0
  8134  1  0  0  0  0
  9135  1  0  0  0  0
 12136  1  0  0  0  0
 14137  1  0  0  0  0
 28138  1  0  0  0  0
 28139  1  0  0  0  0
 29140  1  0  0  0  0
 29141  1  0  0  0  0
 29142  1  0  0  0  0
 31143  1  0  0  0  0
 32144  1  0  0  0  0
 38145  1  0  0  0  0
 39146  1  0  0  0  0
 40147  1  0  0  0  0
 42148  1  0  0  0  0
 42149  1  0  0  0  0
 43150  1  0  0  0  0
 43151  1  0  0  0  0
 43152  1  0  0  0  0
 44153  1  0  0  0  0
 60154  1  0  0  0  0
 61155  1  0  0  0  0
 62156  1  0  0  0  0
 64157  1  0  0  0  0
 64158  1  0  0  0  0
 65159  1  0  0  0  0
 65160  1  0  0  0  0
 65161  1  0  0  0  0
 66162  1  0  0  0  0
 78163  1  0  0  0  0
 78164  1  0  0  0  0
 79165  1  0  0  0  0
 79166  1  0  0  0  0
 79167  1  0  0  0  0
 80168  1  0  0  0  0
 80169  1  0  0  0  0
 81170  1  0  0  0  0
 81171  1  0  0  0  0
 81172  1  0  0  0  0
 83173  1  0  0  0  0
 87174  1  0  0  0  0
 91175  1  0  0  0  0
 91176  1  0  0  0  0
 92177  1  0  0  0  0
 92178  1  0  0  0  0
 92179  1  0  0  0  0
100180  1  0  0  0  0
100181  1  0  0  0  0
101182  1  0  0  0  0
101183  1  0  0  0  0
102184  1  0  0  0  0
102185  1  0  0  0  0
102186  1  0  0  0  0
104187  1  0  0  0  0
108188  1  0  0  0  0
111189  1  0  0  0  0
116190  1  0  0  0  0
118191  1  0  0  0  0
119192  1  0  0  0  0
122193  1  0  0  0  0
124194  1  0  0  0  0
M  END
