
  xtb     02052201243D
 energy: -259.393328282026 gnorm: 0.000711730990 xtb: 6.4.1 (unknown)
159174  0     0  0            999 V2000
  -12.9993    2.8549   -1.3906 C   0  0  0  0  0  0  0  0  0  0  0  0
  -14.2252    2.4496   -0.9155 C   0  0  0  0  0  0  0  0  0  0  0  0
  -14.5251    1.4486    0.1272 C   0  0  0  0  0  0  0  0  0  0  0  0
  -13.7696    0.8977    0.9069 O   0  0  0  0  0  0  0  0  0  0  0  0
  -15.9778    1.2048    0.0446 C   0  0  0  0  0  0  0  0  0  0  0  0
  -16.7296    0.3178    0.7586 C   0  0  0  0  0  0  0  0  0  0  0  0
  -18.1165    0.2306    0.5050 C   0  0  0  0  0  0  0  0  0  0  0  0
  -18.9413   -0.6696    1.2094 C   0  0  0  0  0  0  0  0  0  0  0  0
  -20.2813   -0.7482    0.9496 C   0  0  0  0  0  0  0  0  0  0  0  0
  -20.8304    0.0849   -0.0341 C   0  0  0  0  0  0  0  0  0  0  0  0
  -22.1518   -0.0074   -0.2764 F   0  0  0  0  0  0  0  0  0  0  0  0
  -20.0761    0.9757   -0.7455 C   0  0  0  0  0  0  0  0  0  0  0  0
  -18.6941    1.0704   -0.4907 C   0  0  0  0  0  0  0  0  0  0  0  0
  -17.8883    1.9842   -1.2100 C   0  0  0  0  0  0  0  0  0  0  0  0
  -16.5471    2.0528   -0.9437 C   0  0  0  0  0  0  0  0  0  0  0  0
  -15.4807    2.8783   -1.5045 C   0  0  0  0  0  0  0  0  0  0  0  0
  -15.6770    3.9159   -2.3811 C   0  0  0  0  0  0  0  0  0  0  0  0
  -16.9357    4.2750   -2.9057 C   0  0  0  0  0  0  0  0  0  0  0  0
  -17.9258    4.6187   -3.3756 N   0  0  0  0  0  0  0  0  0  0  0  0
  -14.6892    4.8034   -2.8568 C   0  0  0  0  0  0  0  0  0  0  0  0
  -13.9626    5.5875   -3.2781 N   0  0  0  0  0  0  0  0  0  0  0  0
  -11.6961    2.5674   -0.9650 C   0  0  0  0  0  0  0  0  0  0  0  0
  -10.3903    3.1563   -2.0193 S   0  0  0  0  0  0  0  0  0  0  0  0
   -9.2168    2.4723   -0.9723 C   0  0  0  0  0  0  0  0  0  0  0  0
   -7.8461    2.2907   -0.8316 C   0  0  0  0  0  0  0  0  0  0  0  0
   -7.6484    1.5619    0.3660 C   0  0  0  0  0  0  0  0  0  0  0  0
   -8.8511    1.3175    0.9651 N   0  0  0  0  0  0  0  0  0  0  0  0
   -9.0812    0.5313    2.1503 C   0  0  0  0  0  0  0  0  0  0  0  0
   -9.3585   -0.9309    1.8090 C   0  0  0  0  0  0  0  0  0  0  0  0
   -9.8231    1.8433    0.1517 C   0  0  0  0  0  0  0  0  0  0  0  0
  -11.2058    1.8999    0.1521 C   0  0  0  0  0  0  0  0  0  0  0  0
   -6.3073    1.2728    0.6265 C   0  0  0  0  0  0  0  0  0  0  0  0
   -5.4788    1.7712   -0.3577 C   0  0  0  0  0  0  0  0  0  0  0  0
   -6.3500    2.6254   -1.6258 S   0  0  0  0  0  0  0  0  0  0  0  0
   -4.0711    1.6275   -0.4485 C   0  0  0  0  0  0  0  0  0  0  0  0
   -3.2364    2.0999   -1.4439 C   0  0  0  0  0  0  0  0  0  0  0  0
   -1.9061    1.7334   -1.2437 C   0  0  0  0  0  0  0  0  0  0  0  0
   -0.5914    1.8792   -1.9668 C   0  0  0  0  0  0  0  0  0  0  0  0
   -0.6100    1.1425   -3.3241 C   0  0  0  0  0  0  0  0  0  0  0  0
   -1.4842    1.7621   -4.4052 C   0  0  0  0  0  0  0  0  0  0  0  0
   -0.0908    3.3383   -2.0766 C   0  0  0  0  0  0  0  0  0  0  0  0
   -1.1738    4.3983   -2.2408 C   0  0  0  0  0  0  0  0  0  0  0  0
    0.3330    1.1010   -1.0396 C   0  0  0  0  0  0  0  0  0  0  0  0
   -0.3722    0.5807    0.0683 C   0  0  0  0  0  0  0  0  0  0  0  0
   -1.7323    0.9819   -0.0918 C   0  0  0  0  0  0  0  0  0  0  0  0
   -3.1945    0.7207    0.7677 S   0  0  0  0  0  0  0  0  0  0  0  0
    0.2509   -0.1805    1.0542 C   0  0  0  0  0  0  0  0  0  0  0  0
    1.5974   -0.4177    0.9109 C   0  0  0  0  0  0  0  0  0  0  0  0
    2.5099   -1.2441    1.8021 C   0  0  0  0  0  0  0  0  0  0  0  0
    2.5649   -0.7006    3.2379 C   0  0  0  0  0  0  0  0  0  0  0  0
    2.9234    0.7801    3.2877 C   0  0  0  0  0  0  0  0  0  0  0  0
    2.0135   -2.7065    1.7617 C   0  0  0  0  0  0  0  0  0  0  0  0
    2.9102   -3.7145    2.4685 C   0  0  0  0  0  0  0  0  0  0  0  0
    3.8248   -1.0875    1.0889 C   0  0  0  0  0  0  0  0  0  0  0  0
    3.6602   -0.3262   -0.0604 C   0  0  0  0  0  0  0  0  0  0  0  0
    2.3044    0.1014   -0.1988 C   0  0  0  0  0  0  0  0  0  0  0  0
    1.6813    0.8692   -1.1797 C   0  0  0  0  0  0  0  0  0  0  0  0
    5.1187   -0.1302   -0.9382 S   0  0  0  0  0  0  0  0  0  0  0  0
    5.9745   -1.0901    0.2572 C   0  0  0  0  0  0  0  0  0  0  0  0
    5.1348   -1.5076    1.2799 C   0  0  0  0  0  0  0  0  0  0  0  0
    7.3507   -1.3697    0.0736 C   0  0  0  0  0  0  0  0  0  0  0  0
    8.1384   -2.2759    0.7977 C   0  0  0  0  0  0  0  0  0  0  0  0
    7.6603   -3.1389    1.8971 C   0  0  0  0  0  0  0  0  0  0  0  0
    7.8749   -2.7677    3.2251 C   0  0  0  0  0  0  0  0  0  0  0  0
    7.4548   -3.6157    4.2402 C   0  0  0  0  0  0  0  0  0  0  0  0
    6.8301   -4.8218    3.9648 C   0  0  0  0  0  0  0  0  0  0  0  0
    6.3638   -5.7201    5.0747 C   0  0  0  0  0  0  0  0  0  0  0  0
    4.9059   -5.4276    5.4332 C   0  0  0  0  0  0  0  0  0  0  0  0
    6.6038   -5.1619    2.6388 C   0  0  0  0  0  0  0  0  0  0  0  0
    7.0059   -4.3378    1.5993 C   0  0  0  0  0  0  0  0  0  0  0  0
    6.7614   -4.7620    0.1775 C   0  0  0  0  0  0  0  0  0  0  0  0
    7.9638   -5.5230   -0.3828 C   0  0  0  0  0  0  0  0  0  0  0  0
    8.5605   -1.4761    3.5772 C   0  0  0  0  0  0  0  0  0  0  0  0
   10.0426   -1.7028    3.8779 C   0  0  0  0  0  0  0  0  0  0  0  0
    9.4358   -2.3134    0.3198 C   0  0  0  0  0  0  0  0  0  0  0  0
    9.6885   -1.4664   -0.7640 C   0  0  0  0  0  0  0  0  0  0  0  0
    8.2430   -0.5845   -1.1887 S   0  0  0  0  0  0  0  0  0  0  0  0
   10.9404   -1.4064   -1.3831 C   0  0  0  0  0  0  0  0  0  0  0  0
   11.3596   -0.6731   -2.4687 C   0  0  0  0  0  0  0  0  0  0  0  0
   10.5298    0.2651   -3.2280 C   0  0  0  0  0  0  0  0  0  0  0  0
    9.3636    0.5601   -3.0253 O   0  0  0  0  0  0  0  0  0  0  0  0
   11.3861    0.7958   -4.3020 C   0  0  0  0  0  0  0  0  0  0  0  0
   11.0741    1.6956   -5.2786 C   0  0  0  0  0  0  0  0  0  0  0  0
   12.0642    2.0613   -6.2180 C   0  0  0  0  0  0  0  0  0  0  0  0
   11.7973    2.9822   -7.2510 C   0  0  0  0  0  0  0  0  0  0  0  0
   12.7641    3.3267   -8.1546 C   0  0  0  0  0  0  0  0  0  0  0  0
   14.0352    2.7489   -8.0397 C   0  0  0  0  0  0  0  0  0  0  0  0
   14.9742    3.1002   -8.9382 F   0  0  0  0  0  0  0  0  0  0  0  0
   14.3467    1.8510   -7.0567 C   0  0  0  0  0  0  0  0  0  0  0  0
   13.3628    1.4838   -6.1185 C   0  0  0  0  0  0  0  0  0  0  0  0
   13.6553    0.5537   -5.0926 C   0  0  0  0  0  0  0  0  0  0  0  0
   12.6794    0.2111   -4.1960 C   0  0  0  0  0  0  0  0  0  0  0  0
   12.6809   -0.7069   -3.0576 C   0  0  0  0  0  0  0  0  0  0  0  0
   13.7576   -1.4577   -2.6539 C   0  0  0  0  0  0  0  0  0  0  0  0
   13.7811   -2.3491   -1.5626 C   0  0  0  0  0  0  0  0  0  0  0  0
   13.8912   -3.0916   -0.6919 N   0  0  0  0  0  0  0  0  0  0  0  0
   15.0147   -1.4424   -3.2919 C   0  0  0  0  0  0  0  0  0  0  0  0
   16.0607   -1.4798   -3.7644 N   0  0  0  0  0  0  0  0  0  0  0  0
  -13.0241    3.4835   -2.2733 H   0  0  0  0  0  0  0  0  0  0  0  0
  -16.2711   -0.3122    1.5063 H   0  0  0  0  0  0  0  0  0  0  0  0
  -18.4946   -1.3015    1.9624 H   0  0  0  0  0  0  0  0  0  0  0  0
  -20.9261   -1.4319    1.4789 H   0  0  0  0  0  0  0  0  0  0  0  0
  -20.5332    1.6028   -1.4950 H   0  0  0  0  0  0  0  0  0  0  0  0
  -18.3568    2.6018   -1.9589 H   0  0  0  0  0  0  0  0  0  0  0  0
   -9.9360    0.9582    2.6817 H   0  0  0  0  0  0  0  0  0  0  0  0
   -8.1965    0.6117    2.7868 H   0  0  0  0  0  0  0  0  0  0  0  0
   -8.5207   -1.3581    1.2623 H   0  0  0  0  0  0  0  0  0  0  0  0
   -9.5097   -1.5019    2.7206 H   0  0  0  0  0  0  0  0  0  0  0  0
  -10.2527   -1.0100    1.1957 H   0  0  0  0  0  0  0  0  0  0  0  0
  -11.8550    1.4778    0.8961 H   0  0  0  0  0  0  0  0  0  0  0  0
   -5.9356    0.7229    1.4719 H   0  0  0  0  0  0  0  0  0  0  0  0
   -3.6184    2.6835   -2.2616 H   0  0  0  0  0  0  0  0  0  0  0  0
   -0.9456    0.1182   -3.1388 H   0  0  0  0  0  0  0  0  0  0  0  0
    0.4181    1.0887   -3.6885 H   0  0  0  0  0  0  0  0  0  0  0  0
   -2.5181    1.8335   -4.0807 H   0  0  0  0  0  0  0  0  0  0  0  0
   -1.1275    2.7505   -4.6806 H   0  0  0  0  0  0  0  0  0  0  0  0
   -1.4534    1.1350   -5.2940 H   0  0  0  0  0  0  0  0  0  0  0  0
    0.4703    3.5709   -1.1677 H   0  0  0  0  0  0  0  0  0  0  0  0
    0.6075    3.3966   -2.9134 H   0  0  0  0  0  0  0  0  0  0  0  0
   -1.7858    4.2188   -3.1188 H   0  0  0  0  0  0  0  0  0  0  0  0
   -0.7060    5.3751   -2.3465 H   0  0  0  0  0  0  0  0  0  0  0  0
   -1.8207    4.4265   -1.3676 H   0  0  0  0  0  0  0  0  0  0  0  0
   -0.3161   -0.5617    1.8900 H   0  0  0  0  0  0  0  0  0  0  0  0
    3.3110   -1.2654    3.7983 H   0  0  0  0  0  0  0  0  0  0  0  0
    1.5929   -0.8564    3.7103 H   0  0  0  0  0  0  0  0  0  0  0  0
    3.8959    0.9541    2.8327 H   0  0  0  0  0  0  0  0  0  0  0  0
    2.9613    1.1213    4.3196 H   0  0  0  0  0  0  0  0  0  0  0  0
    2.1846    1.3747    2.7551 H   0  0  0  0  0  0  0  0  0  0  0  0
    1.0175   -2.7355    2.2087 H   0  0  0  0  0  0  0  0  0  0  0  0
    1.9132   -2.9966    0.7125 H   0  0  0  0  0  0  0  0  0  0  0  0
    3.8973   -3.7466    2.0156 H   0  0  0  0  0  0  0  0  0  0  0  0
    3.0169   -3.4768    3.5232 H   0  0  0  0  0  0  0  0  0  0  0  0
    2.4680   -4.7054    2.3887 H   0  0  0  0  0  0  0  0  0  0  0  0
    2.2491    1.2572   -2.0116 H   0  0  0  0  0  0  0  0  0  0  0  0
    5.4892   -2.0723    2.1210 H   0  0  0  0  0  0  0  0  0  0  0  0
    7.6232   -3.3260    5.2681 H   0  0  0  0  0  0  0  0  0  0  0  0
    6.9888   -5.5707    5.9572 H   0  0  0  0  0  0  0  0  0  0  0  0
    6.4541   -6.7633    4.7654 H   0  0  0  0  0  0  0  0  0  0  0  0
    4.2647   -5.5886    4.5697 H   0  0  0  0  0  0  0  0  0  0  0  0
    4.5747   -6.0784    6.2391 H   0  0  0  0  0  0  0  0  0  0  0  0
    4.7960   -4.3941    5.7551 H   0  0  0  0  0  0  0  0  0  0  0  0
    6.1051   -6.0930    2.4080 H   0  0  0  0  0  0  0  0  0  0  0  0
    6.5628   -3.8902   -0.4488 H   0  0  0  0  0  0  0  0  0  0  0  0
    5.8822   -5.4093    0.1421 H   0  0  0  0  0  0  0  0  0  0  0  0
    7.7587   -5.8609   -1.3960 H   0  0  0  0  0  0  0  0  0  0  0  0
    8.8432   -4.8841   -0.4037 H   0  0  0  0  0  0  0  0  0  0  0  0
    8.1837   -6.3903    0.2356 H   0  0  0  0  0  0  0  0  0  0  0  0
    8.4613   -0.7620    2.7575 H   0  0  0  0  0  0  0  0  0  0  0  0
    8.0819   -1.0463    4.4606 H   0  0  0  0  0  0  0  0  0  0  0  0
   10.5159   -0.7691    4.1724 H   0  0  0  0  0  0  0  0  0  0  0  0
   10.5562   -2.0870    3.0005 H   0  0  0  0  0  0  0  0  0  0  0  0
   10.1602   -2.4220    4.6852 H   0  0  0  0  0  0  0  0  0  0  0  0
   10.2000   -2.9527    0.7285 H   0  0  0  0  0  0  0  0  0  0  0  0
   11.6731   -2.0575   -0.9219 H   0  0  0  0  0  0  0  0  0  0  0  0
   10.0839    2.1224   -5.3348 H   0  0  0  0  0  0  0  0  0  0  0  0
   10.8100    3.4139   -7.3184 H   0  0  0  0  0  0  0  0  0  0  0  0
   12.5762    4.0289   -8.9513 H   0  0  0  0  0  0  0  0  0  0  0  0
   15.3365    1.4257   -6.9991 H   0  0  0  0  0  0  0  0  0  0  0  0
   14.6481    0.1365   -5.0472 H   0  0  0  0  0  0  0  0  0  0  0  0
  1  2  2  0  0  0  0
  2  3  1  0  0  0  0
  3  4  2  0  0  0  0
  3  5  1  0  0  0  0
  5  6  2  0  0  0  0
  6  7  1  0  0  0  0
  7  8  2  0  0  0  0
  8  9  1  0  0  0  0
  9 10  2  0  0  0  0
 10 11  1  0  0  0  0
 10 12  1  0  0  0  0
 12 13  2  0  0  0  0
 13 14  1  0  0  0  0
 14 15  2  0  0  0  0
 15 16  1  0  0  0  0
 16 17  2  0  0  0  0
 17 18  1  0  0  0  0
 18 19  3  0  0  0  0
 17 20  1  0  0  0  0
 20 21  3  0  0  0  0
  1 22  1  0  0  0  0
 22 23  1  0  0  0  0
 23 24  1  0  0  0  0
 24 25  1  0  0  0  0
 25 26  2  0  0  0  0
 26 27  1  0  0  0  0
 27 28  1  0  0  0  0
 28 29  1  0  0  0  0
 27 30  1  0  0  0  0
 30 31  1  0  0  0  0
 26 32  1  0  0  0  0
 32 33  2  0  0  0  0
 33 34  1  0  0  0  0
 33 35  1  0  0  0  0
 35 36  2  0  0  0  0
 36 37  1  0  0  0  0
 37 38  1  0  0  0  0
 38 39  1  0  0  0  0
 39 40  1  0  0  0  0
 38 41  1  0  0  0  0
 41 42  1  0  0  0  0
 38 43  1  0  0  0  0
 43 44  2  0  0  0  0
 44 45  1  0  0  0  0
 45 46  1  0  0  0  0
 44 47  1  0  0  0  0
 47 48  2  0  0  0  0
 48 49  1  0  0  0  0
 49 50  1  0  0  0  0
 50 51  1  0  0  0  0
 49 52  1  0  0  0  0
 52 53  1  0  0  0  0
 49 54  1  0  0  0  0
 54 55  2  0  0  0  0
 55 56  1  0  0  0  0
 56 57  2  0  0  0  0
 55 58  1  0  0  0  0
 58 59  1  0  0  0  0
 59 60  2  0  0  0  0
 59 61  1  0  0  0  0
 61 62  2  0  0  0  0
 62 63  1  0  0  0  0
 63 64  2  0  0  0  0
 64 65  1  0  0  0  0
 65 66  2  0  0  0  0
 66 67  1  0  0  0  0
 67 68  1  0  0  0  0
 66 69  1  0  0  0  0
 69 70  2  0  0  0  0
 70 71  1  0  0  0  0
 71 72  1  0  0  0  0
 64 73  1  0  0  0  0
 73 74  1  0  0  0  0
 62 75  1  0  0  0  0
 75 76  2  0  0  0  0
 76 77  1  0  0  0  0
 76 78  1  0  0  0  0
 78 79  2  0  0  0  0
 79 80  1  0  0  0  0
 80 81  2  0  0  0  0
 80 82  1  0  0  0  0
 82 83  2  0  0  0  0
 83 84  1  0  0  0  0
 84 85  2  0  0  0  0
 85 86  1  0  0  0  0
 86 87  2  0  0  0  0
 87 88  1  0  0  0  0
 87 89  1  0  0  0  0
 89 90  2  0  0  0  0
 90 91  1  0  0  0  0
 91 92  2  0  0  0  0
 92 93  1  0  0  0  0
 93 94  2  0  0  0  0
 94 95  1  0  0  0  0
 95 96  3  0  0  0  0
 94 97  1  0  0  0  0
 97 98  3  0  0  0  0
 16  2  1  0  0  0  0
 31 22  2  0  0  0  0
 46 35  1  0  0  0  0
 56 48  1  0  0  0  0
 77 61  1  0  0  0  0
 93 79  1  0  0  0  0
 15  5  1  0  0  0  0
 30 24  2  0  0  0  0
 45 37  2  0  0  0  0
 60 54  1  0  0  0  0
 70 63  1  0  0  0  0
 92 82  1  0  0  0  0
 13  7  1  0  0  0  0
 34 25  1  0  0  0  0
 57 43  1  0  0  0  0
 90 84  1  0  0  0  0
  1 99  1  0  0  0  0
  6100  1  0  0  0  0
  8101  1  0  0  0  0
  9102  1  0  0  0  0
 12103  1  0  0  0  0
 14104  1  0  0  0  0
 28105  1  0  0  0  0
 28106  1  0  0  0  0
 29107  1  0  0  0  0
 29108  1  0  0  0  0
 29109  1  0  0  0  0
 31110  1  0  0  0  0
 32111  1  0  0  0  0
 36112  1  0  0  0  0
 39113  1  0  0  0  0
 39114  1  0  0  0  0
 40115  1  0  0  0  0
 40116  1  0  0  0  0
 40117  1  0  0  0  0
 41118  1  0  0  0  0
 41119  1  0  0  0  0
 42120  1  0  0  0  0
 42121  1  0  0  0  0
 42122  1  0  0  0  0
 47123  1  0  0  0  0
 50124  1  0  0  0  0
 50125  1  0  0  0  0
 51126  1  0  0  0  0
 51127  1  0  0  0  0
 51128  1  0  0  0  0
 52129  1  0  0  0  0
 52130  1  0  0  0  0
 53131  1  0  0  0  0
 53132  1  0  0  0  0
 53133  1  0  0  0  0
 57134  1  0  0  0  0
 60135  1  0  0  0  0
 65136  1  0  0  0  0
 67137  1  0  0  0  0
 67138  1  0  0  0  0
 68139  1  0  0  0  0
 68140  1  0  0  0  0
 68141  1  0  0  0  0
 69142  1  0  0  0  0
 71143  1  0  0  0  0
 71144  1  0  0  0  0
 72145  1  0  0  0  0
 72146  1  0  0  0  0
 72147  1  0  0  0  0
 73148  1  0  0  0  0
 73149  1  0  0  0  0
 74150  1  0  0  0  0
 74151  1  0  0  0  0
 74152  1  0  0  0  0
 75153  1  0  0  0  0
 78154  1  0  0  0  0
 83155  1  0  0  0  0
 85156  1  0  0  0  0
 86157  1  0  0  0  0
 89158  1  0  0  0  0
 91159  1  0  0  0  0
M  END
