173

C          7.46470       -2.82580        9.48330
C          7.16950       -2.72850       10.82230
C          6.60770       -1.57270       11.54920
O          6.53220       -0.40930       11.20080
C          6.10060       -2.11500       12.82550
C          5.40650       -1.46900       13.80660
C          4.98010       -2.19580       14.94090
C          4.25000       -1.58240       15.97890
C          3.83130       -2.29950       17.06520
C          4.14070       -3.66420       17.13610
F          3.71800       -4.35440       18.21230
C          4.84810       -4.30750       16.15900
C          5.28700       -3.58420       15.03300
C          6.01830       -4.22340       14.00420
C          6.42060       -3.49740       12.91580
C          7.15920       -3.87200       11.71400
C          7.78870       -5.07480       11.51610
C          7.74330       -6.14520       12.43210
N          7.73680       -7.05490       13.13310
C          8.60710       -5.39640       10.41310
N          9.30910       -5.72740        9.56610
C          7.49390       -1.84810        8.47990
S          7.47860       -2.45450        6.80920
C          7.41010       -0.84790        6.21490
C          7.27040       -0.12370        5.03750
C          7.24840        1.24560        5.39490
N          7.39820        1.37330        6.74760
C          7.30020        2.58840        7.51600
C          5.89060        2.78970        8.06750
C          7.46150        0.10510        7.26990
C          7.50850       -0.45910        8.53410
C          7.02850        2.10240        4.31260
C          6.87110        1.40040        3.13550
S          7.03240       -0.34000        3.34370
C          6.47380        1.89540        1.86010
C          6.52570        3.18170        1.34710
C          7.27040        4.29420        1.93760
C          6.70980        5.56690        1.99570
C          7.43090        6.61310        2.54070
C          8.71040        6.40400        3.02380
C          9.28980        5.14150        2.96510
C         10.69800        4.91860        3.43730
C         11.68430        5.12910        2.28700
C          8.56290        4.09720        2.41670
C          5.79780        3.27630        0.14260
S          5.41660        4.61380       -0.92010
C          4.44030        3.55160       -1.88040
C          3.49220        3.62120       -2.91620
C          2.89290        4.71890       -3.57590
C          1.68890        4.50590       -4.33650
N          1.18370        5.63550       -4.80500
S          2.13900        6.85890       -4.34450
N          3.23290        5.99620       -3.51830
C          1.21360        3.18790       -4.51900
C          0.07550        2.65490       -5.15410
S         -1.40750        3.19380       -5.87020
C         -1.91550        1.52870       -6.03410
C         -3.13840        0.92510       -6.40470
C         -4.34810        1.66840       -6.75360
C         -4.26610        2.81000       -7.54680
C         -5.41460        3.50430       -7.87890
C         -6.64860        3.07600       -7.42150
C         -6.74670        1.95430       -6.60600
C         -8.06900        1.51280       -6.04900
C         -8.37330        2.25470       -4.74630
C         -5.59100        1.26620       -6.27180
C         -3.07120       -0.44580       -6.27460
S         -1.52110       -1.00560       -5.69310
C         -0.95270        0.61990       -5.59730
C          0.17920        1.26380       -5.08240
N          1.32730        0.90750       -4.42310
C          1.94500        2.07810       -4.01930
C          2.99320        2.30250       -3.09570
N          3.59820        1.46670       -2.17880
C          4.45870        2.22690       -1.43360
C          5.22680        2.07220       -0.27440
S          5.58620        0.79050        0.82230
C          3.19960        0.15550       -1.71700
C          4.26720       -0.90210       -1.99220
C          1.95770       -0.36870       -4.68500
C          2.17690       -0.58280       -6.18240
C         -4.14790       -1.40110       -6.48150
C         -4.49950       -2.27410       -5.45240
F         -3.77380       -2.30310       -4.32170
C         -5.64180       -3.04100       -5.53800
F         -5.98960       -3.82860       -4.50470
C         -6.41640       -3.03690       -6.69780
C         -5.96360       -2.31050       -7.81590
O         -6.65410       -2.42240       -9.00160
C         -6.35610       -3.59780       -9.75830
C         -4.96880       -3.57010      -10.38890
C         -4.87580       -1.43580       -7.69170
O         -4.39640       -0.64180       -8.67520
C         -5.28220       -0.01640       -9.60300
C         -4.43710        0.88840      -10.48310
C         -7.67730       -3.75670       -6.71440
C         -8.59280       -3.62290       -5.72860
C         -8.54510       -2.55490       -4.68400
O         -7.78710       -1.61180       -4.63370
C         -9.68560       -2.82170       -3.79590
C        -10.03760       -2.16820       -2.64980
C        -11.16720       -2.60760       -1.92640
C        -11.56400       -1.98230       -0.72630
C        -12.65650       -2.42120       -0.03210
C        -13.38560       -3.50960       -0.53180
F        -14.45680       -3.92680        0.16560
C        -13.04510       -4.15090       -1.69010
C        -11.92100       -3.71370       -2.41810
C        -11.54040       -4.36160       -3.61570
C        -10.43380       -3.92480       -4.29710
C         -9.80380       -4.40530       -5.52170
C        -10.25550       -5.43190       -6.30550
C        -11.42950       -6.17110       -6.04410
N        -12.37380       -6.80470       -5.89040
C         -9.62700       -5.88870       -7.48350
N         -9.16780       -6.30940       -8.44820
H          7.63440       -3.82900        9.10810
H          5.17870       -0.41730       13.71620
H          4.02280       -0.52970       15.90120
H          3.26990       -1.84590       17.86660
H          5.06960       -5.35960       16.24730
H          6.23060       -5.27600       14.10060
H          7.57810        3.42110        6.86530
H          8.01700        2.53220        8.34020
H          5.16870        2.83070        7.25490
H          5.84080        3.71920        8.62730
H          5.62550        1.96930        8.73000
H          7.53130        0.07940        9.46220
H          6.94100        3.17130        4.37050
H          5.70810        5.73010        1.62900
H          6.99080        7.59810        2.58850
H          9.26750        7.22660        3.44870
H         10.80330        3.90120        3.82010
H         10.93300        5.61490        4.24500
H         11.46900        4.43920        1.47420
H         12.70420        4.96140        2.62480
H         11.60690        6.14380        1.90320
H          9.00580        3.11340        2.35280
H         -3.30540        3.14410       -7.90950
H         -5.34660        4.38420       -8.50170
H         -7.54270        3.61950       -7.69180
H         -8.86260        1.71130       -6.77300
H         -8.04130        0.44050       -5.84610
H         -8.39780        3.32940       -4.91440
H         -7.60550        2.03900       -4.00720
H         -9.33580        1.94120       -4.34850
H         -5.66700        0.41300       -5.61440
H          3.04700        0.21780       -0.63320
H          2.24500       -0.10720       -2.17120
H          4.53850       -0.93740       -3.04490
H          3.89860       -1.87900       -1.69320
H          5.16570       -0.68480       -1.42110
H          1.32470       -1.16920       -4.28750
H          2.92490       -0.38480       -4.19130
H          1.23040       -0.63130       -6.71300
H          2.76850        0.23110       -6.59630
H          2.70820       -1.51740       -6.34040
H         -6.44840       -4.49290       -9.13240
H         -7.13070       -3.62480      -10.52760
H         -4.80720       -4.49610      -10.93380
H         -4.20240       -3.47680       -9.62180
H         -4.87210       -2.73680      -11.07990
H         -5.80420       -0.75780      -10.21180
H         -6.02790        0.56470       -9.04770
H         -3.69430        0.30140      -11.01690
H         -5.07470        1.39630      -11.20060
H         -3.92600        1.62770       -9.87430
H         -7.87750       -4.40530       -7.55420
H         -9.45160       -1.33350       -2.29490
H        -10.98580       -1.14670       -0.36160
H        -12.97300       -1.95570        0.88790
H        -13.62940       -4.98610       -2.04380
H        -12.13360       -5.19300       -3.96090
