
  xtb     02042216123D
 energy: -310.297216749412 gnorm: 0.000292169020 xtb: 6.4.1 (unknown)
173192  0     0  0            999 V2000
    7.4647   -2.8258    9.4833 C   0  0  0  0  0  0  0  0  0  0  0  0
    7.1695   -2.7285   10.8223 C   0  0  0  0  0  0  0  0  0  0  0  0
    6.6077   -1.5727   11.5492 C   0  0  0  0  0  0  0  0  0  0  0  0
    6.5322   -0.4093   11.2008 O   0  0  0  0  0  0  0  0  0  0  0  0
    6.1006   -2.1150   12.8255 C   0  0  0  0  0  0  0  0  0  0  0  0
    5.4065   -1.4690   13.8066 C   0  0  0  0  0  0  0  0  0  0  0  0
    4.9801   -2.1958   14.9409 C   0  0  0  0  0  0  0  0  0  0  0  0
    4.2500   -1.5824   15.9789 C   0  0  0  0  0  0  0  0  0  0  0  0
    3.8313   -2.2995   17.0652 C   0  0  0  0  0  0  0  0  0  0  0  0
    4.1407   -3.6642   17.1361 C   0  0  0  0  0  0  0  0  0  0  0  0
    3.7180   -4.3544   18.2123 F   0  0  0  0  0  0  0  0  0  0  0  0
    4.8481   -4.3075   16.1590 C   0  0  0  0  0  0  0  0  0  0  0  0
    5.2870   -3.5842   15.0330 C   0  0  0  0  0  0  0  0  0  0  0  0
    6.0183   -4.2234   14.0042 C   0  0  0  0  0  0  0  0  0  0  0  0
    6.4206   -3.4974   12.9158 C   0  0  0  0  0  0  0  0  0  0  0  0
    7.1592   -3.8720   11.7140 C   0  0  0  0  0  0  0  0  0  0  0  0
    7.7887   -5.0748   11.5161 C   0  0  0  0  0  0  0  0  0  0  0  0
    7.7433   -6.1452   12.4321 C   0  0  0  0  0  0  0  0  0  0  0  0
    7.7368   -7.0549   13.1331 N   0  0  0  0  0  0  0  0  0  0  0  0
    8.6071   -5.3964   10.4131 C   0  0  0  0  0  0  0  0  0  0  0  0
    9.3091   -5.7274    9.5661 N   0  0  0  0  0  0  0  0  0  0  0  0
    7.4939   -1.8481    8.4799 C   0  0  0  0  0  0  0  0  0  0  0  0
    7.4786   -2.4545    6.8092 S   0  0  0  0  0  0  0  0  0  0  0  0
    7.4101   -0.8479    6.2149 C   0  0  0  0  0  0  0  0  0  0  0  0
    7.2704   -0.1237    5.0375 C   0  0  0  0  0  0  0  0  0  0  0  0
    7.2484    1.2456    5.3949 C   0  0  0  0  0  0  0  0  0  0  0  0
    7.3982    1.3733    6.7476 N   0  0  0  0  0  0  0  0  0  0  0  0
    7.3002    2.5884    7.5160 C   0  0  0  0  0  0  0  0  0  0  0  0
    5.8906    2.7897    8.0675 C   0  0  0  0  0  0  0  0  0  0  0  0
    7.4615    0.1051    7.2699 C   0  0  0  0  0  0  0  0  0  0  0  0
    7.5085   -0.4591    8.5341 C   0  0  0  0  0  0  0  0  0  0  0  0
    7.0285    2.1024    4.3126 C   0  0  0  0  0  0  0  0  0  0  0  0
    6.8711    1.4004    3.1355 C   0  0  0  0  0  0  0  0  0  0  0  0
    7.0324   -0.3400    3.3437 S   0  0  0  0  0  0  0  0  0  0  0  0
    6.4738    1.8954    1.8601 C   0  0  0  0  0  0  0  0  0  0  0  0
    6.5257    3.1817    1.3471 C   0  0  0  0  0  0  0  0  0  0  0  0
    7.2704    4.2942    1.9376 C   0  0  0  0  0  0  0  0  0  0  0  0
    6.7098    5.5669    1.9957 C   0  0  0  0  0  0  0  0  0  0  0  0
    7.4309    6.6131    2.5407 C   0  0  0  0  0  0  0  0  0  0  0  0
    8.7104    6.4040    3.0238 C   0  0  0  0  0  0  0  0  0  0  0  0
    9.2898    5.1415    2.9651 C   0  0  0  0  0  0  0  0  0  0  0  0
   10.6980    4.9186    3.4373 C   0  0  0  0  0  0  0  0  0  0  0  0
   11.6843    5.1291    2.2870 C   0  0  0  0  0  0  0  0  0  0  0  0
    8.5629    4.0972    2.4167 C   0  0  0  0  0  0  0  0  0  0  0  0
    5.7978    3.2763    0.1426 C   0  0  0  0  0  0  0  0  0  0  0  0
    5.4166    4.6138   -0.9201 S   0  0  0  0  0  0  0  0  0  0  0  0
    4.4403    3.5516   -1.8804 C   0  0  0  0  0  0  0  0  0  0  0  0
    3.4922    3.6212   -2.9162 C   0  0  0  0  0  0  0  0  0  0  0  0
    2.8929    4.7189   -3.5759 C   0  0  0  0  0  0  0  0  0  0  0  0
    1.6889    4.5059   -4.3365 C   0  0  0  0  0  0  0  0  0  0  0  0
    1.1837    5.6355   -4.8050 N   0  0  0  0  0  0  0  0  0  0  0  0
    2.1390    6.8589   -4.3445 S   0  0  0  0  0  0  0  0  0  0  0  0
    3.2329    5.9962   -3.5183 N   0  0  0  0  0  0  0  0  0  0  0  0
    1.2136    3.1879   -4.5190 C   0  0  0  0  0  0  0  0  0  0  0  0
    0.0755    2.6549   -5.1541 C   0  0  0  0  0  0  0  0  0  0  0  0
   -1.4075    3.1938   -5.8702 S   0  0  0  0  0  0  0  0  0  0  0  0
   -1.9155    1.5287   -6.0341 C   0  0  0  0  0  0  0  0  0  0  0  0
   -3.1384    0.9251   -6.4047 C   0  0  0  0  0  0  0  0  0  0  0  0
   -4.3481    1.6684   -6.7536 C   0  0  0  0  0  0  0  0  0  0  0  0
   -4.2661    2.8100   -7.5468 C   0  0  0  0  0  0  0  0  0  0  0  0
   -5.4146    3.5043   -7.8789 C   0  0  0  0  0  0  0  0  0  0  0  0
   -6.6486    3.0760   -7.4215 C   0  0  0  0  0  0  0  0  0  0  0  0
   -6.7467    1.9543   -6.6060 C   0  0  0  0  0  0  0  0  0  0  0  0
   -8.0690    1.5128   -6.0490 C   0  0  0  0  0  0  0  0  0  0  0  0
   -8.3733    2.2547   -4.7463 C   0  0  0  0  0  0  0  0  0  0  0  0
   -5.5910    1.2662   -6.2718 C   0  0  0  0  0  0  0  0  0  0  0  0
   -3.0712   -0.4458   -6.2746 C   0  0  0  0  0  0  0  0  0  0  0  0
   -1.5211   -1.0056   -5.6931 S   0  0  0  0  0  0  0  0  0  0  0  0
   -0.9527    0.6199   -5.5973 C   0  0  0  0  0  0  0  0  0  0  0  0
    0.1792    1.2638   -5.0824 C   0  0  0  0  0  0  0  0  0  0  0  0
    1.3273    0.9075   -4.4231 N   0  0  0  0  0  0  0  0  0  0  0  0
    1.9450    2.0781   -4.0193 C   0  0  0  0  0  0  0  0  0  0  0  0
    2.9932    2.3025   -3.0957 C   0  0  0  0  0  0  0  0  0  0  0  0
    3.5982    1.4667   -2.1788 N   0  0  0  0  0  0  0  0  0  0  0  0
    4.4587    2.2269   -1.4336 C   0  0  0  0  0  0  0  0  0  0  0  0
    5.2268    2.0722   -0.2744 C   0  0  0  0  0  0  0  0  0  0  0  0
    5.5862    0.7905    0.8223 S   0  0  0  0  0  0  0  0  0  0  0  0
    3.1996    0.1555   -1.7170 C   0  0  0  0  0  0  0  0  0  0  0  0
    4.2672   -0.9021   -1.9922 C   0  0  0  0  0  0  0  0  0  0  0  0
    1.9577   -0.3687   -4.6850 C   0  0  0  0  0  0  0  0  0  0  0  0
    2.1769   -0.5828   -6.1824 C   0  0  0  0  0  0  0  0  0  0  0  0
   -4.1479   -1.4011   -6.4815 C   0  0  0  0  0  0  0  0  0  0  0  0
   -4.4995   -2.2741   -5.4524 C   0  0  0  0  0  0  0  0  0  0  0  0
   -3.7738   -2.3031   -4.3217 F   0  0  0  0  0  0  0  0  0  0  0  0
   -5.6418   -3.0410   -5.5380 C   0  0  0  0  0  0  0  0  0  0  0  0
   -5.9896   -3.8286   -4.5047 F   0  0  0  0  0  0  0  0  0  0  0  0
   -6.4164   -3.0369   -6.6978 C   0  0  0  0  0  0  0  0  0  0  0  0
   -5.9636   -2.3105   -7.8159 C   0  0  0  0  0  0  0  0  0  0  0  0
   -6.6541   -2.4224   -9.0016 O   0  0  0  0  0  0  0  0  0  0  0  0
   -6.3561   -3.5978   -9.7583 C   0  0  0  0  0  0  0  0  0  0  0  0
   -4.9688   -3.5701  -10.3889 C   0  0  0  0  0  0  0  0  0  0  0  0
   -4.8758   -1.4358   -7.6917 C   0  0  0  0  0  0  0  0  0  0  0  0
   -4.3964   -0.6418   -8.6752 O   0  0  0  0  0  0  0  0  0  0  0  0
   -5.2822   -0.0164   -9.6030 C   0  0  0  0  0  0  0  0  0  0  0  0
   -4.4371    0.8884  -10.4831 C   0  0  0  0  0  0  0  0  0  0  0  0
   -7.6773   -3.7567   -6.7144 C   0  0  0  0  0  0  0  0  0  0  0  0
   -8.5928   -3.6229   -5.7286 C   0  0  0  0  0  0  0  0  0  0  0  0
   -8.5451   -2.5549   -4.6840 C   0  0  0  0  0  0  0  0  0  0  0  0
   -7.7871   -1.6118   -4.6337 O   0  0  0  0  0  0  0  0  0  0  0  0
   -9.6856   -2.8217   -3.7959 C   0  0  0  0  0  0  0  0  0  0  0  0
  -10.0376   -2.1682   -2.6498 C   0  0  0  0  0  0  0  0  0  0  0  0
  -11.1672   -2.6076   -1.9264 C   0  0  0  0  0  0  0  0  0  0  0  0
  -11.5640   -1.9823   -0.7263 C   0  0  0  0  0  0  0  0  0  0  0  0
  -12.6565   -2.4212   -0.0321 C   0  0  0  0  0  0  0  0  0  0  0  0
  -13.3856   -3.5096   -0.5318 C   0  0  0  0  0  0  0  0  0  0  0  0
  -14.4568   -3.9268    0.1656 F   0  0  0  0  0  0  0  0  0  0  0  0
  -13.0451   -4.1509   -1.6901 C   0  0  0  0  0  0  0  0  0  0  0  0
  -11.9210   -3.7137   -2.4181 C   0  0  0  0  0  0  0  0  0  0  0  0
  -11.5404   -4.3616   -3.6157 C   0  0  0  0  0  0  0  0  0  0  0  0
  -10.4338   -3.9248   -4.2971 C   0  0  0  0  0  0  0  0  0  0  0  0
   -9.8038   -4.4053   -5.5217 C   0  0  0  0  0  0  0  0  0  0  0  0
  -10.2555   -5.4319   -6.3055 C   0  0  0  0  0  0  0  0  0  0  0  0
  -11.4295   -6.1711   -6.0441 C   0  0  0  0  0  0  0  0  0  0  0  0
  -12.3738   -6.8047   -5.8904 N   0  0  0  0  0  0  0  0  0  0  0  0
   -9.6270   -5.8887   -7.4835 C   0  0  0  0  0  0  0  0  0  0  0  0
   -9.1678   -6.3094   -8.4482 N   0  0  0  0  0  0  0  0  0  0  0  0
    7.6344   -3.8290    9.1081 H   0  0  0  0  0  0  0  0  0  0  0  0
    5.1787   -0.4173   13.7162 H   0  0  0  0  0  0  0  0  0  0  0  0
    4.0228   -0.5297   15.9012 H   0  0  0  0  0  0  0  0  0  0  0  0
    3.2699   -1.8459   17.8666 H   0  0  0  0  0  0  0  0  0  0  0  0
    5.0696   -5.3596   16.2473 H   0  0  0  0  0  0  0  0  0  0  0  0
    6.2306   -5.2760   14.1006 H   0  0  0  0  0  0  0  0  0  0  0  0
    7.5781    3.4211    6.8653 H   0  0  0  0  0  0  0  0  0  0  0  0
    8.0170    2.5322    8.3402 H   0  0  0  0  0  0  0  0  0  0  0  0
    5.1687    2.8307    7.2549 H   0  0  0  0  0  0  0  0  0  0  0  0
    5.8408    3.7192    8.6273 H   0  0  0  0  0  0  0  0  0  0  0  0
    5.6255    1.9693    8.7300 H   0  0  0  0  0  0  0  0  0  0  0  0
    7.5313    0.0794    9.4622 H   0  0  0  0  0  0  0  0  0  0  0  0
    6.9410    3.1713    4.3705 H   0  0  0  0  0  0  0  0  0  0  0  0
    5.7081    5.7301    1.6290 H   0  0  0  0  0  0  0  0  0  0  0  0
    6.9908    7.5981    2.5885 H   0  0  0  0  0  0  0  0  0  0  0  0
    9.2675    7.2266    3.4487 H   0  0  0  0  0  0  0  0  0  0  0  0
   10.8033    3.9012    3.8201 H   0  0  0  0  0  0  0  0  0  0  0  0
   10.9330    5.6149    4.2450 H   0  0  0  0  0  0  0  0  0  0  0  0
   11.4690    4.4392    1.4742 H   0  0  0  0  0  0  0  0  0  0  0  0
   12.7042    4.9614    2.6248 H   0  0  0  0  0  0  0  0  0  0  0  0
   11.6069    6.1438    1.9032 H   0  0  0  0  0  0  0  0  0  0  0  0
    9.0058    3.1134    2.3528 H   0  0  0  0  0  0  0  0  0  0  0  0
   -3.3054    3.1441   -7.9095 H   0  0  0  0  0  0  0  0  0  0  0  0
   -5.3466    4.3842   -8.5017 H   0  0  0  0  0  0  0  0  0  0  0  0
   -7.5427    3.6195   -7.6918 H   0  0  0  0  0  0  0  0  0  0  0  0
   -8.8626    1.7113   -6.7730 H   0  0  0  0  0  0  0  0  0  0  0  0
   -8.0413    0.4405   -5.8461 H   0  0  0  0  0  0  0  0  0  0  0  0
   -8.3978    3.3294   -4.9144 H   0  0  0  0  0  0  0  0  0  0  0  0
   -7.6055    2.0390   -4.0072 H   0  0  0  0  0  0  0  0  0  0  0  0
   -9.3358    1.9412   -4.3485 H   0  0  0  0  0  0  0  0  0  0  0  0
   -5.6670    0.4130   -5.6144 H   0  0  0  0  0  0  0  0  0  0  0  0
    3.0470    0.2178   -0.6332 H   0  0  0  0  0  0  0  0  0  0  0  0
    2.2450   -0.1072   -2.1712 H   0  0  0  0  0  0  0  0  0  0  0  0
    4.5385   -0.9374   -3.0449 H   0  0  0  0  0  0  0  0  0  0  0  0
    3.8986   -1.8790   -1.6932 H   0  0  0  0  0  0  0  0  0  0  0  0
    5.1657   -0.6848   -1.4211 H   0  0  0  0  0  0  0  0  0  0  0  0
    1.3247   -1.1692   -4.2875 H   0  0  0  0  0  0  0  0  0  0  0  0
    2.9249   -0.3848   -4.1913 H   0  0  0  0  0  0  0  0  0  0  0  0
    1.2304   -0.6313   -6.7130 H   0  0  0  0  0  0  0  0  0  0  0  0
    2.7685    0.2311   -6.5963 H   0  0  0  0  0  0  0  0  0  0  0  0
    2.7082   -1.5174   -6.3404 H   0  0  0  0  0  0  0  0  0  0  0  0
   -6.4484   -4.4929   -9.1324 H   0  0  0  0  0  0  0  0  0  0  0  0
   -7.1307   -3.6248  -10.5276 H   0  0  0  0  0  0  0  0  0  0  0  0
   -4.8072   -4.4961  -10.9338 H   0  0  0  0  0  0  0  0  0  0  0  0
   -4.2024   -3.4768   -9.6218 H   0  0  0  0  0  0  0  0  0  0  0  0
   -4.8721   -2.7368  -11.0799 H   0  0  0  0  0  0  0  0  0  0  0  0
   -5.8042   -0.7578  -10.2118 H   0  0  0  0  0  0  0  0  0  0  0  0
   -6.0279    0.5647   -9.0477 H   0  0  0  0  0  0  0  0  0  0  0  0
   -3.6943    0.3014  -11.0169 H   0  0  0  0  0  0  0  0  0  0  0  0
   -5.0747    1.3963  -11.2006 H   0  0  0  0  0  0  0  0  0  0  0  0
   -3.9260    1.6277   -9.8743 H   0  0  0  0  0  0  0  0  0  0  0  0
   -7.8775   -4.4053   -7.5542 H   0  0  0  0  0  0  0  0  0  0  0  0
   -9.4516   -1.3335   -2.2949 H   0  0  0  0  0  0  0  0  0  0  0  0
  -10.9858   -1.1467   -0.3616 H   0  0  0  0  0  0  0  0  0  0  0  0
  -12.9730   -1.9557    0.8879 H   0  0  0  0  0  0  0  0  0  0  0  0
  -13.6294   -4.9861   -2.0438 H   0  0  0  0  0  0  0  0  0  0  0  0
  -12.1336   -5.1930   -3.9609 H   0  0  0  0  0  0  0  0  0  0  0  0
  1  2  2  0  0  0  0
  2  3  1  0  0  0  0
  3  4  2  0  0  0  0
  3  5  1  0  0  0  0
  5  6  2  0  0  0  0
  6  7  1  0  0  0  0
  7  8  2  0  0  0  0
  8  9  1  0  0  0  0
  9 10  2  0  0  0  0
 10 11  1  0  0  0  0
 10 12  1  0  0  0  0
 12 13  2  0  0  0  0
 13 14  1  0  0  0  0
 14 15  2  0  0  0  0
 15 16  1  0  0  0  0
 16 17  2  0  0  0  0
 17 18  1  0  0  0  0
 18 19  3  0  0  0  0
 17 20  1  0  0  0  0
 20 21  3  0  0  0  0
  1 22  1  0  0  0  0
 22 23  1  0  0  0  0
 23 24  1  0  0  0  0
 24 25  1  0  0  0  0
 25 26  2  0  0  0  0
 26 27  1  0  0  0  0
 27 28  1  0  0  0  0
 28 29  1  0  0  0  0
 27 30  1  0  0  0  0
 30 31  1  0  0  0  0
 26 32  1  0  0  0  0
 32 33  2  0  0  0  0
 33 34  1  0  0  0  0
 33 35  1  0  0  0  0
 35 36  2  0  0  0  0
 36 37  1  0  0  0  0
 37 38  2  0  0  0  0
 38 39  1  0  0  0  0
 39 40  2  0  0  0  0
 40 41  1  0  0  0  0
 41 42  1  0  0  0  0
 42 43  1  0  0  0  0
 41 44  2  0  0  0  0
 36 45  1  0  0  0  0
 45 46  1  0  0  0  0
 46 47  1  0  0  0  0
 47 48  1  0  0  0  0
 48 49  1  0  0  0  0
 49 50  1  0  0  0  0
 50 51  2  0  0  0  0
 51 52  1  0  0  0  0
 52 53  1  0  0  0  0
 50 54  1  0  0  0  0
 54 55  1  0  0  0  0
 55 56  1  0  0  0  0
 56 57  1  0  0  0  0
 57 58  1  0  0  0  0
 58 59  1  0  0  0  0
 59 60  2  0  0  0  0
 60 61  1  0  0  0  0
 61 62  2  0  0  0  0
 62 63  1  0  0  0  0
 63 64  1  0  0  0  0
 64 65  1  0  0  0  0
 63 66  2  0  0  0  0
 58 67  2  0  0  0  0
 67 68  1  0  0  0  0
 68 69  1  0  0  0  0
 69 70  1  0  0  0  0
 70 71  1  0  0  0  0
 71 72  1  0  0  0  0
 72 73  1  0  0  0  0
 73 74  1  0  0  0  0
 74 75  1  0  0  0  0
 75 76  1  0  0  0  0
 76 77  1  0  0  0  0
 74 78  1  0  0  0  0
 78 79  1  0  0  0  0
 71 80  1  0  0  0  0
 80 81  1  0  0  0  0
 67 82  1  0  0  0  0
 82 83  2  0  0  0  0
 83 84  1  0  0  0  0
 83 85  1  0  0  0  0
 85 86  1  0  0  0  0
 85 87  2  0  0  0  0
 87 88  1  0  0  0  0
 88 89  1  0  0  0  0
 89 90  1  0  0  0  0
 90 91  1  0  0  0  0
 88 92  2  0  0  0  0
 92 93  1  0  0  0  0
 93 94  1  0  0  0  0
 94 95  1  0  0  0  0
 87 96  1  0  0  0  0
 96 97  2  0  0  0  0
 97 98  1  0  0  0  0
 98 99  2  0  0  0  0
 98100  1  0  0  0  0
100101  2  0  0  0  0
101102  1  0  0  0  0
102103  2  0  0  0  0
103104  1  0  0  0  0
104105  2  0  0  0  0
105106  1  0  0  0  0
105107  1  0  0  0  0
107108  2  0  0  0  0
108109  1  0  0  0  0
109110  2  0  0  0  0
110111  1  0  0  0  0
111112  2  0  0  0  0
112113  1  0  0  0  0
113114  3  0  0  0  0
112115  1  0  0  0  0
115116  3  0  0  0  0
 16  2  1  0  0  0  0
 31 22  2  0  0  0  0
 77 35  1  0  0  0  0
 92 82  1  0  0  0  0
111 97  1  0  0  0  0
 15  5  1  0  0  0  0
 30 24  2  0  0  0  0
 44 37  1  0  0  0  0
 76 45  2  0  0  0  0
110100  1  0  0  0  0
 13  7  1  0  0  0  0
 34 25  1  0  0  0  0
 75 47  2  0  0  0  0
108102  1  0  0  0  0
 73 48  2  0  0  0  0
 53 49  2  0  0  0  0
 72 54  2  0  0  0  0
 70 55  2  0  0  0  0
 69 57  2  0  0  0  0
 66 59  1  0  0  0  0
  1117  1  0  0  0  0
  6118  1  0  0  0  0
  8119  1  0  0  0  0
  9120  1  0  0  0  0
 12121  1  0  0  0  0
 14122  1  0  0  0  0
 28123  1  0  0  0  0
 28124  1  0  0  0  0
 29125  1  0  0  0  0
 29126  1  0  0  0  0
 29127  1  0  0  0  0
 31128  1  0  0  0  0
 32129  1  0  0  0  0
 38130  1  0  0  0  0
 39131  1  0  0  0  0
 40132  1  0  0  0  0
 42133  1  0  0  0  0
 42134  1  0  0  0  0
 43135  1  0  0  0  0
 43136  1  0  0  0  0
 43137  1  0  0  0  0
 44138  1  0  0  0  0
 60139  1  0  0  0  0
 61140  1  0  0  0  0
 62141  1  0  0  0  0
 64142  1  0  0  0  0
 64143  1  0  0  0  0
 65144  1  0  0  0  0
 65145  1  0  0  0  0
 65146  1  0  0  0  0
 66147  1  0  0  0  0
 78148  1  0  0  0  0
 78149  1  0  0  0  0
 79150  1  0  0  0  0
 79151  1  0  0  0  0
 79152  1  0  0  0  0
 80153  1  0  0  0  0
 80154  1  0  0  0  0
 81155  1  0  0  0  0
 81156  1  0  0  0  0
 81157  1  0  0  0  0
 90158  1  0  0  0  0
 90159  1  0  0  0  0
 91160  1  0  0  0  0
 91161  1  0  0  0  0
 91162  1  0  0  0  0
 94163  1  0  0  0  0
 94164  1  0  0  0  0
 95165  1  0  0  0  0
 95166  1  0  0  0  0
 95167  1  0  0  0  0
 96168  1  0  0  0  0
101169  1  0  0  0  0
103170  1  0  0  0  0
104171  1  0  0  0  0
107172  1  0  0  0  0
109173  1  0  0  0  0
M  END
