163

C         12.83870       -2.83480       -1.93460
C         13.91700       -2.68890       -1.09270
C         14.01170       -1.92050        0.16450
O         13.22680       -1.12030        0.63980
C         15.28880       -2.32010        0.78570
C         15.80270       -1.93500        1.98970
C         17.04680       -2.45860        2.40630
C         17.62380       -2.09960        3.64130
C         18.82610       -2.61860        4.03460
C         19.48460       -3.51980        3.18740
F         20.66710       -4.02080        3.59230
C         18.96990       -3.90080        1.97970
C         17.73270       -3.37570        1.55850
C         17.17600       -3.75070        0.31300
C         15.97030       -3.22720       -0.07010
C         15.16030       -3.41730       -1.27050
C         15.56560       -4.11570       -2.38030
C         16.79970       -4.79130       -2.47780
N         17.78270       -5.36620       -2.62690
C         14.86010       -4.23710       -3.59580
N         14.37690       -4.37370       -4.62940
C         11.57130       -2.23810       -1.93800
S         10.41890       -2.87350       -3.13500
C          9.21540       -1.78780       -2.57460
C          7.88910       -1.42240       -2.77680
C          7.60500       -0.38790       -1.85400
N          8.70740       -0.12640       -1.09110
C          8.84150        0.90880       -0.09870
C          9.29020        2.22780       -0.72420
C          9.70520       -0.96400       -1.52160
C         11.01990       -1.21700       -1.17180
C          6.29030        0.07330       -1.92890
C          5.56500       -0.59340       -2.89760
S          6.51020       -1.81160       -3.74420
C          4.17530       -0.42220       -3.14460
C          3.36690       -0.97060       -4.12460
C          3.83380       -1.73350       -5.28540
C          3.27760       -2.97490       -5.57420
C          3.71350       -3.68070       -6.67980
C          4.69580       -3.15620       -7.50070
C          5.24760       -1.90840       -7.23710
C          6.34910       -1.35700       -8.09470
C          7.70870       -1.79950       -7.54910
C          4.80400       -1.20310       -6.12960
C          2.00850       -0.67990       -3.89300
S          0.54550       -1.12090       -4.74060
C         -0.37430       -0.25830       -3.55360
C         -1.71610        0.02090       -3.23840
C         -2.92560       -0.26450       -3.90940
C         -4.16400        0.18480       -3.33560
N         -5.20840       -0.11500       -4.09130
S         -4.68280       -0.89600       -5.40840
N         -3.10140       -0.88530       -5.06510
C         -4.14780        0.78770       -2.05790
C         -5.18460        1.10730       -1.16720
S         -6.91350        1.05880       -1.10460
C         -6.83860        1.52460        0.57770
C         -7.83570        1.72940        1.54540
C         -9.26920        1.62790        1.25590
C        -10.12180        2.69820        1.51240
C        -11.46520        2.59010        1.21390
C        -11.96430        1.42650        0.65470
C        -11.12430        0.35700        0.37770
C        -11.64050       -0.88500       -0.28920
C        -11.38210       -0.82320       -1.79600
C         -9.77480        0.47110        0.67830
C         -7.28730        2.06530        2.77320
S         -5.52810        2.16870        2.71010
C         -5.53330        1.72200        1.04190
C         -4.58600        1.48990        0.03870
N         -3.22170        1.45020       -0.08470
C         -2.92720        1.03110       -1.36850
C         -1.70190        0.76590       -2.02800
N         -0.38540        0.99040       -1.65460
C          0.41120        0.34950       -2.57050
C          1.77510        0.10980       -2.76580
S          3.25010        0.49980       -1.95750
C          0.14830        2.12490       -0.93130
C          0.65450        3.20570       -1.88690
C         -2.38390        1.48970        1.09310
C         -2.22990        2.90740        1.64410
C         -7.92480        2.22570        4.02800
C         -7.32500        2.71290        5.18160
C         -8.16760        2.68470        6.27810
S         -7.66300        3.25280        7.87460
C         -7.51260        1.64940        8.75200
C         -6.31440        0.86370        8.26090
C         -9.45380        2.19160        5.99440
S         -9.56070        1.72190        4.31200
C        -10.47940        2.14780        6.94190
C        -11.78510        1.73530        6.81850
C        -12.43590        1.30570        5.57700
O        -11.91940        1.12170        4.48750
C        -13.86500        1.14840        5.89850
C        -14.89380        0.79900        5.07350
C        -16.20230        0.72120        5.60140
C        -17.30310        0.36330        4.79710
C        -18.56480        0.29360        5.31950
C        -18.75300        0.58530        6.67690
F        -20.00180        0.51170        7.17330
C        -17.72040        0.93730        7.50120
C        -16.41440        1.01280        6.98010
C        -15.32550        1.36840        7.81110
C        -14.06620        1.43190        7.27880
C        -12.76980        1.74030        7.87890
C        -12.54320        1.91540        9.22160
C        -13.55920        1.91970       10.19870
N        -14.33920        1.94330       11.04130
C        -11.27610        2.04790        9.82400
N        -10.27820        2.10990       10.39070
H         12.96020       -3.56490       -2.72650
H         15.26490       -1.24120        2.61870
H         17.09730       -1.40360        4.27700
H         19.28090       -2.35500        4.97640
H         19.50520       -4.59630        1.35220
H         17.71950       -4.44960       -0.30170
H          7.87490        1.03480        0.39640
H          9.57430        0.57630        0.64060
H          9.37820        2.99220        0.04260
H         10.25660        2.10480       -1.20700
H          8.56920        2.55870       -1.46840
H         11.57770       -0.71660       -0.40240
H          5.86510        0.84840       -1.31690
H          2.51880       -3.38680       -4.92600
H          3.28530       -4.64710       -6.90060
H          5.03520       -3.71680       -8.35950
H          6.30180       -0.26620       -8.10450
H          6.23760       -1.71400       -9.12020
H          8.51340       -1.39900       -8.16080
H          7.83920       -1.44960       -6.52750
H          7.78050       -2.88430       -7.54660
H          5.20980       -0.22280       -5.92110
H         -9.72590        3.60930        1.93710
H        -12.12740        3.41870        1.41700
H        -13.01800        1.34920        0.42810
H        -12.71220       -0.98620       -0.10890
H        -11.13980       -1.76200        0.12590
H        -10.31810       -0.71540       -1.99410
H        -11.73650       -1.72990       -2.28070
H        -11.89770        0.02890       -2.23320
H         -9.10950       -0.35650        0.47700
H          0.97010        1.77670       -0.29700
H         -0.63210        2.55380       -0.31340
H          1.47600        2.83730       -2.49460
H         -0.14780        3.53030       -2.54610
H          1.00560        4.06050       -1.31520
H         -2.86180        0.87150        1.86180
H         -1.42000        1.03770        0.85830
H         -1.89380        3.60430        0.87940
H         -1.51190        2.90770        2.45920
H         -3.18230        3.26530        2.02500
H         -6.31130        3.07140        5.22230
H         -7.41230        1.92710        9.79950
H         -8.44120        1.09730        8.61970
H         -6.42510        0.61100        7.20740
H         -5.40270        1.44400        8.38390
H         -6.22110       -0.05860        8.83080
H        -10.18250        2.53850        7.90930
H        -14.71080        0.58410        4.03120
H        -17.13290        0.14280        3.75390
H        -19.41740        0.02100        4.71790
H        -17.90200        1.15370        8.54240
H        -15.52060        1.58440        8.84910
