
  xtb     02042221143D
 energy: -340.705963343732 gnorm: 0.000800373147 xtb: 6.4.1 (unknown)
195217  0     0  0            999 V2000
   -3.2618  -15.7537    0.7753 C   0  0  0  0  0  0  0  0  0  0  0  0
   -2.4045  -16.2777   -0.1652 C   0  0  0  0  0  0  0  0  0  0  0  0
   -1.4510  -15.5123   -0.9719 C   0  0  0  0  0  0  0  0  0  0  0  0
   -1.2312  -14.3137   -0.9297 O   0  0  0  0  0  0  0  0  0  0  0  0
   -0.7936  -16.4841   -1.8633 C   0  0  0  0  0  0  0  0  0  0  0  0
    0.1596  -16.2638   -2.8137 C   0  0  0  0  0  0  0  0  0  0  0  0
    0.6464  -17.3568   -3.5655 C   0  0  0  0  0  0  0  0  0  0  0  0
    1.6292  -17.1885   -4.5615 C   0  0  0  0  0  0  0  0  0  0  0  0
    2.0904  -18.2543   -5.2836 C   0  0  0  0  0  0  0  0  0  0  0  0
    1.5693  -19.5275   -5.0190 C   0  0  0  0  0  0  0  0  0  0  0  0
    2.0351  -20.5650   -5.7404 F   0  0  0  0  0  0  0  0  0  0  0  0
    0.6154  -19.7459   -4.0643 C   0  0  0  0  0  0  0  0  0  0  0  0
    0.1294  -18.6597   -3.3111 C   0  0  0  0  0  0  0  0  0  0  0  0
   -0.8584  -18.8554   -2.3165 C   0  0  0  0  0  0  0  0  0  0  0  0
   -1.3149  -17.7819   -1.6002 C   0  0  0  0  0  0  0  0  0  0  0  0
   -2.3121  -17.6728   -0.5358 C   0  0  0  0  0  0  0  0  0  0  0  0
   -3.0123  -18.7295   -0.0056 C   0  0  0  0  0  0  0  0  0  0  0  0
   -3.9750  -18.6534    1.0203 C   0  0  0  0  0  0  0  0  0  0  0  0
   -4.7651  -18.6851    1.8549 N   0  0  0  0  0  0  0  0  0  0  0  0
   -2.8598  -20.0672   -0.4230 C   0  0  0  0  0  0  0  0  0  0  0  0
   -2.7868  -21.1772   -0.7095 N   0  0  0  0  0  0  0  0  0  0  0  0
   -3.4591  -14.4371    1.1998 C   0  0  0  0  0  0  0  0  0  0  0  0
   -2.5871  -13.0094    0.6307 S   0  0  0  0  0  0  0  0  0  0  0  0
   -3.5329  -12.0211    1.6723 C   0  0  0  0  0  0  0  0  0  0  0  0
   -3.7164  -10.6911    2.0381 C   0  0  0  0  0  0  0  0  0  0  0  0
   -4.7598  -10.6574    2.9917 C   0  0  0  0  0  0  0  0  0  0  0  0
   -5.2289  -11.9242    3.2097 N   0  0  0  0  0  0  0  0  0  0  0  0
   -6.2391  -12.3087    4.1610 C   0  0  0  0  0  0  0  0  0  0  0  0
   -5.6350  -12.6209    5.5285 C   0  0  0  0  0  0  0  0  0  0  0  0
   -4.4829  -12.7695    2.4248 C   0  0  0  0  0  0  0  0  0  0  0  0
   -4.4321  -14.1216    2.1594 C   0  0  0  0  0  0  0  0  0  0  0  0
   -5.0704   -9.3727    3.4416 C   0  0  0  0  0  0  0  0  0  0  0  0
   -4.2838   -8.4189    2.8274 C   0  0  0  0  0  0  0  0  0  0  0  0
   -3.1191   -9.1086    1.7030 S   0  0  0  0  0  0  0  0  0  0  0  0
   -4.3254   -7.0046    2.9848 C   0  0  0  0  0  0  0  0  0  0  0  0
   -5.3513   -6.2011    3.4524 C   0  0  0  0  0  0  0  0  0  0  0  0
   -6.6964   -6.6456    3.8282 C   0  0  0  0  0  0  0  0  0  0  0  0
   -7.2570   -6.2199    5.0281 C   0  0  0  0  0  0  0  0  0  0  0  0
   -8.5327   -6.6260    5.3747 C   0  0  0  0  0  0  0  0  0  0  0  0
   -9.2574   -7.4473    4.5299 C   0  0  0  0  0  0  0  0  0  0  0  0
   -8.7186   -7.8681    3.3192 C   0  0  0  0  0  0  0  0  0  0  0  0
   -9.5239   -8.7121    2.3731 C   0  0  0  0  0  0  0  0  0  0  0  0
  -10.3448   -7.8240    1.4362 C   0  0  0  0  0  0  0  0  0  0  0  0
   -7.4406   -7.4561    2.9763 C   0  0  0  0  0  0  0  0  0  0  0  0
   -4.9729   -4.8443    3.4604 C   0  0  0  0  0  0  0  0  0  0  0  0
   -5.8448   -3.3822    3.8587 S   0  0  0  0  0  0  0  0  0  0  0  0
   -4.4622   -2.4580    3.3764 C   0  0  0  0  0  0  0  0  0  0  0  0
   -4.0624   -1.1168    3.2677 C   0  0  0  0  0  0  0  0  0  0  0  0
   -4.7358    0.0736    3.6141 C   0  0  0  0  0  0  0  0  0  0  0  0
   -4.0693    1.3270    3.4176 C   0  0  0  0  0  0  0  0  0  0  0  0
   -4.8026    2.3580    3.8084 N   0  0  0  0  0  0  0  0  0  0  0  0
   -6.2124    1.7974    4.3740 S   0  0  0  0  0  0  0  0  0  0  0  0
   -5.9421    0.2178    4.1408 N   0  0  0  0  0  0  0  0  0  0  0  0
   -2.7927    1.3315    2.8167 C   0  0  0  0  0  0  0  0  0  0  0  0
   -1.9843    2.4011    2.4016 C   0  0  0  0  0  0  0  0  0  0  0  0
   -2.0095    4.1323    2.3788 S   0  0  0  0  0  0  0  0  0  0  0  0
   -0.5035    4.1155    1.4932 C   0  0  0  0  0  0  0  0  0  0  0  0
    0.3099    5.1457    0.9808 C   0  0  0  0  0  0  0  0  0  0  0  0
    0.0041    6.5739    1.1230 C   0  0  0  0  0  0  0  0  0  0  0  0
    0.9594    7.4721    1.5944 C   0  0  0  0  0  0  0  0  0  0  0  0
    0.6620    8.8185    1.6662 C   0  0  0  0  0  0  0  0  0  0  0  0
   -0.5904    9.2794    1.2942 C   0  0  0  0  0  0  0  0  0  0  0  0
   -1.5667    8.3931    0.8611 C   0  0  0  0  0  0  0  0  0  0  0  0
   -2.9569    8.8619    0.5407 C   0  0  0  0  0  0  0  0  0  0  0  0
   -3.8921    8.5802    1.7186 C   0  0  0  0  0  0  0  0  0  0  0  0
   -1.2564    7.0424    0.7755 C   0  0  0  0  0  0  0  0  0  0  0  0
    1.4208    4.6295    0.3404 C   0  0  0  0  0  0  0  0  0  0  0  0
    1.4837    2.8792    0.3938 S   0  0  0  0  0  0  0  0  0  0  0  0
   -0.0142    2.8302    1.2559 C   0  0  0  0  0  0  0  0  0  0  0  0
   -0.8699    1.8464    1.7719 C   0  0  0  0  0  0  0  0  0  0  0  0
   -0.9438    0.4801    1.8023 N   0  0  0  0  0  0  0  0  0  0  0  0
   -2.1267    0.1310    2.4371 C   0  0  0  0  0  0  0  0  0  0  0  0
   -2.7394   -1.1159    2.7397 C   0  0  0  0  0  0  0  0  0  0  0  0
   -2.3440   -2.4351    2.5672 N   0  0  0  0  0  0  0  0  0  0  0  0
   -3.3874   -3.2370    2.9468 C   0  0  0  0  0  0  0  0  0  0  0  0
   -3.6798   -4.6061    2.9906 C   0  0  0  0  0  0  0  0  0  0  0  0
   -2.8946   -6.0802    2.5505 S   0  0  0  0  0  0  0  0  0  0  0  0
   -1.0220   -3.0118    2.4628 C   0  0  0  0  0  0  0  0  0  0  0  0
   -0.1394   -2.6001    3.6389 C   0  0  0  0  0  0  0  0  0  0  0  0
   -0.0763   -0.2885    0.9396 C   0  0  0  0  0  0  0  0  0  0  0  0
   -0.8241   -0.8066   -0.2870 C   0  0  0  0  0  0  0  0  0  0  0  0
    2.4077    5.3634   -0.3858 C   0  0  0  0  0  0  0  0  0  0  0  0
    2.2287    6.5781   -0.9732 C   0  0  0  0  0  0  0  0  0  0  0  0
    3.4003    7.1002   -1.5668 C   0  0  0  0  0  0  0  0  0  0  0  0
    3.5652    8.3747   -2.1302 C   0  0  0  0  0  0  0  0  0  0  0  0
    2.4894    9.3527   -2.0872 C   0  0  0  0  0  0  0  0  0  0  0  0
    0.9081    9.0345   -2.7347 S   0  0  0  0  0  0  0  0  0  0  0  0
    0.2819   10.5511   -2.1805 C   0  0  0  0  0  0  0  0  0  0  0  0
   -1.1404   10.9262   -2.4102 C   0  0  0  0  0  0  0  0  0  0  0  0
   -1.5359   10.8078   -3.8807 C   0  0  0  0  0  0  0  0  0  0  0  0
    1.2567   11.2528   -1.5384 C   0  0  0  0  0  0  0  0  0  0  0  0
    1.0146   12.7886   -0.7962 Cl  0  0  0  0  0  0  0  0  0  0  0  0
    2.5080   10.5813   -1.4893 C   0  0  0  0  0  0  0  0  0  0  0  0
    3.8654   11.2386   -0.6748 Cl  0  0  0  0  0  0  0  0  0  0  0  0
    4.8251    8.6721   -2.6286 C   0  0  0  0  0  0  0  0  0  0  0  0
    5.9293    7.7943   -2.5263 C   0  0  0  0  0  0  0  0  0  0  0  0
    5.7821    6.5433   -1.8980 C   0  0  0  0  0  0  0  0  0  0  0  0
    6.8937    5.6418   -1.6740 C   0  0  0  0  0  0  0  0  0  0  0  0
    6.8989    4.2764   -1.7314 C   0  0  0  0  0  0  0  0  0  0  0  0
    8.1403    3.7070   -1.3855 C   0  0  0  0  0  0  0  0  0  0  0  0
    9.0840    4.6257   -1.0436 C   0  0  0  0  0  0  0  0  0  0  0  0
   10.4987    4.4005   -0.6348 C   0  0  0  0  0  0  0  0  0  0  0  0
   11.4784    4.9291   -1.6837 C   0  0  0  0  0  0  0  0  0  0  0  0
    8.4519    6.2343   -1.1659 S   0  0  0  0  0  0  0  0  0  0  0  0
    4.5014    6.2203   -1.4539 C   0  0  0  0  0  0  0  0  0  0  0  0
    4.0438    4.7686   -0.5995 S   0  0  0  0  0  0  0  0  0  0  0  0
    7.0890    8.3588   -3.1333 C   0  0  0  0  0  0  0  0  0  0  0  0
    6.8888    9.5872   -3.6633 C   0  0  0  0  0  0  0  0  0  0  0  0
    5.2404   10.1329   -3.4699 S   0  0  0  0  0  0  0  0  0  0  0  0
    7.9095   10.4603   -4.3320 C   0  0  0  0  0  0  0  0  0  0  0  0
    7.3147   11.1688   -5.5104 C   0  0  0  0  0  0  0  0  0  0  0  0
    6.6187   12.2985   -5.3475 C   0  0  0  0  0  0  0  0  0  0  0  0
    6.4113   12.8555   -4.0350 C   0  0  0  0  0  0  0  0  0  0  0  0
    5.3302   13.6251   -3.7459 C   0  0  0  0  0  0  0  0  0  0  0  0
    5.0224   14.2284   -2.1250 S   0  0  0  0  0  0  0  0  0  0  0  0
    3.4498   14.8252   -2.6007 C   0  0  0  0  0  0  0  0  0  0  0  0
    2.6332   15.4193   -1.6732 C   0  0  0  0  0  0  0  0  0  0  0  0
    3.0694   15.5235   -0.3355 C   0  0  0  0  0  0  0  0  0  0  0  0
    3.4095   15.6088    0.7566 N   0  0  0  0  0  0  0  0  0  0  0  0
    1.3405   15.9247   -1.8902 C   0  0  0  0  0  0  0  0  0  0  0  0
    0.2770   16.3476   -1.9903 N   0  0  0  0  0  0  0  0  0  0  0  0
    3.2211   14.6218   -3.9236 N   0  0  0  0  0  0  0  0  0  0  0  0
    1.9905   14.9547   -4.6162 C   0  0  0  0  0  0  0  0  0  0  0  0
    0.9432   13.8614   -4.4408 C   0  0  0  0  0  0  0  0  0  0  0  0
    4.2228   13.9662   -4.6313 C   0  0  0  0  0  0  0  0  0  0  0  0
    4.1302   13.7363   -5.8171 O   0  0  0  0  0  0  0  0  0  0  0  0
    7.3671   12.5014   -2.9322 C   0  0  0  0  0  0  0  0  0  0  0  0
    8.4590   11.5309   -3.3713 C   0  0  0  0  0  0  0  0  0  0  0  0
   -3.9139  -16.4592    1.2760 H   0  0  0  0  0  0  0  0  0  0  0  0
    0.5366  -15.2677   -2.9913 H   0  0  0  0  0  0  0  0  0  0  0  0
    2.0149  -16.1972   -4.7469 H   0  0  0  0  0  0  0  0  0  0  0  0
    2.8419  -18.1427   -6.0491 H   0  0  0  0  0  0  0  0  0  0  0  0
    0.2370  -20.7407   -3.8877 H   0  0  0  0  0  0  0  0  0  0  0  0
   -1.2278  -19.8545   -2.1512 H   0  0  0  0  0  0  0  0  0  0  0  0
   -6.9567  -11.4877    4.2447 H   0  0  0  0  0  0  0  0  0  0  0  0
   -6.7585  -13.1879    3.7704 H   0  0  0  0  0  0  0  0  0  0  0  0
   -6.4182  -12.9056    6.2253 H   0  0  0  0  0  0  0  0  0  0  0  0
   -4.9232  -13.4390    5.4485 H   0  0  0  0  0  0  0  0  0  0  0  0
   -5.1179  -11.7480    5.9202 H   0  0  0  0  0  0  0  0  0  0  0  0
   -5.0508  -14.8767    2.6107 H   0  0  0  0  0  0  0  0  0  0  0  0
   -5.8143   -9.1333    4.1780 H   0  0  0  0  0  0  0  0  0  0  0  0
   -6.6878   -5.5846    5.6896 H   0  0  0  0  0  0  0  0  0  0  0  0
   -8.9630   -6.2995    6.3097 H   0  0  0  0  0  0  0  0  0  0  0  0
  -10.2524   -7.7637    4.8083 H   0  0  0  0  0  0  0  0  0  0  0  0
   -8.8579   -9.3427    1.7800 H   0  0  0  0  0  0  0  0  0  0  0  0
  -10.1984   -9.3601    2.9368 H   0  0  0  0  0  0  0  0  0  0  0  0
  -10.9273   -8.4323    0.7483 H   0  0  0  0  0  0  0  0  0  0  0  0
   -9.6886   -7.1767    0.8588 H   0  0  0  0  0  0  0  0  0  0  0  0
  -11.0248   -7.1974    2.0086 H   0  0  0  0  0  0  0  0  0  0  0  0
   -7.0132   -7.7651    2.0329 H   0  0  0  0  0  0  0  0  0  0  0  0
    1.9321    7.1110    1.8935 H   0  0  0  0  0  0  0  0  0  0  0  0
    1.4093    9.5150    2.0165 H   0  0  0  0  0  0  0  0  0  0  0  0
   -0.8120   10.3354    1.3492 H   0  0  0  0  0  0  0  0  0  0  0  0
   -3.3299    8.3418   -0.3451 H   0  0  0  0  0  0  0  0  0  0  0  0
   -2.9515    9.9348    0.3364 H   0  0  0  0  0  0  0  0  0  0  0  0
   -3.5481    9.1070    2.6058 H   0  0  0  0  0  0  0  0  0  0  0  0
   -4.9025    8.9098    1.4886 H   0  0  0  0  0  0  0  0  0  0  0  0
   -3.9139    7.5159    1.9406 H   0  0  0  0  0  0  0  0  0  0  0  0
   -2.0010    6.3460    0.4175 H   0  0  0  0  0  0  0  0  0  0  0  0
   -1.1560   -4.0963    2.4770 H   0  0  0  0  0  0  0  0  0  0  0  0
   -0.5632   -2.7614    1.5065 H   0  0  0  0  0  0  0  0  0  0  0  0
   -0.0505   -1.5181    3.7048 H   0  0  0  0  0  0  0  0  0  0  0  0
    0.8524   -3.0301    3.5279 H   0  0  0  0  0  0  0  0  0  0  0  0
   -0.5710   -2.9604    4.5699 H   0  0  0  0  0  0  0  0  0  0  0  0
    0.7180    0.3886    0.6156 H   0  0  0  0  0  0  0  0  0  0  0  0
    0.4002   -1.0961    1.4944 H   0  0  0  0  0  0  0  0  0  0  0  0
   -1.6792   -1.4137    0.0009 H   0  0  0  0  0  0  0  0  0  0  0  0
   -1.1875    0.0305   -0.8786 H   0  0  0  0  0  0  0  0  0  0  0  0
   -0.1582   -1.4032   -0.9047 H   0  0  0  0  0  0  0  0  0  0  0  0
    1.2841    7.0857   -0.9854 H   0  0  0  0  0  0  0  0  0  0  0  0
   -1.7795   10.2682   -1.8148 H   0  0  0  0  0  0  0  0  0  0  0  0
   -1.2868   11.9504   -2.0628 H   0  0  0  0  0  0  0  0  0  0  0  0
   -0.9207   11.4607   -4.4942 H   0  0  0  0  0  0  0  0  0  0  0  0
   -2.5772   11.0899   -4.0097 H   0  0  0  0  0  0  0  0  0  0  0  0
   -1.4060    9.7840   -4.2240 H   0  0  0  0  0  0  0  0  0  0  0  0
    6.0498    3.6959   -2.0440 H   0  0  0  0  0  0  0  0  0  0  0  0
    8.3238    2.6472   -1.3845 H   0  0  0  0  0  0  0  0  0  0  0  0
   10.6901    4.9036    0.3169 H   0  0  0  0  0  0  0  0  0  0  0  0
   10.6534    3.3292   -0.4908 H   0  0  0  0  0  0  0  0  0  0  0  0
   12.5026    4.7448   -1.3697 H   0  0  0  0  0  0  0  0  0  0  0  0
   11.3433    6.0001   -1.8185 H   0  0  0  0  0  0  0  0  0  0  0  0
   11.3130    4.4361   -2.6391 H   0  0  0  0  0  0  0  0  0  0  0  0
    8.0366    7.8539   -3.1793 H   0  0  0  0  0  0  0  0  0  0  0  0
    8.7347    9.8160   -4.6522 H   0  0  0  0  0  0  0  0  0  0  0  0
    7.4266   10.7200   -6.4851 H   0  0  0  0  0  0  0  0  0  0  0  0
    6.1308   12.7809   -6.1792 H   0  0  0  0  0  0  0  0  0  0  0  0
    1.6194   15.9149   -4.2551 H   0  0  0  0  0  0  0  0  0  0  0  0
    2.2585   15.0431   -5.6729 H   0  0  0  0  0  0  0  0  0  0  0  0
    0.0550   14.1206   -5.0095 H   0  0  0  0  0  0  0  0  0  0  0  0
    0.6640   13.7531   -3.3960 H   0  0  0  0  0  0  0  0  0  0  0  0
    1.3337   12.9127   -4.8040 H   0  0  0  0  0  0  0  0  0  0  0  0
    7.8194   13.4202   -2.5473 H   0  0  0  0  0  0  0  0  0  0  0  0
    6.7896   12.0737   -2.1063 H   0  0  0  0  0  0  0  0  0  0  0  0
    8.9013   11.0539   -2.4959 H   0  0  0  0  0  0  0  0  0  0  0  0
    9.2450   12.0752   -3.8989 H   0  0  0  0  0  0  0  0  0  0  0  0
  1  2  2  0  0  0  0
  2  3  1  0  0  0  0
  3  4  2  0  0  0  0
  3  5  1  0  0  0  0
  5  6  2  0  0  0  0
  6  7  1  0  0  0  0
  7  8  2  0  0  0  0
  8  9  1  0  0  0  0
  9 10  2  0  0  0  0
 10 11  1  0  0  0  0
 10 12  1  0  0  0  0
 12 13  2  0  0  0  0
 13 14  1  0  0  0  0
 14 15  2  0  0  0  0
 15 16  1  0  0  0  0
 16 17  2  0  0  0  0
 17 18  1  0  0  0  0
 18 19  3  0  0  0  0
 17 20  1  0  0  0  0
 20 21  3  0  0  0  0
  1 22  1  0  0  0  0
 22 23  1  0  0  0  0
 23 24  1  0  0  0  0
 24 25  1  0  0  0  0
 25 26  2  0  0  0  0
 26 27  1  0  0  0  0
 27 28  1  0  0  0  0
 28 29  1  0  0  0  0
 27 30  1  0  0  0  0
 30 31  1  0  0  0  0
 26 32  1  0  0  0  0
 32 33  2  0  0  0  0
 33 34  1  0  0  0  0
 33 35  1  0  0  0  0
 35 36  2  0  0  0  0
 36 37  1  0  0  0  0
 37 38  2  0  0  0  0
 38 39  1  0  0  0  0
 39 40  2  0  0  0  0
 40 41  1  0  0  0  0
 41 42  1  0  0  0  0
 42 43  1  0  0  0  0
 41 44  2  0  0  0  0
 36 45  1  0  0  0  0
 45 46  1  0  0  0  0
 46 47  1  0  0  0  0
 47 48  1  0  0  0  0
 48 49  1  0  0  0  0
 49 50  1  0  0  0  0
 50 51  2  0  0  0  0
 51 52  1  0  0  0  0
 52 53  1  0  0  0  0
 50 54  1  0  0  0  0
 54 55  1  0  0  0  0
 55 56  1  0  0  0  0
 56 57  1  0  0  0  0
 57 58  1  0  0  0  0
 58 59  1  0  0  0  0
 59 60  2  0  0  0  0
 60 61  1  0  0  0  0
 61 62  2  0  0  0  0
 62 63  1  0  0  0  0
 63 64  1  0  0  0  0
 64 65  1  0  0  0  0
 63 66  2  0  0  0  0
 58 67  2  0  0  0  0
 67 68  1  0  0  0  0
 68 69  1  0  0  0  0
 69 70  1  0  0  0  0
 70 71  1  0  0  0  0
 71 72  1  0  0  0  0
 72 73  1  0  0  0  0
 73 74  1  0  0  0  0
 74 75  1  0  0  0  0
 75 76  1  0  0  0  0
 76 77  1  0  0  0  0
 74 78  1  0  0  0  0
 78 79  1  0  0  0  0
 71 80  1  0  0  0  0
 80 81  1  0  0  0  0
 67 82  1  0  0  0  0
 82 83  2  0  0  0  0
 83 84  1  0  0  0  0
 84 85  2  0  0  0  0
 85 86  1  0  0  0  0
 86 87  1  0  0  0  0
 87 88  1  0  0  0  0
 88 89  1  0  0  0  0
 89 90  1  0  0  0  0
 88 91  2  0  0  0  0
 91 92  1  0  0  0  0
 91 93  1  0  0  0  0
 93 94  1  0  0  0  0
 85 95  1  0  0  0  0
 95 96  2  0  0  0  0
 96 97  1  0  0  0  0
 97 98  1  0  0  0  0
 98 99  2  0  0  0  0
 99100  1  0  0  0  0
100101  2  0  0  0  0
101102  1  0  0  0  0
102103  1  0  0  0  0
101104  1  0  0  0  0
 97105  2  0  0  0  0
105106  1  0  0  0  0
 96107  1  0  0  0  0
107108  2  0  0  0  0
108109  1  0  0  0  0
108110  1  0  0  0  0
110111  1  0  0  0  0
111112  2  0  0  0  0
112113  1  0  0  0  0
113114  2  0  0  0  0
114115  1  0  0  0  0
115116  1  0  0  0  0
116117  2  0  0  0  0
117118  1  0  0  0  0
118119  3  0  0  0  0
117120  1  0  0  0  0
120121  3  0  0  0  0
116122  1  0  0  0  0
122123  1  0  0  0  0
123124  1  0  0  0  0
122125  1  0  0  0  0
125126  2  0  0  0  0
113127  1  0  0  0  0
127128  1  0  0  0  0
 16  2  1  0  0  0  0
 31 22  2  0  0  0  0
 77 35  1  0  0  0  0
106 82  1  0  0  0  0
128110  1  0  0  0  0
 15  5  1  0  0  0  0
 30 24  2  0  0  0  0
 44 37  1  0  0  0  0
 76 45  2  0  0  0  0
105 84  1  0  0  0  0
125114  1  0  0  0  0
 13  7  1  0  0  0  0
 34 25  1  0  0  0  0
 75 47  2  0  0  0  0
 93 86  2  0  0  0  0
109 95  1  0  0  0  0
 73 48  2  0  0  0  0
104 98  1  0  0  0  0
 53 49  2  0  0  0  0
 72 54  2  0  0  0  0
 70 55  2  0  0  0  0
 69 57  2  0  0  0  0
 66 59  1  0  0  0  0
  1129  1  0  0  0  0
  6130  1  0  0  0  0
  8131  1  0  0  0  0
  9132  1  0  0  0  0
 12133  1  0  0  0  0
 14134  1  0  0  0  0
 28135  1  0  0  0  0
 28136  1  0  0  0  0
 29137  1  0  0  0  0
 29138  1  0  0  0  0
 29139  1  0  0  0  0
 31140  1  0  0  0  0
 32141  1  0  0  0  0
 38142  1  0  0  0  0
 39143  1  0  0  0  0
 40144  1  0  0  0  0
 42145  1  0  0  0  0
 42146  1  0  0  0  0
 43147  1  0  0  0  0
 43148  1  0  0  0  0
 43149  1  0  0  0  0
 44150  1  0  0  0  0
 60151  1  0  0  0  0
 61152  1  0  0  0  0
 62153  1  0  0  0  0
 64154  1  0  0  0  0
 64155  1  0  0  0  0
 65156  1  0  0  0  0
 65157  1  0  0  0  0
 65158  1  0  0  0  0
 66159  1  0  0  0  0
 78160  1  0  0  0  0
 78161  1  0  0  0  0
 79162  1  0  0  0  0
 79163  1  0  0  0  0
 79164  1  0  0  0  0
 80165  1  0  0  0  0
 80166  1  0  0  0  0
 81167  1  0  0  0  0
 81168  1  0  0  0  0
 81169  1  0  0  0  0
 83170  1  0  0  0  0
 89171  1  0  0  0  0
 89172  1  0  0  0  0
 90173  1  0  0  0  0
 90174  1  0  0  0  0
 90175  1  0  0  0  0
 99176  1  0  0  0  0
100177  1  0  0  0  0
102178  1  0  0  0  0
102179  1  0  0  0  0
103180  1  0  0  0  0
103181  1  0  0  0  0
103182  1  0  0  0  0
107183  1  0  0  0  0
110184  1  0  0  0  0
111185  1  0  0  0  0
112186  1  0  0  0  0
123187  1  0  0  0  0
123188  1  0  0  0  0
124189  1  0  0  0  0
124190  1  0  0  0  0
124191  1  0  0  0  0
127192  1  0  0  0  0
127193  1  0  0  0  0
128194  1  0  0  0  0
128195  1  0  0  0  0
M  END
