
  xtb     02052203053D
 energy: -301.880211578722 gnorm: 0.000363981059 xtb: 6.4.1 (unknown)
173192  0     0  0            999 V2000
    3.5817  -10.7898    6.2350 C   0  0  0  0  0  0  0  0  0  0  0  0
    3.1994  -11.8324    7.0444 C   0  0  0  0  0  0  0  0  0  0  0  0
    2.0901  -12.7868    6.8487 C   0  0  0  0  0  0  0  0  0  0  0  0
    1.4586  -13.0326    5.8381 O   0  0  0  0  0  0  0  0  0  0  0  0
    1.8642  -13.4086    8.1690 C   0  0  0  0  0  0  0  0  0  0  0  0
    0.8834  -14.2808    8.5417 C   0  0  0  0  0  0  0  0  0  0  0  0
    0.8324  -14.7283    9.8812 C   0  0  0  0  0  0  0  0  0  0  0  0
   -0.1653  -15.6200   10.3242 C   0  0  0  0  0  0  0  0  0  0  0  0
   -0.2095  -16.0385   11.6251 C   0  0  0  0  0  0  0  0  0  0  0  0
    0.7586  -15.5671   12.5216 C   0  0  0  0  0  0  0  0  0  0  0  0
    0.6983  -15.9895   13.7988 F   0  0  0  0  0  0  0  0  0  0  0  0
    1.7478  -14.7023   12.1445 C   0  0  0  0  0  0  0  0  0  0  0  0
    1.8081  -14.2608   10.8085 C   0  0  0  0  0  0  0  0  0  0  0  0
    2.8187  -13.3638   10.3894 C   0  0  0  0  0  0  0  0  0  0  0  0
    2.8461  -12.9445    9.0869 C   0  0  0  0  0  0  0  0  0  0  0  0
    3.7365  -12.0319    8.3770 C   0  0  0  0  0  0  0  0  0  0  0  0
    4.9104  -11.5273    8.8763 C   0  0  0  0  0  0  0  0  0  0  0  0
    5.8401  -10.7500    8.1543 C   0  0  0  0  0  0  0  0  0  0  0  0
    6.6606  -10.1391    7.6312 N   0  0  0  0  0  0  0  0  0  0  0  0
    5.3778  -11.7725   10.1835 C   0  0  0  0  0  0  0  0  0  0  0  0
    5.8089  -11.9271   11.2367 N   0  0  0  0  0  0  0  0  0  0  0  0
    3.1654  -10.4156    4.9504 C   0  0  0  0  0  0  0  0  0  0  0  0
    3.6702   -8.7947    4.4253 S   0  0  0  0  0  0  0  0  0  0  0  0
    2.8264   -8.9992    2.9483 C   0  0  0  0  0  0  0  0  0  0  0  0
    2.4826   -8.3205    1.7867 C   0  0  0  0  0  0  0  0  0  0  0  0
    1.6988   -9.2033    1.0056 C   0  0  0  0  0  0  0  0  0  0  0  0
    1.5542  -10.3936    1.6630 N   0  0  0  0  0  0  0  0  0  0  0  0
    0.8444  -11.5647    1.2128 C   0  0  0  0  0  0  0  0  0  0  0  0
    1.8004  -12.7024    0.8634 C   0  0  0  0  0  0  0  0  0  0  0  0
    2.2258  -10.2853    2.8563 C   0  0  0  0  0  0  0  0  0  0  0  0
    2.4133  -11.0715    3.9821 C   0  0  0  0  0  0  0  0  0  0  0  0
    1.2183   -8.6230   -0.1741 C   0  0  0  0  0  0  0  0  0  0  0  0
    1.6124   -7.3060   -0.2875 C   0  0  0  0  0  0  0  0  0  0  0  0
    2.6239   -6.7701    1.0492 S   0  0  0  0  0  0  0  0  0  0  0  0
    1.2244   -6.3341   -1.2555 C   0  0  0  0  0  0  0  0  0  0  0  0
    0.7461   -6.4853   -2.5458 C   0  0  0  0  0  0  0  0  0  0  0  0
    0.7279   -7.7404   -3.2975 C   0  0  0  0  0  0  0  0  0  0  0  0
   -0.3820   -8.0864   -4.0635 C   0  0  0  0  0  0  0  0  0  0  0  0
   -0.3813   -9.2672   -4.7818 C   0  0  0  0  0  0  0  0  0  0  0  0
    0.7189  -10.1065   -4.7479 C   0  0  0  0  0  0  0  0  0  0  0  0
    1.8417   -9.7677   -4.0030 C   0  0  0  0  0  0  0  0  0  0  0  0
    3.0307  -10.6820   -3.9248 C   0  0  0  0  0  0  0  0  0  0  0  0
    3.0121  -11.4608   -2.6083 C   0  0  0  0  0  0  0  0  0  0  0  0
    1.8351   -8.5824   -3.2841 C   0  0  0  0  0  0  0  0  0  0  0  0
    0.3277   -5.2491   -3.0820 C   0  0  0  0  0  0  0  0  0  0  0  0
   -0.3533   -4.7870   -4.6265 S   0  0  0  0  0  0  0  0  0  0  0  0
   -0.4213   -3.1424   -4.0840 C   0  0  0  0  0  0  0  0  0  0  0  0
   -0.8790   -1.8878   -4.5203 C   0  0  0  0  0  0  0  0  0  0  0  0
   -1.5609   -1.5066   -5.6960 C   0  0  0  0  0  0  0  0  0  0  0  0
   -2.0402   -0.1593   -5.8147 C   0  0  0  0  0  0  0  0  0  0  0  0
   -2.7068    0.0427   -6.9407 N   0  0  0  0  0  0  0  0  0  0  0  0
   -2.7238   -1.3401   -7.7820 S   0  0  0  0  0  0  0  0  0  0  0  0
   -1.8849   -2.2533   -6.7403 N   0  0  0  0  0  0  0  0  0  0  0  0
   -1.7368    0.7676   -4.7943 C   0  0  0  0  0  0  0  0  0  0  0  0
   -2.0154    2.1402   -4.6791 C   0  0  0  0  0  0  0  0  0  0  0  0
   -2.8523    3.3946   -5.5314 S   0  0  0  0  0  0  0  0  0  0  0  0
   -2.3844    4.5281   -4.2854 C   0  0  0  0  0  0  0  0  0  0  0  0
   -2.6169    5.9101   -4.1021 C   0  0  0  0  0  0  0  0  0  0  0  0
   -3.2853    6.7724   -5.0750 C   0  0  0  0  0  0  0  0  0  0  0  0
   -4.4277    6.3362   -5.7391 C   0  0  0  0  0  0  0  0  0  0  0  0
   -5.0593    7.1710   -6.6419 C   0  0  0  0  0  0  0  0  0  0  0  0
   -4.5608    8.4378   -6.8907 C   0  0  0  0  0  0  0  0  0  0  0  0
   -3.4113    8.8831   -6.2481 C   0  0  0  0  0  0  0  0  0  0  0  0
   -2.8343   10.2372   -6.5431 C   0  0  0  0  0  0  0  0  0  0  0  0
   -1.8896   10.1635   -7.7441 C   0  0  0  0  0  0  0  0  0  0  0  0
   -2.7755    8.0380   -5.3532 C   0  0  0  0  0  0  0  0  0  0  0  0
   -2.0496    6.3617   -2.9295 C   0  0  0  0  0  0  0  0  0  0  0  0
   -1.1721    5.1031   -2.0767 S   0  0  0  0  0  0  0  0  0  0  0  0
   -1.6133    3.9457   -3.2802 C   0  0  0  0  0  0  0  0  0  0  0  0
   -1.4014    2.5794   -3.5061 C   0  0  0  0  0  0  0  0  0  0  0  0
   -0.7681    1.5384   -2.8824 N   0  0  0  0  0  0  0  0  0  0  0  0
   -0.9726    0.4014   -3.6506 C   0  0  0  0  0  0  0  0  0  0  0  0
   -0.6221   -0.9626   -3.4684 C   0  0  0  0  0  0  0  0  0  0  0  0
   -0.0394   -1.6522   -2.4170 N   0  0  0  0  0  0  0  0  0  0  0  0
    0.0693   -2.9643   -2.7900 C   0  0  0  0  0  0  0  0  0  0  0  0
    0.5007   -4.1664   -2.2182 C   0  0  0  0  0  0  0  0  0  0  0  0
    1.1911   -4.6611   -0.7171 S   0  0  0  0  0  0  0  0  0  0  0  0
    0.0707   -1.3062   -1.0180 C   0  0  0  0  0  0  0  0  0  0  0  0
   -1.2936   -0.9895   -0.4104 C   0  0  0  0  0  0  0  0  0  0  0  0
    0.2463    1.8246   -1.8923 C   0  0  0  0  0  0  0  0  0  0  0  0
    1.6474    1.5359   -2.4257 C   0  0  0  0  0  0  0  0  0  0  0  0
   -2.0952    7.6783   -2.3352 C   0  0  0  0  0  0  0  0  0  0  0  0
   -0.9595    8.1865   -1.7157 C   0  0  0  0  0  0  0  0  0  0  0  0
   -0.9141    9.4716   -1.1993 C   0  0  0  0  0  0  0  0  0  0  0  0
    0.1728    9.9991   -0.5914 O   0  0  0  0  0  0  0  0  0  0  0  0
    1.3023    9.1807   -0.3404 C   0  0  0  0  0  0  0  0  0  0  0  0
    2.3109   10.0119    0.4371 C   0  0  0  0  0  0  0  0  0  0  0  0
   -2.0722   10.2820   -1.2795 C   0  0  0  0  0  0  0  0  0  0  0  0
   -3.2461    9.7169   -1.8043 C   0  0  0  0  0  0  0  0  0  0  0  0
   -3.2853    8.4478   -2.3385 C   0  0  0  0  0  0  0  0  0  0  0  0
   -4.3848    7.8422   -2.8468 O   0  0  0  0  0  0  0  0  0  0  0  0
   -5.5851    8.5700   -3.0196 C   0  0  0  0  0  0  0  0  0  0  0  0
   -6.4265    8.6304   -1.7481 C   0  0  0  0  0  0  0  0  0  0  0  0
   -2.1540   11.6137   -0.7676 C   0  0  0  0  0  0  0  0  0  0  0  0
   -1.2072   12.5702   -0.5621 C   0  0  0  0  0  0  0  0  0  0  0  0
   -1.5230   13.6966    0.3594 C   0  0  0  0  0  0  0  0  0  0  0  0
   -2.6118   13.9909    0.7995 O   0  0  0  0  0  0  0  0  0  0  0  0
   -0.2247   14.3336    0.6560 C   0  0  0  0  0  0  0  0  0  0  0  0
    0.0613   15.3328    1.5399 C   0  0  0  0  0  0  0  0  0  0  0  0
    1.3998   15.7631    1.6851 C   0  0  0  0  0  0  0  0  0  0  0  0
    1.7506   16.7884    2.5866 C   0  0  0  0  0  0  0  0  0  0  0  0
    3.0500   17.1909    2.7256 C   0  0  0  0  0  0  0  0  0  0  0  0
    4.0385   16.5666    1.9534 C   0  0  0  0  0  0  0  0  0  0  0  0
    5.3127   16.9739    2.1048 F   0  0  0  0  0  0  0  0  0  0  0  0
    3.7527   15.5691    1.0632 C   0  0  0  0  0  0  0  0  0  0  0  0
    2.4195   15.1433    0.9061 C   0  0  0  0  0  0  0  0  0  0  0  0
    2.0909   14.1184   -0.0121 C   0  0  0  0  0  0  0  0  0  0  0  0
    0.7875   13.7211   -0.1377 C   0  0  0  0  0  0  0  0  0  0  0  0
    0.1592   12.7211   -0.9960 C   0  0  0  0  0  0  0  0  0  0  0  0
    0.7176   12.1757   -2.1242 C   0  0  0  0  0  0  0  0  0  0  0  0
   -0.0054   11.4156   -3.0613 C   0  0  0  0  0  0  0  0  0  0  0  0
   -0.5593   10.8122   -3.8665 N   0  0  0  0  0  0  0  0  0  0  0  0
    2.0629   12.3514   -2.4998 C   0  0  0  0  0  0  0  0  0  0  0  0
    3.1618   12.4280   -2.8255 N   0  0  0  0  0  0  0  0  0  0  0  0
    4.2829  -10.0883    6.6734 H   0  0  0  0  0  0  0  0  0  0  0  0
    0.1503  -14.6210    7.8255 H   0  0  0  0  0  0  0  0  0  0  0  0
   -0.9009  -15.9689    9.6149 H   0  0  0  0  0  0  0  0  0  0  0  0
   -0.9671  -16.7191   11.9802 H   0  0  0  0  0  0  0  0  0  0  0  0
    2.4777  -14.3602   12.8616 H   0  0  0  0  0  0  0  0  0  0  0  0
    3.5388  -13.0234   11.1158 H   0  0  0  0  0  0  0  0  0  0  0  0
    0.1629  -11.8870    2.0071 H   0  0  0  0  0  0  0  0  0  0  0  0
    0.2550  -11.2821    0.3381 H   0  0  0  0  0  0  0  0  0  0  0  0
    2.4951  -12.3922    0.0871 H   0  0  0  0  0  0  0  0  0  0  0  0
    2.3690  -13.0016    1.7397 H   0  0  0  0  0  0  0  0  0  0  0  0
    1.2368  -13.5596    0.5062 H   0  0  0  0  0  0  0  0  0  0  0  0
    2.0230  -12.0600    4.1354 H   0  0  0  0  0  0  0  0  0  0  0  0
    0.5870   -9.1047   -0.8977 H   0  0  0  0  0  0  0  0  0  0  0  0
   -1.2437   -7.4369   -4.0839 H   0  0  0  0  0  0  0  0  0  0  0  0
   -1.2450   -9.5348   -5.3722 H   0  0  0  0  0  0  0  0  0  0  0  0
    0.7104  -11.0285   -5.3112 H   0  0  0  0  0  0  0  0  0  0  0  0
    3.9505  -10.0962   -3.9815 H   0  0  0  0  0  0  0  0  0  0  0  0
    3.0190  -11.3823   -4.7616 H   0  0  0  0  0  0  0  0  0  0  0  0
    3.0346  -10.7717   -1.7660 H   0  0  0  0  0  0  0  0  0  0  0  0
    2.1075  -12.0623   -2.5404 H   0  0  0  0  0  0  0  0  0  0  0  0
    3.8742  -12.1206   -2.5429 H   0  0  0  0  0  0  0  0  0  0  0  0
    2.7078   -8.2986   -2.7133 H   0  0  0  0  0  0  0  0  0  0  0  0
   -4.8314    5.3573   -5.5293 H   0  0  0  0  0  0  0  0  0  0  0  0
   -5.9507    6.8330   -7.1505 H   0  0  0  0  0  0  0  0  0  0  0  0
   -5.0666    9.0879   -7.5906 H   0  0  0  0  0  0  0  0  0  0  0  0
   -3.6388   10.9437   -6.7608 H   0  0  0  0  0  0  0  0  0  0  0  0
   -2.2790   10.5966   -5.6756 H   0  0  0  0  0  0  0  0  0  0  0  0
   -2.4190    9.8094   -8.6264 H   0  0  0  0  0  0  0  0  0  0  0  0
   -1.0722    9.4775   -7.5354 H   0  0  0  0  0  0  0  0  0  0  0  0
   -1.4716   11.1443   -7.9579 H   0  0  0  0  0  0  0  0  0  0  0  0
   -1.8735    8.3744   -4.8628 H   0  0  0  0  0  0  0  0  0  0  0  0
    0.7758   -0.4872   -0.8774 H   0  0  0  0  0  0  0  0  0  0  0  0
    0.4928   -2.1795   -0.5147 H   0  0  0  0  0  0  0  0  0  0  0  0
   -1.7745   -0.1637   -0.9291 H   0  0  0  0  0  0  0  0  0  0  0  0
   -1.9420   -1.8595   -0.4850 H   0  0  0  0  0  0  0  0  0  0  0  0
   -1.1814   -0.7306    0.6390 H   0  0  0  0  0  0  0  0  0  0  0  0
    0.0483    1.2847   -0.9659 H   0  0  0  0  0  0  0  0  0  0  0  0
    0.1615    2.8899   -1.6635 H   0  0  0  0  0  0  0  0  0  0  0  0
    1.8548    2.1706   -3.2842 H   0  0  0  0  0  0  0  0  0  0  0  0
    1.7437    0.4997   -2.7409 H   0  0  0  0  0  0  0  0  0  0  0  0
    2.3873    1.7407   -1.6565 H   0  0  0  0  0  0  0  0  0  0  0  0
   -0.0801    7.5618   -1.6932 H   0  0  0  0  0  0  0  0  0  0  0  0
    1.0008    8.3009    0.2433 H   0  0  0  0  0  0  0  0  0  0  0  0
    1.7417    8.8441   -1.2888 H   0  0  0  0  0  0  0  0  0  0  0  0
    1.8476   10.4153    1.3339 H   0  0  0  0  0  0  0  0  0  0  0  0
    3.1555    9.3908    0.7200 H   0  0  0  0  0  0  0  0  0  0  0  0
    2.6706   10.8374   -0.1709 H   0  0  0  0  0  0  0  0  0  0  0  0
   -4.1266   10.3392   -1.8102 H   0  0  0  0  0  0  0  0  0  0  0  0
   -5.3712    9.5737   -3.4045 H   0  0  0  0  0  0  0  0  0  0  0  0
   -6.1236    8.0161   -3.7942 H   0  0  0  0  0  0  0  0  0  0  0  0
   -7.3608    9.1449   -1.9540 H   0  0  0  0  0  0  0  0  0  0  0  0
   -6.6469    7.6222   -1.4068 H   0  0  0  0  0  0  0  0  0  0  0  0
   -5.9034    9.1539   -0.9519 H   0  0  0  0  0  0  0  0  0  0  0  0
   -3.1436   11.9079   -0.4258 H   0  0  0  0  0  0  0  0  0  0  0  0
   -0.7231   15.7895    2.1249 H   0  0  0  0  0  0  0  0  0  0  0  0
    0.9712   17.2539    3.1710 H   0  0  0  0  0  0  0  0  0  0  0  0
    3.3349   17.9731    3.4112 H   0  0  0  0  0  0  0  0  0  0  0  0
    4.5396   15.1135    0.4826 H   0  0  0  0  0  0  0  0  0  0  0  0
    2.8842   13.6684   -0.5880 H   0  0  0  0  0  0  0  0  0  0  0  0
  1  2  2  0  0  0  0
  2  3  1  0  0  0  0
  3  4  2  0  0  0  0
  3  5  1  0  0  0  0
  5  6  2  0  0  0  0
  6  7  1  0  0  0  0
  7  8  2  0  0  0  0
  8  9  1  0  0  0  0
  9 10  2  0  0  0  0
 10 11  1  0  0  0  0
 10 12  1  0  0  0  0
 12 13  2  0  0  0  0
 13 14  1  0  0  0  0
 14 15  2  0  0  0  0
 15 16  1  0  0  0  0
 16 17  2  0  0  0  0
 17 18  1  0  0  0  0
 18 19  3  0  0  0  0
 17 20  1  0  0  0  0
 20 21  3  0  0  0  0
  1 22  1  0  0  0  0
 22 23  1  0  0  0  0
 23 24  1  0  0  0  0
 24 25  1  0  0  0  0
 25 26  2  0  0  0  0
 26 27  1  0  0  0  0
 27 28  1  0  0  0  0
 28 29  1  0  0  0  0
 27 30  1  0  0  0  0
 30 31  1  0  0  0  0
 26 32  1  0  0  0  0
 32 33  2  0  0  0  0
 33 34  1  0  0  0  0
 33 35  1  0  0  0  0
 35 36  2  0  0  0  0
 36 37  1  0  0  0  0
 37 38  2  0  0  0  0
 38 39  1  0  0  0  0
 39 40  2  0  0  0  0
 40 41  1  0  0  0  0
 41 42  1  0  0  0  0
 42 43  1  0  0  0  0
 41 44  2  0  0  0  0
 36 45  1  0  0  0  0
 45 46  1  0  0  0  0
 46 47  1  0  0  0  0
 47 48  1  0  0  0  0
 48 49  1  0  0  0  0
 49 50  1  0  0  0  0
 50 51  2  0  0  0  0
 51 52  1  0  0  0  0
 52 53  1  0  0  0  0
 50 54  1  0  0  0  0
 54 55  1  0  0  0  0
 55 56  1  0  0  0  0
 56 57  1  0  0  0  0
 57 58  1  0  0  0  0
 58 59  1  0  0  0  0
 59 60  2  0  0  0  0
 60 61  1  0  0  0  0
 61 62  2  0  0  0  0
 62 63  1  0  0  0  0
 63 64  1  0  0  0  0
 64 65  1  0  0  0  0
 63 66  2  0  0  0  0
 58 67  2  0  0  0  0
 67 68  1  0  0  0  0
 68 69  1  0  0  0  0
 69 70  1  0  0  0  0
 70 71  1  0  0  0  0
 71 72  1  0  0  0  0
 72 73  1  0  0  0  0
 73 74  1  0  0  0  0
 74 75  1  0  0  0  0
 75 76  1  0  0  0  0
 76 77  1  0  0  0  0
 74 78  1  0  0  0  0
 78 79  1  0  0  0  0
 71 80  1  0  0  0  0
 80 81  1  0  0  0  0
 67 82  1  0  0  0  0
 82 83  2  0  0  0  0
 83 84  1  0  0  0  0
 84 85  1  0  0  0  0
 85 86  1  0  0  0  0
 86 87  1  0  0  0  0
 84 88  2  0  0  0  0
 88 89  1  0  0  0  0
 89 90  2  0  0  0  0
 90 91  1  0  0  0  0
 91 92  1  0  0  0  0
 92 93  1  0  0  0  0
 88 94  1  0  0  0  0
 94 95  2  0  0  0  0
 95 96  1  0  0  0  0
 96 97  2  0  0  0  0
 96 98  1  0  0  0  0
 98 99  2  0  0  0  0
 99100  1  0  0  0  0
100101  2  0  0  0  0
101102  1  0  0  0  0
102103  2  0  0  0  0
103104  1  0  0  0  0
103105  1  0  0  0  0
105106  2  0  0  0  0
106107  1  0  0  0  0
107108  2  0  0  0  0
108109  1  0  0  0  0
109110  2  0  0  0  0
110111  1  0  0  0  0
111112  3  0  0  0  0
110113  1  0  0  0  0
113114  3  0  0  0  0
 16  2  1  0  0  0  0
 31 22  2  0  0  0  0
 77 35  1  0  0  0  0
 90 82  1  0  0  0  0
109 95  1  0  0  0  0
 15  5  1  0  0  0  0
 30 24  2  0  0  0  0
 44 37  1  0  0  0  0
 76 45  2  0  0  0  0
108 98  1  0  0  0  0
 13  7  1  0  0  0  0
 34 25  1  0  0  0  0
 75 47  2  0  0  0  0
106100  1  0  0  0  0
 73 48  2  0  0  0  0
 53 49  2  0  0  0  0
 72 54  2  0  0  0  0
 70 55  2  0  0  0  0
 69 57  2  0  0  0  0
 66 59  1  0  0  0  0
  1115  1  0  0  0  0
  6116  1  0  0  0  0
  8117  1  0  0  0  0
  9118  1  0  0  0  0
 12119  1  0  0  0  0
 14120  1  0  0  0  0
 28121  1  0  0  0  0
 28122  1  0  0  0  0
 29123  1  0  0  0  0
 29124  1  0  0  0  0
 29125  1  0  0  0  0
 31126  1  0  0  0  0
 32127  1  0  0  0  0
 38128  1  0  0  0  0
 39129  1  0  0  0  0
 40130  1  0  0  0  0
 42131  1  0  0  0  0
 42132  1  0  0  0  0
 43133  1  0  0  0  0
 43134  1  0  0  0  0
 43135  1  0  0  0  0
 44136  1  0  0  0  0
 60137  1  0  0  0  0
 61138  1  0  0  0  0
 62139  1  0  0  0  0
 64140  1  0  0  0  0
 64141  1  0  0  0  0
 65142  1  0  0  0  0
 65143  1  0  0  0  0
 65144  1  0  0  0  0
 66145  1  0  0  0  0
 78146  1  0  0  0  0
 78147  1  0  0  0  0
 79148  1  0  0  0  0
 79149  1  0  0  0  0
 79150  1  0  0  0  0
 80151  1  0  0  0  0
 80152  1  0  0  0  0
 81153  1  0  0  0  0
 81154  1  0  0  0  0
 81155  1  0  0  0  0
 83156  1  0  0  0  0
 86157  1  0  0  0  0
 86158  1  0  0  0  0
 87159  1  0  0  0  0
 87160  1  0  0  0  0
 87161  1  0  0  0  0
 89162  1  0  0  0  0
 92163  1  0  0  0  0
 92164  1  0  0  0  0
 93165  1  0  0  0  0
 93166  1  0  0  0  0
 93167  1  0  0  0  0
 94168  1  0  0  0  0
 99169  1  0  0  0  0
101170  1  0  0  0  0
102171  1  0  0  0  0
105172  1  0  0  0  0
107173  1  0  0  0  0
M  END
