
  xtb     02112204443D
 energy: -350.681845229738 gnorm: 0.000339651623 xtb: 6.4.1 (unknown)
191214  0     0  0            999 V2000
   12.6481   -8.0073    5.4777 C   0  0  0  0  0  0  0  0  0  0  0  0
   12.3245   -8.6549    6.6417 C   0  0  0  0  0  0  0  0  0  0  0  0
   13.3949   -9.3883    7.3636 C   0  0  0  0  0  0  0  0  0  0  0  0
   14.5114   -9.6267    6.9580 O   0  0  0  0  0  0  0  0  0  0  0  0
   12.8253   -9.7178    8.6854 C   0  0  0  0  0  0  0  0  0  0  0  0
   13.4228  -10.3162    9.7559 C   0  0  0  0  0  0  0  0  0  0  0  0
   12.6770  -10.5148   10.9402 C   0  0  0  0  0  0  0  0  0  0  0  0
   13.2419  -11.1359   12.0724 C   0  0  0  0  0  0  0  0  0  0  0  0
   12.5117  -11.3192   13.2139 C   0  0  0  0  0  0  0  0  0  0  0  0
   11.1824  -10.8777   13.2459 C   0  0  0  0  0  0  0  0  0  0  0  0
   10.4789  -11.0650   14.3788 F   0  0  0  0  0  0  0  0  0  0  0  0
   10.5858  -10.2701   12.1765 C   0  0  0  0  0  0  0  0  0  0  0  0
   11.3224  -10.0764   10.9920 C   0  0  0  0  0  0  0  0  0  0  0  0
   10.7274   -9.4652    9.8631 C   0  0  0  0  0  0  0  0  0  0  0  0
   11.4653   -9.2978    8.7234 C   0  0  0  0  0  0  0  0  0  0  0  0
   11.1102   -8.7619    7.4089 C   0  0  0  0  0  0  0  0  0  0  0  0
    9.8199   -8.6447    6.9480 C   0  0  0  0  0  0  0  0  0  0  0  0
    9.4670   -8.4233    5.6039 C   0  0  0  0  0  0  0  0  0  0  0  0
    9.1026   -8.2829    4.5236 N   0  0  0  0  0  0  0  0  0  0  0  0
    8.6763   -8.8098    7.7525 C   0  0  0  0  0  0  0  0  0  0  0  0
    7.7038   -8.8911    8.3590 N   0  0  0  0  0  0  0  0  0  0  0  0
   11.9708   -6.9850    4.7966 C   0  0  0  0  0  0  0  0  0  0  0  0
   12.4005   -6.6879    3.1072 S   0  0  0  0  0  0  0  0  0  0  0  0
   11.2035   -5.4641    3.0021 C   0  0  0  0  0  0  0  0  0  0  0  0
   10.5915   -4.6112    2.0906 C   0  0  0  0  0  0  0  0  0  0  0  0
    9.5944   -3.9035    2.8014 C   0  0  0  0  0  0  0  0  0  0  0  0
    9.5831   -4.3000    4.1097 N   0  0  0  0  0  0  0  0  0  0  0  0
    8.7223   -3.8026    5.1510 C   0  0  0  0  0  0  0  0  0  0  0  0
    9.3692   -2.6429    5.9058 C   0  0  0  0  0  0  0  0  0  0  0  0
   10.5534   -5.2576    4.2497 C   0  0  0  0  0  0  0  0  0  0  0  0
   10.9858   -6.1136    5.2497 C   0  0  0  0  0  0  0  0  0  0  0  0
    8.8414   -3.0505    1.9947 C   0  0  0  0  0  0  0  0  0  0  0  0
    9.2437   -3.1039    0.6734 C   0  0  0  0  0  0  0  0  0  0  0  0
   10.6019   -4.1924    0.4142 S   0  0  0  0  0  0  0  0  0  0  0  0
    8.5647   -2.4926   -0.4150 C   0  0  0  0  0  0  0  0  0  0  0  0
    8.8449   -2.5330   -1.7701 C   0  0  0  0  0  0  0  0  0  0  0  0
   10.0990   -2.9997   -2.3660 C   0  0  0  0  0  0  0  0  0  0  0  0
   10.0830   -3.9409   -3.3895 C   0  0  0  0  0  0  0  0  0  0  0  0
   11.2722   -4.3492   -3.9635 C   0  0  0  0  0  0  0  0  0  0  0  0
   12.4746   -3.8185   -3.5320 C   0  0  0  0  0  0  0  0  0  0  0  0
   12.5069   -2.8664   -2.5202 C   0  0  0  0  0  0  0  0  0  0  0  0
   13.8052   -2.2480   -2.0888 C   0  0  0  0  0  0  0  0  0  0  0  0
   14.1244   -1.0220   -2.9467 C   0  0  0  0  0  0  0  0  0  0  0  0
   11.3119   -2.4606   -1.9478 C   0  0  0  0  0  0  0  0  0  0  0  0
    7.7716   -2.0329   -2.5321 C   0  0  0  0  0  0  0  0  0  0  0  0
    7.4953   -1.9230   -4.2537 S   0  0  0  0  0  0  0  0  0  0  0  0
    5.9176   -1.2827   -3.9379 C   0  0  0  0  0  0  0  0  0  0  0  0
    4.7693   -0.8772   -4.6439 C   0  0  0  0  0  0  0  0  0  0  0  0
    4.4798   -0.7209   -6.0183 C   0  0  0  0  0  0  0  0  0  0  0  0
    3.1956   -0.2002   -6.4133 C   0  0  0  0  0  0  0  0  0  0  0  0
    3.0945   -0.0553   -7.7250 N   0  0  0  0  0  0  0  0  0  0  0  0
    4.4810   -0.5360   -8.4068 S   0  0  0  0  0  0  0  0  0  0  0  0
    5.2702   -0.9475   -7.0555 N   0  0  0  0  0  0  0  0  0  0  0  0
    2.2078    0.0237   -5.4274 C   0  0  0  0  0  0  0  0  0  0  0  0
    0.8459    0.3724   -5.4913 C   0  0  0  0  0  0  0  0  0  0  0  0
   -0.3429    0.8111   -6.6717 S   0  0  0  0  0  0  0  0  0  0  0  0
   -1.5350    0.9124   -5.3979 C   0  0  0  0  0  0  0  0  0  0  0  0
   -2.9061    1.2267   -5.4067 C   0  0  0  0  0  0  0  0  0  0  0  0
   -3.6211    1.5246   -6.6545 C   0  0  0  0  0  0  0  0  0  0  0  0
   -3.2091    2.5922   -7.4440 C   0  0  0  0  0  0  0  0  0  0  0  0
   -3.8603    2.8582   -8.6342 C   0  0  0  0  0  0  0  0  0  0  0  0
   -4.9160    2.0644   -9.0451 C   0  0  0  0  0  0  0  0  0  0  0  0
   -5.3364    0.9900   -8.2714 C   0  0  0  0  0  0  0  0  0  0  0  0
   -6.4626    0.1063   -8.7256 C   0  0  0  0  0  0  0  0  0  0  0  0
   -5.9216   -1.1218   -9.4595 C   0  0  0  0  0  0  0  0  0  0  0  0
   -4.6729    0.7217   -7.0828 C   0  0  0  0  0  0  0  0  0  0  0  0
   -3.4284    1.2210   -4.1231 C   0  0  0  0  0  0  0  0  0  0  0  0
   -2.2295    0.7789   -2.9131 S   0  0  0  0  0  0  0  0  0  0  0  0
   -1.0194    0.6202   -4.1325 C   0  0  0  0  0  0  0  0  0  0  0  0
    0.3403    0.2988   -4.1883 C   0  0  0  0  0  0  0  0  0  0  0  0
    1.3317   -0.0757   -3.3142 N   0  0  0  0  0  0  0  0  0  0  0  0
    2.4889   -0.2207   -4.0584 C   0  0  0  0  0  0  0  0  0  0  0  0
    3.8073   -0.5262   -3.6625 C   0  0  0  0  0  0  0  0  0  0  0  0
    4.3660   -0.6439   -2.4016 N   0  0  0  0  0  0  0  0  0  0  0  0
    5.6393   -1.1303   -2.5749 C   0  0  0  0  0  0  0  0  0  0  0  0
    6.6972   -1.5669   -1.7721 C   0  0  0  0  0  0  0  0  0  0  0  0
    6.9951   -1.7567   -0.0819 S   0  0  0  0  0  0  0  0  0  0  0  0
    4.0358    0.1637   -1.2437 C   0  0  0  0  0  0  0  0  0  0  0  0
    5.0390    1.3012   -1.0535 C   0  0  0  0  0  0  0  0  0  0  0  0
    0.9953   -0.7879   -2.0970 C   0  0  0  0  0  0  0  0  0  0  0  0
    0.1654   -2.0367   -2.3937 C   0  0  0  0  0  0  0  0  0  0  0  0
   -4.7146    1.6273   -3.6683 C   0  0  0  0  0  0  0  0  0  0  0  0
   -5.8431    1.8941   -4.3929 C   0  0  0  0  0  0  0  0  0  0  0  0
   -6.9217    2.3643   -3.6151 C   0  0  0  0  0  0  0  0  0  0  0  0
   -8.2127    2.7048   -4.0575 C   0  0  0  0  0  0  0  0  0  0  0  0
   -8.5761    2.6258   -5.4631 C   0  0  0  0  0  0  0  0  0  0  0  0
   -9.9790    1.7303   -5.9663 S   0  0  0  0  0  0  0  0  0  0  0  0
   -9.7277    2.1193   -7.6338 C   0  0  0  0  0  0  0  0  0  0  0  0
  -10.6479    1.6066   -8.6860 C   0  0  0  0  0  0  0  0  0  0  0  0
  -10.5638    0.0848   -8.8141 C   0  0  0  0  0  0  0  0  0  0  0  0
   -8.6164    2.8955   -7.7737 C   0  0  0  0  0  0  0  0  0  0  0  0
   -8.0591    3.5115   -9.2734 Cl  0  0  0  0  0  0  0  0  0  0  0  0
   -7.9575    3.1829   -6.5480 C   0  0  0  0  0  0  0  0  0  0  0  0
   -6.5719    4.1953   -6.4674 Cl  0  0  0  0  0  0  0  0  0  0  0  0
   -9.1191    3.1194   -3.0912 C   0  0  0  0  0  0  0  0  0  0  0  0
   -8.7830    3.2218   -1.7146 C   0  0  0  0  0  0  0  0  0  0  0  0
   -7.5005    2.8349   -1.2668 C   0  0  0  0  0  0  0  0  0  0  0  0
   -7.1685    2.8599    0.1452 C   0  0  0  0  0  0  0  0  0  0  0  0
   -5.7329    3.6469    0.7283 S   0  0  0  0  0  0  0  0  0  0  0  0
   -6.0882    3.2474    2.3721 C   0  0  0  0  0  0  0  0  0  0  0  0
   -5.2208    3.7164    3.4873 C   0  0  0  0  0  0  0  0  0  0  0  0
   -5.6404    5.1136    3.9511 C   0  0  0  0  0  0  0  0  0  0  0  0
   -7.2532    2.5427    2.4492 C   0  0  0  0  0  0  0  0  0  0  0  0
   -7.8680    2.3177    1.1898 C   0  0  0  0  0  0  0  0  0  0  0  0
   -9.2935    1.3799    1.0166 Cl  0  0  0  0  0  0  0  0  0  0  0  0
   -7.9246    1.9653    3.9175 Cl  0  0  0  0  0  0  0  0  0  0  0  0
   -6.5959    2.4371   -2.2353 C   0  0  0  0  0  0  0  0  0  0  0  0
   -4.9586    1.9211   -1.9526 S   0  0  0  0  0  0  0  0  0  0  0  0
   -9.8231    3.7775   -0.9488 C   0  0  0  0  0  0  0  0  0  0  0  0
  -10.9492    4.0737   -1.6782 C   0  0  0  0  0  0  0  0  0  0  0  0
  -10.7425    3.6549   -3.3814 S   0  0  0  0  0  0  0  0  0  0  0  0
  -12.2029    4.6085   -1.3099 C   0  0  0  0  0  0  0  0  0  0  0  0
  -12.6422    5.1555   -0.1357 C   0  0  0  0  0  0  0  0  0  0  0  0
  -11.8622    5.4964    1.0798 C   0  0  0  0  0  0  0  0  0  0  0  0
  -10.7145    5.2145    1.3576 O   0  0  0  0  0  0  0  0  0  0  0  0
  -12.7663    6.3014    1.9212 C   0  0  0  0  0  0  0  0  0  0  0  0
  -12.4942    6.9053    3.1148 C   0  0  0  0  0  0  0  0  0  0  0  0
  -13.5055    7.6573    3.7517 C   0  0  0  0  0  0  0  0  0  0  0  0
  -13.2794    8.3062    4.9829 C   0  0  0  0  0  0  0  0  0  0  0  0
  -14.2648    9.0382    5.5843 C   0  0  0  0  0  0  0  0  0  0  0  0
  -15.5148    9.1364    4.9579 C   0  0  0  0  0  0  0  0  0  0  0  0
  -16.4714    9.8624    5.5647 F   0  0  0  0  0  0  0  0  0  0  0  0
  -15.7875    8.5261    3.7654 C   0  0  0  0  0  0  0  0  0  0  0  0
  -14.7839    7.7678    3.1313 C   0  0  0  0  0  0  0  0  0  0  0  0
  -15.0370    7.1250    1.8972 C   0  0  0  0  0  0  0  0  0  0  0  0
  -14.0414    6.3975    1.3004 C   0  0  0  0  0  0  0  0  0  0  0  0
  -14.0033    5.6373    0.0555 C   0  0  0  0  0  0  0  0  0  0  0  0
  -15.0907    5.3799   -0.7377 C   0  0  0  0  0  0  0  0  0  0  0  0
  -16.3879    5.8718   -0.4781 C   0  0  0  0  0  0  0  0  0  0  0  0
  -17.4650    6.2408   -0.3310 N   0  0  0  0  0  0  0  0  0  0  0  0
  -15.1099    4.5689   -1.8931 C   0  0  0  0  0  0  0  0  0  0  0  0
  -15.2320    3.9141   -2.8288 N   0  0  0  0  0  0  0  0  0  0  0  0
   13.6017   -8.3072    5.0526 H   0  0  0  0  0  0  0  0  0  0  0  0
   14.4518  -10.6382    9.7003 H   0  0  0  0  0  0  0  0  0  0  0  0
   14.2680  -11.4680   12.0235 H   0  0  0  0  0  0  0  0  0  0  0  0
   12.9288  -11.7935   14.0881 H   0  0  0  0  0  0  0  0  0  0  0  0
    9.5580   -9.9472   12.2348 H   0  0  0  0  0  0  0  0  0  0  0  0
    9.7012   -9.1411    9.9335 H   0  0  0  0  0  0  0  0  0  0  0  0
    7.7858   -3.4771    4.6917 H   0  0  0  0  0  0  0  0  0  0  0  0
    8.5029   -4.6257    5.8365 H   0  0  0  0  0  0  0  0  0  0  0  0
    9.5821   -1.8219    5.2250 H   0  0  0  0  0  0  0  0  0  0  0  0
    8.7016   -2.2871    6.6853 H   0  0  0  0  0  0  0  0  0  0  0  0
   10.3023   -2.9628    6.3638 H   0  0  0  0  0  0  0  0  0  0  0  0
   10.6441   -6.0984    6.2690 H   0  0  0  0  0  0  0  0  0  0  0  0
    8.0243   -2.4357    2.3271 H   0  0  0  0  0  0  0  0  0  0  0  0
    9.1440   -4.3591   -3.7193 H   0  0  0  0  0  0  0  0  0  0  0  0
   11.2602   -5.0863   -4.7526 H   0  0  0  0  0  0  0  0  0  0  0  0
   13.4000   -4.1446   -3.9846 H   0  0  0  0  0  0  0  0  0  0  0  0
   14.6117   -2.9769   -2.1877 H   0  0  0  0  0  0  0  0  0  0  0  0
   13.7416   -1.9492   -1.0406 H   0  0  0  0  0  0  0  0  0  0  0  0
   13.3348   -0.2795   -2.8545 H   0  0  0  0  0  0  0  0  0  0  0  0
   15.0635   -0.5719   -2.6333 H   0  0  0  0  0  0  0  0  0  0  0  0
   14.2064   -1.3040   -3.9939 H   0  0  0  0  0  0  0  0  0  0  0  0
   11.3174   -1.7092   -1.1704 H   0  0  0  0  0  0  0  0  0  0  0  0
   -2.3906    3.2152   -7.1159 H   0  0  0  0  0  0  0  0  0  0  0  0
   -3.5439    3.6918   -9.2433 H   0  0  0  0  0  0  0  0  0  0  0  0
   -5.4208    2.2801   -9.9750 H   0  0  0  0  0  0  0  0  0  0  0  0
   -7.0495   -0.2172   -7.8619 H   0  0  0  0  0  0  0  0  0  0  0  0
   -7.1180    0.6665   -9.3950 H   0  0  0  0  0  0  0  0  0  0  0  0
   -5.2720   -1.6994   -8.8057 H   0  0  0  0  0  0  0  0  0  0  0  0
   -6.7386   -1.7598   -9.7888 H   0  0  0  0  0  0  0  0  0  0  0  0
   -5.3456   -0.8173  -10.3304 H   0  0  0  0  0  0  0  0  0  0  0  0
   -4.9696   -0.1282   -6.4827 H   0  0  0  0  0  0  0  0  0  0  0  0
    3.0489    0.5999   -1.3904 H   0  0  0  0  0  0  0  0  0  0  0  0
    4.0296   -0.4749   -0.3538 H   0  0  0  0  0  0  0  0  0  0  0  0
    6.0299    0.9162   -0.8308 H   0  0  0  0  0  0  0  0  0  0  0  0
    4.7201    1.9306   -0.2273 H   0  0  0  0  0  0  0  0  0  0  0  0
    5.0936    1.9080   -1.9548 H   0  0  0  0  0  0  0  0  0  0  0  0
    1.9121   -1.0989   -1.6015 H   0  0  0  0  0  0  0  0  0  0  0  0
    0.4325   -0.1148   -1.4421 H   0  0  0  0  0  0  0  0  0  0  0  0
    0.7011   -2.6879   -3.0809 H   0  0  0  0  0  0  0  0  0  0  0  0
   -0.7925   -1.7760   -2.8341 H   0  0  0  0  0  0  0  0  0  0  0  0
   -0.0167   -2.5777   -1.4694 H   0  0  0  0  0  0  0  0  0  0  0  0
   -5.9040    1.7581   -5.4539 H   0  0  0  0  0  0  0  0  0  0  0  0
  -10.3843    2.0762   -9.6350 H   0  0  0  0  0  0  0  0  0  0  0  0
  -11.6733    1.8872   -8.4341 H   0  0  0  0  0  0  0  0  0  0  0  0
   -9.5562   -0.2192   -9.0856 H   0  0  0  0  0  0  0  0  0  0  0  0
  -10.8274   -0.3867   -7.8704 H   0  0  0  0  0  0  0  0  0  0  0  0
  -11.2505   -0.2624   -9.5812 H   0  0  0  0  0  0  0  0  0  0  0  0
   -4.1821    3.7394    3.1537 H   0  0  0  0  0  0  0  0  0  0  0  0
   -5.3082    3.0143    4.3187 H   0  0  0  0  0  0  0  0  0  0  0  0
   -5.0070    5.4412    4.7710 H   0  0  0  0  0  0  0  0  0  0  0  0
   -6.6730    5.1021    4.2898 H   0  0  0  0  0  0  0  0  0  0  0  0
   -5.5513    5.8246    3.1334 H   0  0  0  0  0  0  0  0  0  0  0  0
   -9.7480    3.9833    0.1021 H   0  0  0  0  0  0  0  0  0  0  0  0
  -12.9190    4.5919   -2.1236 H   0  0  0  0  0  0  0  0  0  0  0  0
  -11.5172    6.8118    3.5652 H   0  0  0  0  0  0  0  0  0  0  0  0
  -12.3081    8.2159    5.4457 H   0  0  0  0  0  0  0  0  0  0  0  0
  -14.1082    9.5419    6.5251 H   0  0  0  0  0  0  0  0  0  0  0  0
  -16.7620    8.6220    3.3128 H   0  0  0  0  0  0  0  0  0  0  0  0
  -16.0133    7.2329    1.4534 H   0  0  0  0  0  0  0  0  0  0  0  0
  1  2  2  0  0  0  0
  2  3  1  0  0  0  0
  3  4  2  0  0  0  0
  3  5  1  0  0  0  0
  5  6  2  0  0  0  0
  6  7  1  0  0  0  0
  7  8  2  0  0  0  0
  8  9  1  0  0  0  0
  9 10  2  0  0  0  0
 10 11  1  0  0  0  0
 10 12  1  0  0  0  0
 12 13  2  0  0  0  0
 13 14  1  0  0  0  0
 14 15  2  0  0  0  0
 15 16  1  0  0  0  0
 16 17  2  0  0  0  0
 17 18  1  0  0  0  0
 18 19  3  0  0  0  0
 17 20  1  0  0  0  0
 20 21  3  0  0  0  0
  1 22  1  0  0  0  0
 22 23  1  0  0  0  0
 23 24  1  0  0  0  0
 24 25  1  0  0  0  0
 25 26  2  0  0  0  0
 26 27  1  0  0  0  0
 27 28  1  0  0  0  0
 28 29  1  0  0  0  0
 27 30  1  0  0  0  0
 30 31  1  0  0  0  0
 26 32  1  0  0  0  0
 32 33  2  0  0  0  0
 33 34  1  0  0  0  0
 33 35  1  0  0  0  0
 35 36  2  0  0  0  0
 36 37  1  0  0  0  0
 37 38  2  0  0  0  0
 38 39  1  0  0  0  0
 39 40  2  0  0  0  0
 40 41  1  0  0  0  0
 41 42  1  0  0  0  0
 42 43  1  0  0  0  0
 41 44  2  0  0  0  0
 36 45  1  0  0  0  0
 45 46  1  0  0  0  0
 46 47  1  0  0  0  0
 47 48  1  0  0  0  0
 48 49  1  0  0  0  0
 49 50  1  0  0  0  0
 50 51  2  0  0  0  0
 51 52  1  0  0  0  0
 52 53  1  0  0  0  0
 50 54  1  0  0  0  0
 54 55  1  0  0  0  0
 55 56  1  0  0  0  0
 56 57  1  0  0  0  0
 57 58  1  0  0  0  0
 58 59  1  0  0  0  0
 59 60  2  0  0  0  0
 60 61  1  0  0  0  0
 61 62  2  0  0  0  0
 62 63  1  0  0  0  0
 63 64  1  0  0  0  0
 64 65  1  0  0  0  0
 63 66  2  0  0  0  0
 58 67  2  0  0  0  0
 67 68  1  0  0  0  0
 68 69  1  0  0  0  0
 69 70  1  0  0  0  0
 70 71  1  0  0  0  0
 71 72  1  0  0  0  0
 72 73  1  0  0  0  0
 73 74  1  0  0  0  0
 74 75  1  0  0  0  0
 75 76  1  0  0  0  0
 76 77  1  0  0  0  0
 74 78  1  0  0  0  0
 78 79  1  0  0  0  0
 71 80  1  0  0  0  0
 80 81  1  0  0  0  0
 67 82  1  0  0  0  0
 82 83  2  0  0  0  0
 83 84  1  0  0  0  0
 84 85  2  0  0  0  0
 85 86  1  0  0  0  0
 86 87  1  0  0  0  0
 87 88  1  0  0  0  0
 88 89  1  0  0  0  0
 89 90  1  0  0  0  0
 88 91  2  0  0  0  0
 91 92  1  0  0  0  0
 91 93  1  0  0  0  0
 93 94  1  0  0  0  0
 85 95  1  0  0  0  0
 95 96  2  0  0  0  0
 96 97  1  0  0  0  0
 97 98  1  0  0  0  0
 98 99  1  0  0  0  0
 99100  1  0  0  0  0
100101  1  0  0  0  0
101102  1  0  0  0  0
100103  2  0  0  0  0
103104  1  0  0  0  0
104105  1  0  0  0  0
103106  1  0  0  0  0
 97107  2  0  0  0  0
107108  1  0  0  0  0
 96109  1  0  0  0  0
109110  2  0  0  0  0
110111  1  0  0  0  0
110112  1  0  0  0  0
112113  2  0  0  0  0
113114  1  0  0  0  0
114115  2  0  0  0  0
114116  1  0  0  0  0
116117  2  0  0  0  0
117118  1  0  0  0  0
118119  2  0  0  0  0
119120  1  0  0  0  0
120121  2  0  0  0  0
121122  1  0  0  0  0
121123  1  0  0  0  0
123124  2  0  0  0  0
124125  1  0  0  0  0
125126  2  0  0  0  0
126127  1  0  0  0  0
127128  2  0  0  0  0
128129  1  0  0  0  0
129130  3  0  0  0  0
128131  1  0  0  0  0
131132  3  0  0  0  0
 16  2  1  0  0  0  0
 31 22  2  0  0  0  0
 77 35  1  0  0  0  0
108 82  1  0  0  0  0
127113  1  0  0  0  0
 15  5  1  0  0  0  0
 30 24  2  0  0  0  0
 44 37  1  0  0  0  0
 76 45  2  0  0  0  0
107 84  1  0  0  0  0
126116  1  0  0  0  0
 13  7  1  0  0  0  0
 34 25  1  0  0  0  0
 75 47  2  0  0  0  0
 93 86  2  0  0  0  0
111 95  1  0  0  0  0
124118  1  0  0  0  0
 73 48  2  0  0  0  0
104 98  2  0  0  0  0
 53 49  2  0  0  0  0
 72 54  2  0  0  0  0
 70 55  2  0  0  0  0
 69 57  2  0  0  0  0
 66 59  1  0  0  0  0
  1133  1  0  0  0  0
  6134  1  0  0  0  0
  8135  1  0  0  0  0
  9136  1  0  0  0  0
 12137  1  0  0  0  0
 14138  1  0  0  0  0
 28139  1  0  0  0  0
 28140  1  0  0  0  0
 29141  1  0  0  0  0
 29142  1  0  0  0  0
 29143  1  0  0  0  0
 31144  1  0  0  0  0
 32145  1  0  0  0  0
 38146  1  0  0  0  0
 39147  1  0  0  0  0
 40148  1  0  0  0  0
 42149  1  0  0  0  0
 42150  1  0  0  0  0
 43151  1  0  0  0  0
 43152  1  0  0  0  0
 43153  1  0  0  0  0
 44154  1  0  0  0  0
 60155  1  0  0  0  0
 61156  1  0  0  0  0
 62157  1  0  0  0  0
 64158  1  0  0  0  0
 64159  1  0  0  0  0
 65160  1  0  0  0  0
 65161  1  0  0  0  0
 65162  1  0  0  0  0
 66163  1  0  0  0  0
 78164  1  0  0  0  0
 78165  1  0  0  0  0
 79166  1  0  0  0  0
 79167  1  0  0  0  0
 79168  1  0  0  0  0
 80169  1  0  0  0  0
 80170  1  0  0  0  0
 81171  1  0  0  0  0
 81172  1  0  0  0  0
 81173  1  0  0  0  0
 83174  1  0  0  0  0
 89175  1  0  0  0  0
 89176  1  0  0  0  0
 90177  1  0  0  0  0
 90178  1  0  0  0  0
 90179  1  0  0  0  0
101180  1  0  0  0  0
101181  1  0  0  0  0
102182  1  0  0  0  0
102183  1  0  0  0  0
102184  1  0  0  0  0
109185  1  0  0  0  0
112186  1  0  0  0  0
117187  1  0  0  0  0
119188  1  0  0  0  0
120189  1  0  0  0  0
123190  1  0  0  0  0
125191  1  0  0  0  0
M  END
