164

C          1.06570        9.19080       12.87200
C          1.98000       10.14460       12.48940
C          2.29100       10.52410       11.10840
O          1.74910       10.13470       10.08840
C          3.40430       11.48560       11.18740
C          4.07920       12.09660       10.17170
C          5.14250       12.97360       10.48280
C          5.88220       13.62370        9.47450
C          6.91400       14.46440        9.78860
C          7.22880       14.67500       11.13750
F          8.24840       15.50540       11.42780
C          6.54270       14.07080       12.15410
C          5.47840       13.20060       11.84860
C          4.75470       12.55550       12.87980
C          3.73120       11.70650       12.55480
C          2.83560       10.89760       13.38110
C          2.83480       10.88180       14.75450
C          1.97870       10.11750       15.57220
N          1.32200        9.53190       16.31200
C          3.70560       11.65030       15.55380
N          4.38210       12.24610       16.26540
C          0.24790        8.35210       12.10820
S          0.10890        8.34600       10.34730
C         -0.96820        7.00990       10.44160
C         -1.66970        6.12260        9.63060
C         -2.30630        5.18910       10.48050
N         -2.01830        5.48170       11.78650
C         -2.54700        4.82050       12.95120
C         -3.85790        5.45510       13.41130
C         -1.20910        6.59190       11.78080
C         -0.53610        7.35780       12.71030
C         -2.99520        4.18740        9.79200
C         -2.89110        4.35170        8.42470
S         -1.95920        5.76830        7.96910
C         -3.35130        3.47070        7.40590
C         -3.74930        2.15780        7.53960
C         -3.97320        1.55710        6.29710
S         -4.34230       -0.06780        5.79340
C         -4.16110        0.40060        4.10940
C         -4.21360       -0.45550        3.02520
C         -3.97180        0.08940        1.77330
C         -3.84690       -0.52270        0.48520
C         -3.59720        0.42090       -0.46500
C         -3.54460        1.80790        0.12310
C         -4.73640        2.68420       -0.31460
C         -4.80600        2.98870       -1.80440
C         -2.16190        2.41240       -0.19580
C         -1.87010        3.79550        0.37230
C         -3.73840        1.48250        1.59660
C         -3.72910        2.32760        2.67320
C         -3.89350        1.77940        3.95170
C         -3.77750        2.40540        5.21430
S         -3.30650        3.98070        5.72970
C         -3.28050       -0.22240       -1.71040
C         -3.35410       -1.62830       -1.48670
C         -3.83490       -1.91580       -0.07690
C         -5.29100       -2.43780       -0.06810
C         -5.50420       -3.78620       -0.74230
C         -2.88610       -2.85520        0.68070
C         -1.49390       -2.25860        0.85290
C         -2.93510       -2.51700       -2.43940
C         -2.44880       -2.01660       -3.65450
C         -2.44430       -0.62200       -3.89010
C         -2.85260        0.28380       -2.92880
S         -1.77600       -0.19830       -5.45710
C         -1.43170       -1.87720       -5.76830
C         -0.76450       -2.54380       -6.79180
C         -0.65990       -3.90090       -6.54730
S         -1.41990       -4.35320       -5.03070
C         -1.85900       -2.70830       -4.73780
C          0.04980       -4.88010       -7.31370
C          0.65170       -4.61670       -8.54770
O          0.43900       -3.41180       -9.16620
C         -0.23580       -3.50590      -10.42770
C         -0.24240       -2.12620      -11.06150
C          1.50210       -5.56400       -9.17290
O          2.27500       -5.22770      -10.23540
C          3.09530       -4.06640      -10.12780
C          4.17010       -4.24470       -9.06230
C          1.59640       -6.87570       -8.69030
C          0.93370       -7.19320       -7.47330
C          0.19310       -6.20030       -6.78420
N         -0.41910       -6.50160       -5.63440
C         -0.31580       -7.71800       -5.16210
C          0.42260       -8.69590       -5.84520
N          1.02620       -8.43900       -6.97810
C          2.43560       -7.85550       -9.30010
C          2.64510       -7.99250      -10.63850
C          1.71850       -7.50790      -11.69450
O          0.72680       -6.82330      -11.56690
C          2.18470       -8.14810      -12.94270
C          1.65450       -8.05480      -14.19680
C          2.25830       -8.76770      -15.25720
C          1.75610       -8.69920      -16.57270
C          2.34630       -9.39660      -17.58980
C          3.46800      -10.18800      -17.30780
F          4.03590      -10.86630      -18.32230
C          3.99530      -10.29030      -16.05080
C          3.40030       -9.57790      -14.99140
C          3.92560       -9.65940      -13.68100
C          3.32950       -8.95030      -12.67280
C          3.65530       -8.82440      -11.25800
C          4.78800       -9.29270      -10.64430
C          5.14510       -8.99680       -9.31190
N          5.52320       -8.75650       -8.25450
C          5.76980      -10.07290      -11.28740
N          6.59440      -10.71690      -11.76030
H          0.97260        9.01390       13.93680
H          3.80900       11.90900        9.14320
H          5.62040       13.44470        8.44240
H          7.49100       14.96810        9.02940
H          6.81350       14.25650       13.18180
H          5.03720       12.74880       13.90200
H         -1.80020        4.88270       13.74720
H         -2.70440        3.76730       12.70400
H         -4.60410        5.39470       12.62250
H         -3.70220        6.50180       13.66130
H         -4.23400        4.93820       14.28970
H         -0.56800        7.22740       13.77730
H         -3.54060        3.38140       10.24640
H         -3.82910        1.64940        8.48190
H         -4.41240       -1.50640        3.16080
H         -4.70140        3.61860        0.24770
H         -5.65050        2.16200       -0.01870
H         -3.92360        3.52740       -2.13980
H         -4.90430        2.07270       -2.38060
H         -5.67580        3.61070       -2.00630
H         -1.40680        1.71280        0.17290
H         -2.05990        2.45120       -1.28050
H         -0.92430        4.15280       -0.03030
H         -1.77950        3.76710        1.45390
H         -2.64190        4.51010        0.09940
H         -3.58270        3.39190        2.58300
H         -5.61720       -2.49910        0.97270
H         -5.91600       -1.69180       -0.56590
H         -4.91970       -4.56620       -0.26190
H         -6.55450       -4.06140       -0.67320
H         -5.23480       -3.73970       -1.79390
H         -3.31100       -3.07370        1.66210
H         -2.80390       -3.79460        0.13310
H         -1.06220       -2.01270       -0.11500
H         -0.84010       -2.97090        1.35100
H         -1.53330       -1.35190        1.45230
H         -2.92190       -3.58330       -2.27590
H         -2.79620        1.34170       -3.12570
H         -0.34490       -2.06410       -7.65410
H          0.25810       -4.23510      -11.07770
H         -1.26310       -3.84830      -10.24450
H         -0.78640       -2.16300      -12.00060
H         -0.72570       -1.41160      -10.40000
H          0.77310       -1.78980      -11.25470
H          3.54540       -3.97330      -11.11930
H          2.50210       -3.17290       -9.91540
H          4.84780       -3.39600       -9.08280
H          4.73700       -5.15560       -9.24230
H          3.71780       -4.30830       -8.07430
H         -0.82540       -7.92350       -4.23180
H          0.52060       -9.70260       -5.46320
H          2.89980       -8.55020       -8.61150
H          0.78510       -7.44110      -14.38010
H          0.89060       -8.08330      -16.76580
H          1.97400       -9.35550      -18.60110
H          4.86100      -10.90800      -15.86970
H          4.78500      -10.28720      -13.50640
