169

C          7.00400        1.09030       -6.21290
C          6.02430        1.09770       -7.16750
C          6.38340        1.27390       -8.59670
O          7.49480        1.23590       -9.07730
C          5.10690        1.55560       -9.28690
C          4.88640        1.90260      -10.58800
C          3.56330        2.14910      -11.02140
C          3.27820        2.50070      -12.35650
C          1.99490        2.73840      -12.76500
C          0.95590        2.62950      -11.83150
F         -0.30270        2.86360      -12.25040
C          1.17680        2.29520      -10.52460
C          2.49170        2.04300      -10.08840
C          2.74990        1.67880       -8.74620
C          4.03620        1.42680       -8.35660
C          4.58940        0.99460       -7.07540
C          3.88020        0.32160       -6.10930
C          4.48560       -0.33660       -5.02090
N          4.94790       -0.93060       -4.15330
C          2.49460        0.09440       -6.19010
N          1.36690       -0.12410       -6.22860
C          6.89490        1.37070       -4.83860
S          5.57930        2.36070       -4.19420
C          6.23700        2.22460       -2.61300
C          5.98370        2.58720       -1.29720
C          6.99430        1.99160       -0.50590
N          7.85720        1.29500       -1.30600
C          9.03930        0.59550       -0.87320
C         10.24520        1.52890       -0.79010
C          7.41780        1.43510       -2.59760
C          7.80230        0.99540       -3.85610
C          6.83110        2.19760        0.86610
C          5.70790        2.95430        1.13850
S          4.85020        3.44540       -0.32430
C          5.08820        3.23750        2.38740
C          5.38140        2.75830        3.65860
C          6.63700        2.13800        4.08490
C          7.85480        2.76580        3.82870
C          9.03000        2.20200        4.28710
C          9.00310        1.01940        5.00750
C          7.79770        0.38540        5.27910
C          7.74740       -0.85900        6.11660
C          7.43980       -0.49900        7.57170
C          6.62120        0.95460        4.81330
C          4.29890        2.95780        4.53920
S          3.94270        2.37110        6.15240
C          2.32340        2.97810        6.00470
C          1.06680        2.85040        6.63330
C          0.62710        2.20910        7.81360
C         -0.78820        2.05730        8.04870
N         -1.04250        1.43330        9.18680
S          0.36190        1.06880        9.90470
N          1.35660        1.68440        8.78440
C         -1.70250        2.45280        7.04390
C         -3.03720        2.08440        6.78360
S         -4.27360        1.04030        7.41950
C         -5.13870        1.13630        5.89340
C         -6.23000        0.42640        5.33640
C         -7.07220       -0.50890        6.07860
C         -8.45050       -0.53040        5.86750
C         -9.24710       -1.39690        6.59000
C         -8.68460       -2.24550        7.52870
C         -7.31500       -2.23110        7.76050
C         -6.69340       -3.17320        8.75100
C         -6.30610       -4.48730        8.06970
C         -6.51970       -1.36120        7.02970
C         -6.39780        0.74460        3.99530
S         -5.30090        2.01060        3.46450
C         -4.52500        2.01240        5.00020
C         -3.33470        2.54830        5.50020
N         -2.27670        3.23880        4.97720
C         -1.24680        3.15850        5.89590
C          0.12670        3.46150        5.76210
N          0.79530        4.04400        4.69830
C          2.11420        3.68090        4.81440
C          3.22840        3.65230        3.97400
S          3.53400        4.06320        2.32820
C          0.42020        5.26040        4.00610
C          1.37090        6.41070        4.33440
C         -2.22710        3.47120        3.54960
C         -1.45460        2.37230        2.82510
C         -7.05640        0.05790        2.93210
S         -6.97030        0.81910        1.34380
C         -7.42130       -0.66330        0.59890
C         -7.44580       -1.26220       -0.65510
C         -7.78010       -2.62490       -0.43490
N         -7.96240       -2.84650        0.91080
C         -8.36990       -4.08130        1.52780
C         -9.88800       -4.15960        1.67740
C         -7.72120       -1.65850        1.55350
C         -7.51990       -1.24230        2.87590
C         -7.69220       -3.38380       -1.58940
C         -7.23320       -2.63560       -2.67940
S         -6.99910       -0.93390       -2.28020
C         -6.87570       -3.24260       -3.89500
C         -6.13440       -2.74860       -4.93710
C         -5.57280       -1.39150       -5.03120
O         -5.88680       -0.41320       -4.37660
C         -4.55170       -1.45010       -6.08690
C         -3.63980       -0.48910       -6.47020
C         -2.70140       -0.78990       -7.45290
C         -1.67910        0.22820       -7.84150
C         -2.70750       -2.06090       -8.04800
C         -1.68820       -2.40350       -9.08750
C         -3.64700       -3.01790       -7.67100
C         -4.57160       -2.72220       -6.68370
C         -5.61190       -3.52460       -6.04650
C         -6.01820       -4.77050       -6.45140
C         -5.47340       -5.45330       -7.55780
N         -5.07620       -6.06050       -8.44820
C         -7.04590       -5.52600       -5.85240
N         -7.86860       -6.20120       -5.41820
H          8.01010        0.91870       -6.58440
H          5.70980        1.98630      -11.28140
H          4.09540        2.57910      -13.05770
H          1.76080        3.00700      -13.78280
H          0.35310        2.22030       -9.83180
H          1.92280        1.61960       -8.05660
H          9.23390       -0.21310       -1.58190
H          8.83670        0.15730        0.10800
H         11.12140        0.97600       -0.46370
H         10.45120        1.96920       -1.76290
H         10.05260        2.33000       -0.08030
H          8.66310        0.38980       -4.07440
H          7.46910        1.79430        1.62920
H          7.86890        3.69890        3.28410
H          9.97260        2.69130        4.08900
H          9.92640        0.58820        5.36650
H          6.97020       -1.52730        5.74060
H          8.70420       -1.38220        6.06640
H          7.39750       -1.39630        8.18430
H          6.48400        0.01550        7.64020
H          8.21060        0.15760        7.96930
H          5.67890        0.46540        5.01050
H         -8.88980        0.14370        5.14720
H        -10.31480       -1.40670        6.42590
H         -9.31480       -2.91820        8.09240
H         -7.39950       -3.38040        9.55730
H         -5.80220       -2.71570        9.18430
H         -7.18420       -4.96580        7.64100
H         -5.85520       -5.16890        8.78690
H         -5.59170       -4.30270        7.27030
H         -5.45280       -1.35280        7.19610
H          0.42140        5.08320        2.92490
H         -0.57840        5.54160        4.34100
H          2.36730        6.21870        3.94720
H          0.99790        7.32550        3.88170
H          1.43390        6.55410        5.41100
H         -3.26190        3.47740        3.19980
H         -1.80340        4.44710        3.32550
H         -0.41890        2.34280        3.15370
H         -1.47830        2.55300        1.75440
H         -1.90920        1.40430        3.02290
H         -7.89280       -4.14840        2.50980
H         -8.01020       -4.90690        0.90830
H        -10.16910       -5.10010        2.14280
H        -10.24730       -3.34080        2.29660
H        -10.36610       -4.09410        0.70290
H         -7.62860       -1.86200        3.74680
H         -7.89070       -4.43810       -1.66680
H         -7.14450       -4.29170       -3.94280
H         -3.65100        0.47920       -5.99240
H         -1.62780        0.33520       -8.92400
H         -0.69500       -0.07870       -7.48470
H         -1.91580        1.19340       -7.40090
H         -0.68290       -2.25380       -8.69530
H         -1.79210       -3.43770       -9.40450
H         -1.80150       -1.76170       -9.96110
H         -3.62730       -3.98780       -8.14240
