
  xtb     02112204013D
 energy: -264.252096042111 gnorm: 0.000655605645 xtb: 6.4.1 (unknown)
147165  0     0  0            999 V2000
  -11.7627    6.4442   -5.4897 C   0  0  0  0  0  0  0  0  0  0  0  0
  -12.0114    5.3659   -6.2891 C   0  0  0  0  0  0  0  0  0  0  0  0
  -13.4028    5.0421   -6.6910 C   0  0  0  0  0  0  0  0  0  0  0  0
  -14.3779    5.7521   -6.5790 O   0  0  0  0  0  0  0  0  0  0  0  0
  -13.3444    3.6536   -7.1932 C   0  0  0  0  0  0  0  0  0  0  0  0
  -14.3657    2.8338   -7.5763 C   0  0  0  0  0  0  0  0  0  0  0  0
  -14.0718    1.5183   -8.0018 C   0  0  0  0  0  0  0  0  0  0  0  0
  -15.0898    0.6316   -8.4078 C   0  0  0  0  0  0  0  0  0  0  0  0
  -14.7964   -0.6408   -8.8131 C   0  0  0  0  0  0  0  0  0  0  0  0
  -13.4586   -1.0574   -8.8210 C   0  0  0  0  0  0  0  0  0  0  0  0
  -13.1887   -2.3138   -9.2232 F   0  0  0  0  0  0  0  0  0  0  0  0
  -12.4333   -0.2387   -8.4376 C   0  0  0  0  0  0  0  0  0  0  0  0
  -12.7171    1.0755   -8.0184 C   0  0  0  0  0  0  0  0  0  0  0  0
  -11.6773    1.9499   -7.6236 C   0  0  0  0  0  0  0  0  0  0  0  0
  -11.9871    3.2201   -7.2221 C   0  0  0  0  0  0  0  0  0  0  0  0
  -11.1417    4.3348   -6.8043 C   0  0  0  0  0  0  0  0  0  0  0  0
   -9.8149    4.4871   -7.1204 C   0  0  0  0  0  0  0  0  0  0  0  0
   -9.0295    3.4797   -7.7114 C   0  0  0  0  0  0  0  0  0  0  0  0
   -8.3476    2.6823   -8.1781 N   0  0  0  0  0  0  0  0  0  0  0  0
   -9.1316    5.7118   -6.9797 C   0  0  0  0  0  0  0  0  0  0  0  0
   -8.5686    6.7118   -6.9318 N   0  0  0  0  0  0  0  0  0  0  0  0
  -10.6580    6.6830   -4.6478 C   0  0  0  0  0  0  0  0  0  0  0  0
   -9.6349    5.3713   -4.0504 S   0  0  0  0  0  0  0  0  0  0  0  0
   -8.7094    6.4936   -3.1366 C   0  0  0  0  0  0  0  0  0  0  0  0
   -7.6194    6.5608   -2.2764 C   0  0  0  0  0  0  0  0  0  0  0  0
   -7.4487    7.9229   -1.9398 C   0  0  0  0  0  0  0  0  0  0  0  0
   -8.4162    8.6760   -2.5461 N   0  0  0  0  0  0  0  0  0  0  0  0
   -8.4951   10.1141   -2.5689 C   0  0  0  0  0  0  0  0  0  0  0  0
   -7.7199   10.6947   -3.7497 C   0  0  0  0  0  0  0  0  0  0  0  0
   -9.1851    7.8203   -3.2937 C   0  0  0  0  0  0  0  0  0  0  0  0
  -10.2980    7.9140   -4.1190 C   0  0  0  0  0  0  0  0  0  0  0  0
   -6.3657    8.1588   -1.0860 C   0  0  0  0  0  0  0  0  0  0  0  0
   -5.7111    6.9898   -0.7600 C   0  0  0  0  0  0  0  0  0  0  0  0
   -6.4298    5.5706   -1.5197 S   0  0  0  0  0  0  0  0  0  0  0  0
   -4.5661    6.7900    0.0654 C   0  0  0  0  0  0  0  0  0  0  0  0
   -4.0292    7.5751    1.0673 C   0  0  0  0  0  0  0  0  0  0  0  0
   -4.5432    8.8913    1.5544 C   0  0  0  0  0  0  0  0  0  0  0  0
   -3.8223   10.0516    0.8645 C   0  0  0  0  0  0  0  0  0  0  0  0
   -2.8876    6.9722    1.6258 C   0  0  0  0  0  0  0  0  0  0  0  0
   -1.7972    7.4761    2.8976 S   0  0  0  0  0  0  0  0  0  0  0  0
   -0.8979    6.0141    2.6739 C   0  0  0  0  0  0  0  0  0  0  0  0
    0.2591    5.3871    3.1658 C   0  0  0  0  0  0  0  0  0  0  0  0
    1.2421    5.8335    4.0755 C   0  0  0  0  0  0  0  0  0  0  0  0
    2.4133    5.0297    4.2818 C   0  0  0  0  0  0  0  0  0  0  0  0
    3.2771    5.5962    5.1097 N   0  0  0  0  0  0  0  0  0  0  0  0
    2.6667    7.0171    5.5929 S   0  0  0  0  0  0  0  0  0  0  0  0
    1.2782    6.9644    4.7627 N   0  0  0  0  0  0  0  0  0  0  0  0
    2.4861    3.7622    3.6650 C   0  0  0  0  0  0  0  0  0  0  0  0
    3.4186    2.7216    3.7948 C   0  0  0  0  0  0  0  0  0  0  0  0
    4.9232    2.4001    4.5811 S   0  0  0  0  0  0  0  0  0  0  0  0
    4.8765    0.7497    3.9771 C   0  0  0  0  0  0  0  0  0  0  0  0
    5.7315   -0.3683    4.0899 C   0  0  0  0  0  0  0  0  0  0  0  0
    6.9192   -0.4670    4.7296 O   0  0  0  0  0  0  0  0  0  0  0  0
    7.2339    0.4796    5.7393 C   0  0  0  0  0  0  0  0  0  0  0  0
    6.3861    0.2961    6.9915 C   0  0  0  0  0  0  0  0  0  0  0  0
    5.2312   -1.4678    3.3986 C   0  0  0  0  0  0  0  0  0  0  0  0
    3.7097   -1.1193    2.6092 S   0  0  0  0  0  0  0  0  0  0  0  0
    3.7396    0.4998    3.2019 C   0  0  0  0  0  0  0  0  0  0  0  0
    2.9161    1.6275    3.0895 C   0  0  0  0  0  0  0  0  0  0  0  0
    1.7206    1.9576    2.5097 N   0  0  0  0  0  0  0  0  0  0  0  0
    1.4440    3.2749    2.8261 C   0  0  0  0  0  0  0  0  0  0  0  0
    0.3832    4.1500    2.4735 C   0  0  0  0  0  0  0  0  0  0  0  0
   -0.6564    4.0501    1.5594 N   0  0  0  0  0  0  0  0  0  0  0  0
   -1.4181    5.1838    1.6801 C   0  0  0  0  0  0  0  0  0  0  0  0
   -2.5537    5.7350    1.0738 C   0  0  0  0  0  0  0  0  0  0  0  0
   -3.6658    5.2944   -0.1694 S   0  0  0  0  0  0  0  0  0  0  0  0
   -0.7037    3.3330    0.3027 C   0  0  0  0  0  0  0  0  0  0  0  0
    0.3382    3.8756   -0.6732 C   0  0  0  0  0  0  0  0  0  0  0  0
    0.8529    0.9157    2.0097 C   0  0  0  0  0  0  0  0  0  0  0  0
    1.2518    0.4499    0.6103 C   0  0  0  0  0  0  0  0  0  0  0  0
    5.8050   -2.7598    3.2629 C   0  0  0  0  0  0  0  0  0  0  0  0
    4.8716   -4.0254    2.4720 S   0  0  0  0  0  0  0  0  0  0  0  0
    6.1712   -5.1380    2.7007 C   0  0  0  0  0  0  0  0  0  0  0  0
    6.5342   -6.4562    2.4507 C   0  0  0  0  0  0  0  0  0  0  0  0
    7.8513   -6.6163    2.9652 C   0  0  0  0  0  0  0  0  0  0  0  0
    8.2827   -5.4283    3.5001 N   0  0  0  0  0  0  0  0  0  0  0  0
    9.5301   -5.2092    4.1856 C   0  0  0  0  0  0  0  0  0  0  0  0
    9.3900   -5.4346    5.6895 C   0  0  0  0  0  0  0  0  0  0  0  0
    7.2642   -4.5276    3.3601 C   0  0  0  0  0  0  0  0  0  0  0  0
    7.0506   -3.1836    3.6775 C   0  0  0  0  0  0  0  0  0  0  0  0
    8.3732   -7.8870    2.7924 C   0  0  0  0  0  0  0  0  0  0  0  0
    7.4792   -8.7300    2.1425 C   0  0  0  0  0  0  0  0  0  0  0  0
    5.9495   -7.9098    1.7533 S   0  0  0  0  0  0  0  0  0  0  0  0
    7.5613  -10.0750    1.7558 C   0  0  0  0  0  0  0  0  0  0  0  0
    8.5900  -10.9846    1.8122 C   0  0  0  0  0  0  0  0  0  0  0  0
    9.9911  -10.7769    2.2304 C   0  0  0  0  0  0  0  0  0  0  0  0
   10.5039   -9.8031    2.7510 O   0  0  0  0  0  0  0  0  0  0  0  0
   10.7015  -12.0244    1.8853 C   0  0  0  0  0  0  0  0  0  0  0  0
   12.0422  -12.3126    2.0314 C   0  0  0  0  0  0  0  0  0  0  0  0
   12.5115  -13.5612    1.6297 C   0  0  0  0  0  0  0  0  0  0  0  0
   13.9630  -13.9027    1.7497 C   0  0  0  0  0  0  0  0  0  0  0  0
   11.6113  -14.4779    1.0919 C   0  0  0  0  0  0  0  0  0  0  0  0
   10.2612  -14.1950    0.9467 C   0  0  0  0  0  0  0  0  0  0  0  0
    9.7954  -12.9529    1.3495 C   0  0  0  0  0  0  0  0  0  0  0  0
    8.4638  -12.3539    1.3424 C   0  0  0  0  0  0  0  0  0  0  0  0
    7.3132  -13.0183    0.9997 C   0  0  0  0  0  0  0  0  0  0  0  0
    5.9982  -12.5122    1.0679 C   0  0  0  0  0  0  0  0  0  0  0  0
    4.8920  -12.2031    1.1060 N   0  0  0  0  0  0  0  0  0  0  0  0
    7.2787  -14.3563    0.5547 C   0  0  0  0  0  0  0  0  0  0  0  0
    7.1694  -15.4371    0.1818 N   0  0  0  0  0  0  0  0  0  0  0  0
  -12.5641    7.1752   -5.4345 H   0  0  0  0  0  0  0  0  0  0  0  0
  -15.3872    3.1831   -7.5561 H   0  0  0  0  0  0  0  0  0  0  0  0
  -16.1131    0.9757   -8.3930 H   0  0  0  0  0  0  0  0  0  0  0  0
  -15.5635   -1.3312   -9.1261 H   0  0  0  0  0  0  0  0  0  0  0  0
  -11.4142   -0.5922   -8.4598 H   0  0  0  0  0  0  0  0  0  0  0  0
  -10.6606    1.5898   -7.6382 H   0  0  0  0  0  0  0  0  0  0  0  0
   -9.5492   10.3974   -2.6342 H   0  0  0  0  0  0  0  0  0  0  0  0
   -8.0917   10.4924   -1.6261 H   0  0  0  0  0  0  0  0  0  0  0  0
   -7.8094   11.7773   -3.7595 H   0  0  0  0  0  0  0  0  0  0  0  0
   -8.1093   10.3006   -4.6853 H   0  0  0  0  0  0  0  0  0  0  0  0
   -6.6677   10.4300   -3.6773 H   0  0  0  0  0  0  0  0  0  0  0  0
  -10.8146    8.8212   -4.3751 H   0  0  0  0  0  0  0  0  0  0  0  0
   -6.0520    9.1303   -0.7575 H   0  0  0  0  0  0  0  0  0  0  0  0
   -4.3568    8.9524    2.6290 H   0  0  0  0  0  0  0  0  0  0  0  0
   -5.6194    8.9559    1.3891 H   0  0  0  0  0  0  0  0  0  0  0  0
   -2.7606   10.0189    1.0958 H   0  0  0  0  0  0  0  0  0  0  0  0
   -4.2219   11.0020    1.2097 H   0  0  0  0  0  0  0  0  0  0  0  0
   -3.9370    9.9930   -0.2159 H   0  0  0  0  0  0  0  0  0  0  0  0
    7.1395    1.5008    5.3549 H   0  0  0  0  0  0  0  0  0  0  0  0
    8.2866    0.2857    5.9618 H   0  0  0  0  0  0  0  0  0  0  0  0
    6.7250    0.9814    7.7624 H   0  0  0  0  0  0  0  0  0  0  0  0
    6.4760   -0.7243    7.3570 H   0  0  0  0  0  0  0  0  0  0  0  0
    5.3395    0.5004    6.7807 H   0  0  0  0  0  0  0  0  0  0  0  0
   -0.5657    2.2664    0.4493 H   0  0  0  0  0  0  0  0  0  0  0  0
   -1.7055    3.4858   -0.1065 H   0  0  0  0  0  0  0  0  0  0  0  0
    1.3415    3.7532   -0.2699 H   0  0  0  0  0  0  0  0  0  0  0  0
    0.2696    3.3483   -1.6207 H   0  0  0  0  0  0  0  0  0  0  0  0
    0.1688    4.9348   -0.8530 H   0  0  0  0  0  0  0  0  0  0  0  0
   -0.1783    1.2690    2.0515 H   0  0  0  0  0  0  0  0  0  0  0  0
    0.9346    0.0634    2.6936 H   0  0  0  0  0  0  0  0  0  0  0  0
    2.2197   -0.0424    0.6465 H   0  0  0  0  0  0  0  0  0  0  0  0
    1.3208    1.2821   -0.0843 H   0  0  0  0  0  0  0  0  0  0  0  0
    0.5213   -0.2632    0.2385 H   0  0  0  0  0  0  0  0  0  0  0  0
   10.2689   -5.8984    3.7699 H   0  0  0  0  0  0  0  0  0  0  0  0
    9.8544   -4.1837    3.9871 H   0  0  0  0  0  0  0  0  0  0  0  0
   10.3412   -5.2556    6.1826 H   0  0  0  0  0  0  0  0  0  0  0  0
    9.0802   -6.4577    5.8888 H   0  0  0  0  0  0  0  0  0  0  0  0
    8.6461   -4.7585    6.1048 H   0  0  0  0  0  0  0  0  0  0  0  0
    7.7475   -2.5341    4.1699 H   0  0  0  0  0  0  0  0  0  0  0  0
    9.3456   -8.2200    3.1039 H   0  0  0  0  0  0  0  0  0  0  0  0
    6.6421  -10.4372    1.3103 H   0  0  0  0  0  0  0  0  0  0  0  0
   12.7081  -11.5738    2.4522 H   0  0  0  0  0  0  0  0  0  0  0  0
   14.4270  -13.3454    2.5597 H   0  0  0  0  0  0  0  0  0  0  0  0
   14.0995  -14.9673    1.9246 H   0  0  0  0  0  0  0  0  0  0  0  0
   14.4799  -13.6456    0.8243 H   0  0  0  0  0  0  0  0  0  0  0  0
   11.9765  -15.4450    0.7774 H   0  0  0  0  0  0  0  0  0  0  0  0
    9.6038  -14.9366    0.5239 H   0  0  0  0  0  0  0  0  0  0  0  0
  1  2  2  0  0  0  0
  2  3  1  0  0  0  0
  3  4  2  0  0  0  0
  3  5  1  0  0  0  0
  5  6  2  0  0  0  0
  6  7  1  0  0  0  0
  7  8  2  0  0  0  0
  8  9  1  0  0  0  0
  9 10  2  0  0  0  0
 10 11  1  0  0  0  0
 10 12  1  0  0  0  0
 12 13  2  0  0  0  0
 13 14  1  0  0  0  0
 14 15  2  0  0  0  0
 15 16  1  0  0  0  0
 16 17  2  0  0  0  0
 17 18  1  0  0  0  0
 18 19  3  0  0  0  0
 17 20  1  0  0  0  0
 20 21  3  0  0  0  0
  1 22  1  0  0  0  0
 22 23  1  0  0  0  0
 23 24  1  0  0  0  0
 24 25  1  0  0  0  0
 25 26  2  0  0  0  0
 26 27  1  0  0  0  0
 27 28  1  0  0  0  0
 28 29  1  0  0  0  0
 27 30  1  0  0  0  0
 30 31  1  0  0  0  0
 26 32  1  0  0  0  0
 32 33  2  0  0  0  0
 33 34  1  0  0  0  0
 33 35  1  0  0  0  0
 35 36  2  0  0  0  0
 36 37  1  0  0  0  0
 37 38  1  0  0  0  0
 36 39  1  0  0  0  0
 39 40  1  0  0  0  0
 40 41  1  0  0  0  0
 41 42  1  0  0  0  0
 42 43  1  0  0  0  0
 43 44  1  0  0  0  0
 44 45  2  0  0  0  0
 45 46  1  0  0  0  0
 46 47  1  0  0  0  0
 44 48  1  0  0  0  0
 48 49  1  0  0  0  0
 49 50  1  0  0  0  0
 50 51  1  0  0  0  0
 51 52  1  0  0  0  0
 52 53  1  0  0  0  0
 53 54  1  0  0  0  0
 54 55  1  0  0  0  0
 52 56  2  0  0  0  0
 56 57  1  0  0  0  0
 57 58  1  0  0  0  0
 58 59  1  0  0  0  0
 59 60  1  0  0  0  0
 60 61  1  0  0  0  0
 61 62  1  0  0  0  0
 62 63  1  0  0  0  0
 63 64  1  0  0  0  0
 64 65  1  0  0  0  0
 65 66  1  0  0  0  0
 63 67  1  0  0  0  0
 67 68  1  0  0  0  0
 60 69  1  0  0  0  0
 69 70  1  0  0  0  0
 56 71  1  0  0  0  0
 71 72  1  0  0  0  0
 72 73  1  0  0  0  0
 73 74  1  0  0  0  0
 74 75  2  0  0  0  0
 75 76  1  0  0  0  0
 76 77  1  0  0  0  0
 77 78  1  0  0  0  0
 76 79  1  0  0  0  0
 79 80  1  0  0  0  0
 75 81  1  0  0  0  0
 81 82  2  0  0  0  0
 82 83  1  0  0  0  0
 82 84  1  0  0  0  0
 84 85  2  0  0  0  0
 85 86  1  0  0  0  0
 86 87  2  0  0  0  0
 86 88  1  0  0  0  0
 88 89  2  0  0  0  0
 89 90  1  0  0  0  0
 90 91  1  0  0  0  0
 90 92  2  0  0  0  0
 92 93  1  0  0  0  0
 93 94  2  0  0  0  0
 94 95  1  0  0  0  0
 95 96  2  0  0  0  0
 96 97  1  0  0  0  0
 97 98  3  0  0  0  0
 96 99  1  0  0  0  0
 99100  3  0  0  0  0
 16  2  1  0  0  0  0
 31 22  2  0  0  0  0
 66 35  1  0  0  0  0
 80 71  2  0  0  0  0
 95 85  1  0  0  0  0
 15  5  1  0  0  0  0
 30 24  2  0  0  0  0
 65 39  2  0  0  0  0
 79 73  2  0  0  0  0
 94 88  1  0  0  0  0
 13  7  1  0  0  0  0
 34 25  1  0  0  0  0
 64 41  2  0  0  0  0
 83 74  1  0  0  0  0
 62 42  2  0  0  0  0
 47 43  2  0  0  0  0
 61 48  2  0  0  0  0
 59 49  2  0  0  0  0
 58 51  2  0  0  0  0
  1101  1  0  0  0  0
  6102  1  0  0  0  0
  8103  1  0  0  0  0
  9104  1  0  0  0  0
 12105  1  0  0  0  0
 14106  1  0  0  0  0
 28107  1  0  0  0  0
 28108  1  0  0  0  0
 29109  1  0  0  0  0
 29110  1  0  0  0  0
 29111  1  0  0  0  0
 31112  1  0  0  0  0
 32113  1  0  0  0  0
 37114  1  0  0  0  0
 37115  1  0  0  0  0
 38116  1  0  0  0  0
 38117  1  0  0  0  0
 38118  1  0  0  0  0
 54119  1  0  0  0  0
 54120  1  0  0  0  0
 55121  1  0  0  0  0
 55122  1  0  0  0  0
 55123  1  0  0  0  0
 67124  1  0  0  0  0
 67125  1  0  0  0  0
 68126  1  0  0  0  0
 68127  1  0  0  0  0
 68128  1  0  0  0  0
 69129  1  0  0  0  0
 69130  1  0  0  0  0
 70131  1  0  0  0  0
 70132  1  0  0  0  0
 70133  1  0  0  0  0
 77134  1  0  0  0  0
 77135  1  0  0  0  0
 78136  1  0  0  0  0
 78137  1  0  0  0  0
 78138  1  0  0  0  0
 80139  1  0  0  0  0
 81140  1  0  0  0  0
 84141  1  0  0  0  0
 89142  1  0  0  0  0
 91143  1  0  0  0  0
 91144  1  0  0  0  0
 91145  1  0  0  0  0
 92146  1  0  0  0  0
 93147  1  0  0  0  0
M  END
