
  xtb     02112201103D
 energy: -274.912792874367 gnorm: 0.000239461422 xtb: 6.4.1 (unknown)
150169  0     0  0            999 V2000
    3.0934   -6.3145  -11.2923 C   0  0  0  0  0  0  0  0  0  0  0  0
    3.6657   -7.5330  -11.0101 C   0  0  0  0  0  0  0  0  0  0  0  0
    4.3443   -7.9709   -9.7737 C   0  0  0  0  0  0  0  0  0  0  0  0
    4.7455   -7.3057   -8.8364 O   0  0  0  0  0  0  0  0  0  0  0  0
    4.4515   -9.4388   -9.8733 C   0  0  0  0  0  0  0  0  0  0  0  0
    4.9252  -10.3180   -8.9437 C   0  0  0  0  0  0  0  0  0  0  0  0
    4.9089  -11.7005   -9.2334 C   0  0  0  0  0  0  0  0  0  0  0  0
    5.3764  -12.6547   -8.3072 C   0  0  0  0  0  0  0  0  0  0  0  0
    5.3454  -13.9907   -8.5958 C   0  0  0  0  0  0  0  0  0  0  0  0
    4.8397  -14.4040   -9.8355 C   0  0  0  0  0  0  0  0  0  0  0  0
    4.8156  -15.7238  -10.1011 F   0  0  0  0  0  0  0  0  0  0  0  0
    4.3757  -13.5207  -10.7700 C   0  0  0  0  0  0  0  0  0  0  0  0
    4.4000  -12.1406  -10.4895 C   0  0  0  0  0  0  0  0  0  0  0  0
    3.9251  -11.2026  -11.4366 C   0  0  0  0  0  0  0  0  0  0  0  0
    3.9524   -9.8679  -11.1329 C   0  0  0  0  0  0  0  0  0  0  0  0
    3.5342   -8.6863  -11.8824 C   0  0  0  0  0  0  0  0  0  0  0  0
    3.1518   -8.6910  -13.2000 C   0  0  0  0  0  0  0  0  0  0  0  0
    2.8483   -7.5550  -13.9793 C   0  0  0  0  0  0  0  0  0  0  0  0
    2.6091   -6.6883  -14.6947 N   0  0  0  0  0  0  0  0  0  0  0  0
    3.0562   -9.8581  -13.9858 C   0  0  0  0  0  0  0  0  0  0  0  0
    2.9528  -10.7681  -14.6786 N   0  0  0  0  0  0  0  0  0  0  0  0
    3.0623   -5.1168  -10.5656 C   0  0  0  0  0  0  0  0  0  0  0  0
    1.9497   -3.8676  -11.1703 S   0  0  0  0  0  0  0  0  0  0  0  0
    2.3446   -2.8528   -9.8445 C   0  0  0  0  0  0  0  0  0  0  0  0
    2.0096   -1.6395   -9.2526 C   0  0  0  0  0  0  0  0  0  0  0  0
    2.7886   -1.5284   -8.0768 C   0  0  0  0  0  0  0  0  0  0  0  0
    3.5805   -2.6316   -7.9353 N   0  0  0  0  0  0  0  0  0  0  0  0
    4.5607   -2.8629   -6.9056 C   0  0  0  0  0  0  0  0  0  0  0  0
    5.9215   -2.2857   -7.2890 C   0  0  0  0  0  0  0  0  0  0  0  0
    3.3247   -3.4523   -9.0042 C   0  0  0  0  0  0  0  0  0  0  0  0
    3.7261   -4.7119   -9.4136 C   0  0  0  0  0  0  0  0  0  0  0  0
    2.5073   -0.3842   -7.3307 C   0  0  0  0  0  0  0  0  0  0  0  0
    1.5187    0.3852   -7.9134 C   0  0  0  0  0  0  0  0  0  0  0  0
    0.9442   -0.2921   -9.4319 S   0  0  0  0  0  0  0  0  0  0  0  0
    0.9246    1.5295   -7.3123 C   0  0  0  0  0  0  0  0  0  0  0  0
   -0.0059    2.4372   -7.7804 C   0  0  0  0  0  0  0  0  0  0  0  0
   -0.5887    2.4947   -9.1545 C   0  0  0  0  0  0  0  0  0  0  0  0
   -1.9119    1.7293   -9.2168 C   0  0  0  0  0  0  0  0  0  0  0  0
   -0.4083    3.3237   -6.7636 C   0  0  0  0  0  0  0  0  0  0  0  0
   -1.6047    4.6003   -6.7123 S   0  0  0  0  0  0  0  0  0  0  0  0
   -1.2926    4.8040   -5.0202 C   0  0  0  0  0  0  0  0  0  0  0  0
   -1.7743    5.5378   -3.9188 C   0  0  0  0  0  0  0  0  0  0  0  0
   -2.7193    6.5810   -3.7946 C   0  0  0  0  0  0  0  0  0  0  0  0
   -3.0028    7.1204   -2.4904 C   0  0  0  0  0  0  0  0  0  0  0  0
   -3.8751    8.1144   -2.5354 N   0  0  0  0  0  0  0  0  0  0  0  0
   -4.3069    8.3526   -4.0779 S   0  0  0  0  0  0  0  0  0  0  0  0
   -3.3995    7.1935   -4.7503 N   0  0  0  0  0  0  0  0  0  0  0  0
   -2.4292    6.5079   -1.3527 C   0  0  0  0  0  0  0  0  0  0  0  0
   -2.7101    6.6163    0.0200 C   0  0  0  0  0  0  0  0  0  0  0  0
   -3.7376    7.5108    1.0862 S   0  0  0  0  0  0  0  0  0  0  0  0
   -3.2357    6.4866    2.4269 C   0  0  0  0  0  0  0  0  0  0  0  0
   -3.5854    6.3909    3.7925 C   0  0  0  0  0  0  0  0  0  0  0  0
   -4.4675    7.1301    4.5009 O   0  0  0  0  0  0  0  0  0  0  0  0
   -4.9159    8.3655    3.9652 C   0  0  0  0  0  0  0  0  0  0  0  0
   -3.8401    9.4429    4.0127 C   0  0  0  0  0  0  0  0  0  0  0  0
   -2.9199    5.3400    4.4189 C   0  0  0  0  0  0  0  0  0  0  0  0
   -1.8574    4.4812    3.3278 S   0  0  0  0  0  0  0  0  0  0  0  0
   -2.3059    5.5209    2.0295 C   0  0  0  0  0  0  0  0  0  0  0  0
   -1.9999    5.6019    0.6665 C   0  0  0  0  0  0  0  0  0  0  0  0
   -1.2596    4.8957   -0.2423 N   0  0  0  0  0  0  0  0  0  0  0  0
   -1.5025    5.4386   -1.4886 C   0  0  0  0  0  0  0  0  0  0  0  0
   -1.0730    5.0566   -2.7812 C   0  0  0  0  0  0  0  0  0  0  0  0
   -0.1358    4.1211   -3.1859 N   0  0  0  0  0  0  0  0  0  0  0  0
   -0.2956    3.9517   -4.5376 C   0  0  0  0  0  0  0  0  0  0  0  0
    0.2104    3.1113   -5.5320 C   0  0  0  0  0  0  0  0  0  0  0  0
    1.3383    1.8110   -5.6166 S   0  0  0  0  0  0  0  0  0  0  0  0
    1.1481    3.8505   -2.5744 C   0  0  0  0  0  0  0  0  0  0  0  0
    2.2727    4.6031   -3.2855 C   0  0  0  0  0  0  0  0  0  0  0  0
   -0.6944    3.6122    0.1117 C   0  0  0  0  0  0  0  0  0  0  0  0
    0.5805    3.7484    0.9434 C   0  0  0  0  0  0  0  0  0  0  0  0
   -3.0244    4.8824    5.7583 C   0  0  0  0  0  0  0  0  0  0  0  0
   -2.0074    3.5361    6.2558 S   0  0  0  0  0  0  0  0  0  0  0  0
   -2.7060    3.5799    7.8314 C   0  0  0  0  0  0  0  0  0  0  0  0
   -2.6501    2.9273    9.0570 C   0  0  0  0  0  0  0  0  0  0  0  0
   -3.6017    3.5795    9.8927 C   0  0  0  0  0  0  0  0  0  0  0  0
   -4.2265    4.5839    9.1931 N   0  0  0  0  0  0  0  0  0  0  0  0
   -5.1794    5.5244    9.7224 C   0  0  0  0  0  0  0  0  0  0  0  0
   -4.4873    6.7365   10.3428 C   0  0  0  0  0  0  0  0  0  0  0  0
   -3.6763    4.6033    7.9394 C   0  0  0  0  0  0  0  0  0  0  0  0
   -3.8517    5.3394    6.7653 C   0  0  0  0  0  0  0  0  0  0  0  0
   -3.6691    3.0310   11.1556 C   0  0  0  0  0  0  0  0  0  0  0  0
   -2.7822    1.9552   11.3150 C   0  0  0  0  0  0  0  0  0  0  0  0
   -1.8422    1.6357    9.8529 S   0  0  0  0  0  0  0  0  0  0  0  0
   -2.7120    1.2442   12.5150 C   0  0  0  0  0  0  0  0  0  0  0  0
   -1.9375    0.1649   12.8785 C   0  0  0  0  0  0  0  0  0  0  0  0
   -0.9317   -0.4869   12.0371 C   0  0  0  0  0  0  0  0  0  0  0  0
   -0.6181   -0.2052   10.8929 O   0  0  0  0  0  0  0  0  0  0  0  0
   -0.3520   -1.5692   12.8523 C   0  0  0  0  0  0  0  0  0  0  0  0
    0.6266   -2.4592   12.5199 C   0  0  0  0  0  0  0  0  0  0  0  0
    1.0326   -3.4218   13.4716 C   0  0  0  0  0  0  0  0  0  0  0  0
    2.0384   -4.3661   13.1839 C   0  0  0  0  0  0  0  0  0  0  0  0
    2.4230   -5.2915   14.1144 C   0  0  0  0  0  0  0  0  0  0  0  0
    1.7993   -5.2896   15.3687 C   0  0  0  0  0  0  0  0  0  0  0  0
    2.1914   -6.2081   16.2726 F   0  0  0  0  0  0  0  0  0  0  0  0
    0.8185   -4.3963   15.6991 C   0  0  0  0  0  0  0  0  0  0  0  0
    0.4100   -3.4365   14.7529 C   0  0  0  0  0  0  0  0  0  0  0  0
   -0.6034   -2.4994   15.0664 C   0  0  0  0  0  0  0  0  0  0  0  0
   -0.9815   -1.5770   14.1284 C   0  0  0  0  0  0  0  0  0  0  0  0
   -1.9778   -0.5063   14.1586 C   0  0  0  0  0  0  0  0  0  0  0  0
   -2.7971   -0.2282   15.2264 C   0  0  0  0  0  0  0  0  0  0  0  0
   -3.7719    0.7875   15.2797 C   0  0  0  0  0  0  0  0  0  0  0  0
   -4.5876    1.5875   15.4098 N   0  0  0  0  0  0  0  0  0  0  0  0
   -2.7796   -0.9412   16.4420 C   0  0  0  0  0  0  0  0  0  0  0  0
   -2.8212   -1.4766   17.4576 N   0  0  0  0  0  0  0  0  0  0  0  0
    2.5089   -6.2706  -12.2042 H   0  0  0  0  0  0  0  0  0  0  0  0
    5.3025   -9.9636   -7.9960 H   0  0  0  0  0  0  0  0  0  0  0  0
    5.7608  -12.3113   -7.3584 H   0  0  0  0  0  0  0  0  0  0  0  0
    5.6976  -14.7337   -7.8979 H   0  0  0  0  0  0  0  0  0  0  0  0
    3.9944  -13.8750  -11.7149 H   0  0  0  0  0  0  0  0  0  0  0  0
    3.5432  -11.5696  -12.3754 H   0  0  0  0  0  0  0  0  0  0  0  0
    4.6410   -3.9418   -6.7513 H   0  0  0  0  0  0  0  0  0  0  0  0
    4.2014   -2.4016   -5.9818 H   0  0  0  0  0  0  0  0  0  0  0  0
    6.2834   -2.7512   -8.2024 H   0  0  0  0  0  0  0  0  0  0  0  0
    6.6401   -2.4698   -6.4955 H   0  0  0  0  0  0  0  0  0  0  0  0
    5.8460   -1.2128   -7.4518 H   0  0  0  0  0  0  0  0  0  0  0  0
    4.4436   -5.3378   -8.9173 H   0  0  0  0  0  0  0  0  0  0  0  0
    2.9760   -0.1190   -6.4002 H   0  0  0  0  0  0  0  0  0  0  0  0
    0.1114    2.0832   -9.8825 H   0  0  0  0  0  0  0  0  0  0  0  0
   -0.7719    3.5426   -9.4032 H   0  0  0  0  0  0  0  0  0  0  0  0
   -2.3289    1.7894  -10.2182 H   0  0  0  0  0  0  0  0  0  0  0  0
   -1.7600    0.6820   -8.9676 H   0  0  0  0  0  0  0  0  0  0  0  0
   -2.6256    2.1557   -8.5159 H   0  0  0  0  0  0  0  0  0  0  0  0
   -5.2842    8.2318    2.9427 H   0  0  0  0  0  0  0  0  0  0  0  0
   -5.7572    8.6412    4.6066 H   0  0  0  0  0  0  0  0  0  0  0  0
   -2.9982    9.1736    3.3800 H   0  0  0  0  0  0  0  0  0  0  0  0
   -4.2533   10.3827    3.6594 H   0  0  0  0  0  0  0  0  0  0  0  0
   -3.4841    9.5710    5.0323 H   0  0  0  0  0  0  0  0  0  0  0  0
    1.3401    2.7732   -2.6157 H   0  0  0  0  0  0  0  0  0  0  0  0
    1.1181    4.1786   -1.5406 H   0  0  0  0  0  0  0  0  0  0  0  0
    2.0625    5.6706   -3.2959 H   0  0  0  0  0  0  0  0  0  0  0  0
    3.2091    4.4361   -2.7602 H   0  0  0  0  0  0  0  0  0  0  0  0
    2.3871    4.2606   -4.3099 H   0  0  0  0  0  0  0  0  0  0  0  0
   -1.4392    3.0750    0.7098 H   0  0  0  0  0  0  0  0  0  0  0  0
   -0.5234    3.0386   -0.7991 H   0  0  0  0  0  0  0  0  0  0  0  0
    0.3500    4.1758    1.9149 H   0  0  0  0  0  0  0  0  0  0  0  0
    1.0215    2.7679    1.0968 H   0  0  0  0  0  0  0  0  0  0  0  0
    1.3131    4.3909    0.4600 H   0  0  0  0  0  0  0  0  0  0  0  0
   -5.7838    5.0108   10.4747 H   0  0  0  0  0  0  0  0  0  0  0  0
   -5.8340    5.8416    8.9062 H   0  0  0  0  0  0  0  0  0  0  0  0
   -3.8880    7.2513    9.5954 H   0  0  0  0  0  0  0  0  0  0  0  0
   -5.2271    7.4278   10.7362 H   0  0  0  0  0  0  0  0  0  0  0  0
   -3.8348    6.4231   11.1543 H   0  0  0  0  0  0  0  0  0  0  0  0
   -4.5366    6.1528    6.6234 H   0  0  0  0  0  0  0  0  0  0  0  0
   -4.3145    3.3568   11.9518 H   0  0  0  0  0  0  0  0  0  0  0  0
   -3.3941    1.6200   13.2680 H   0  0  0  0  0  0  0  0  0  0  0  0
    1.0858   -2.4296   11.5431 H   0  0  0  0  0  0  0  0  0  0  0  0
    2.5040   -4.3471   12.2099 H   0  0  0  0  0  0  0  0  0  0  0  0
    3.1909   -6.0209   13.9104 H   0  0  0  0  0  0  0  0  0  0  0  0
    0.3599   -4.4247   16.6752 H   0  0  0  0  0  0  0  0  0  0  0  0
   -1.0525   -2.5394   16.0455 H   0  0  0  0  0  0  0  0  0  0  0  0
  1  2  2  0  0  0  0
  2  3  1  0  0  0  0
  3  4  2  0  0  0  0
  3  5  1  0  0  0  0
  5  6  2  0  0  0  0
  6  7  1  0  0  0  0
  7  8  2  0  0  0  0
  8  9  1  0  0  0  0
  9 10  2  0  0  0  0
 10 11  1  0  0  0  0
 10 12  1  0  0  0  0
 12 13  2  0  0  0  0
 13 14  1  0  0  0  0
 14 15  2  0  0  0  0
 15 16  1  0  0  0  0
 16 17  2  0  0  0  0
 17 18  1  0  0  0  0
 18 19  3  0  0  0  0
 17 20  1  0  0  0  0
 20 21  3  0  0  0  0
  1 22  1  0  0  0  0
 22 23  1  0  0  0  0
 23 24  1  0  0  0  0
 24 25  1  0  0  0  0
 25 26  2  0  0  0  0
 26 27  1  0  0  0  0
 27 28  1  0  0  0  0
 28 29  1  0  0  0  0
 27 30  1  0  0  0  0
 30 31  1  0  0  0  0
 26 32  1  0  0  0  0
 32 33  2  0  0  0  0
 33 34  1  0  0  0  0
 33 35  1  0  0  0  0
 35 36  2  0  0  0  0
 36 37  1  0  0  0  0
 37 38  1  0  0  0  0
 36 39  1  0  0  0  0
 39 40  1  0  0  0  0
 40 41  1  0  0  0  0
 41 42  1  0  0  0  0
 42 43  1  0  0  0  0
 43 44  1  0  0  0  0
 44 45  2  0  0  0  0
 45 46  1  0  0  0  0
 46 47  1  0  0  0  0
 44 48  1  0  0  0  0
 48 49  1  0  0  0  0
 49 50  1  0  0  0  0
 50 51  1  0  0  0  0
 51 52  1  0  0  0  0
 52 53  1  0  0  0  0
 53 54  1  0  0  0  0
 54 55  1  0  0  0  0
 52 56  2  0  0  0  0
 56 57  1  0  0  0  0
 57 58  1  0  0  0  0
 58 59  1  0  0  0  0
 59 60  1  0  0  0  0
 60 61  1  0  0  0  0
 61 62  1  0  0  0  0
 62 63  1  0  0  0  0
 63 64  1  0  0  0  0
 64 65  1  0  0  0  0
 65 66  1  0  0  0  0
 63 67  1  0  0  0  0
 67 68  1  0  0  0  0
 60 69  1  0  0  0  0
 69 70  1  0  0  0  0
 56 71  1  0  0  0  0
 71 72  1  0  0  0  0
 72 73  1  0  0  0  0
 73 74  1  0  0  0  0
 74 75  2  0  0  0  0
 75 76  1  0  0  0  0
 76 77  1  0  0  0  0
 77 78  1  0  0  0  0
 76 79  1  0  0  0  0
 79 80  1  0  0  0  0
 75 81  1  0  0  0  0
 81 82  2  0  0  0  0
 82 83  1  0  0  0  0
 82 84  1  0  0  0  0
 84 85  2  0  0  0  0
 85 86  1  0  0  0  0
 86 87  2  0  0  0  0
 86 88  1  0  0  0  0
 88 89  2  0  0  0  0
 89 90  1  0  0  0  0
 90 91  2  0  0  0  0
 91 92  1  0  0  0  0
 92 93  2  0  0  0  0
 93 94  1  0  0  0  0
 93 95  1  0  0  0  0
 95 96  2  0  0  0  0
 96 97  1  0  0  0  0
 97 98  2  0  0  0  0
 98 99  1  0  0  0  0
 99100  2  0  0  0  0
100101  1  0  0  0  0
101102  3  0  0  0  0
100103  1  0  0  0  0
103104  3  0  0  0  0
 16  2  1  0  0  0  0
 31 22  2  0  0  0  0
 66 35  1  0  0  0  0
 80 71  2  0  0  0  0
 99 85  1  0  0  0  0
 15  5  1  0  0  0  0
 30 24  2  0  0  0  0
 65 39  2  0  0  0  0
 79 73  2  0  0  0  0
 98 88  1  0  0  0  0
 13  7  1  0  0  0  0
 34 25  1  0  0  0  0
 64 41  2  0  0  0  0
 83 74  1  0  0  0  0
 96 90  1  0  0  0  0
 62 42  2  0  0  0  0
 47 43  2  0  0  0  0
 61 48  2  0  0  0  0
 59 49  2  0  0  0  0
 58 51  2  0  0  0  0
  1105  1  0  0  0  0
  6106  1  0  0  0  0
  8107  1  0  0  0  0
  9108  1  0  0  0  0
 12109  1  0  0  0  0
 14110  1  0  0  0  0
 28111  1  0  0  0  0
 28112  1  0  0  0  0
 29113  1  0  0  0  0
 29114  1  0  0  0  0
 29115  1  0  0  0  0
 31116  1  0  0  0  0
 32117  1  0  0  0  0
 37118  1  0  0  0  0
 37119  1  0  0  0  0
 38120  1  0  0  0  0
 38121  1  0  0  0  0
 38122  1  0  0  0  0
 54123  1  0  0  0  0
 54124  1  0  0  0  0
 55125  1  0  0  0  0
 55126  1  0  0  0  0
 55127  1  0  0  0  0
 67128  1  0  0  0  0
 67129  1  0  0  0  0
 68130  1  0  0  0  0
 68131  1  0  0  0  0
 68132  1  0  0  0  0
 69133  1  0  0  0  0
 69134  1  0  0  0  0
 70135  1  0  0  0  0
 70136  1  0  0  0  0
 70137  1  0  0  0  0
 77138  1  0  0  0  0
 77139  1  0  0  0  0
 78140  1  0  0  0  0
 78141  1  0  0  0  0
 78142  1  0  0  0  0
 80143  1  0  0  0  0
 81144  1  0  0  0  0
 84145  1  0  0  0  0
 89146  1  0  0  0  0
 91147  1  0  0  0  0
 92148  1  0  0  0  0
 95149  1  0  0  0  0
 97150  1  0  0  0  0
M  END
