
  xtb     02042220553D
 energy: -294.040018823137 gnorm: 0.000413486952 xtb: 6.4.1 (unknown)
167187  0     0  0            999 V2000
  -12.4752    4.8812    3.8633 C   0  0  0  0  0  0  0  0  0  0  0  0
  -12.6924    6.2241    4.0733 C   0  0  0  0  0  0  0  0  0  0  0  0
  -11.8276    7.3658    3.7176 C   0  0  0  0  0  0  0  0  0  0  0  0
  -10.8276    7.3905    3.0231 O   0  0  0  0  0  0  0  0  0  0  0  0
  -12.4069    8.5382    4.4005 C   0  0  0  0  0  0  0  0  0  0  0  0
  -11.9356    9.8182    4.4305 C   0  0  0  0  0  0  0  0  0  0  0  0
  -12.6405   10.7936    5.1703 C   0  0  0  0  0  0  0  0  0  0  0  0
  -12.1989   12.1303    5.2392 C   0  0  0  0  0  0  0  0  0  0  0  0
  -12.8867   13.0630    5.9647 C   0  0  0  0  0  0  0  0  0  0  0  0
  -14.0470   12.6704    6.6451 C   0  0  0  0  0  0  0  0  0  0  0  0
  -14.7104   13.6026    7.3554 F   0  0  0  0  0  0  0  0  0  0  0  0
  -14.5193   11.3880    6.6106 C   0  0  0  0  0  0  0  0  0  0  0  0
  -13.8238   10.4144    5.8674 C   0  0  0  0  0  0  0  0  0  0  0  0
  -14.2900    9.0796    5.8112 C   0  0  0  0  0  0  0  0  0  0  0  0
  -13.5921    8.1533    5.0835 C   0  0  0  0  0  0  0  0  0  0  0  0
  -13.8177    6.7312    4.8370 C   0  0  0  0  0  0  0  0  0  0  0  0
  -14.9429    6.0440    5.2187 C   0  0  0  0  0  0  0  0  0  0  0  0
  -16.0009    6.6151    5.9554 C   0  0  0  0  0  0  0  0  0  0  0  0
  -16.8946    7.0127    6.5573 N   0  0  0  0  0  0  0  0  0  0  0  0
  -15.2467    4.7015    4.9103 C   0  0  0  0  0  0  0  0  0  0  0  0
  -15.5946    3.6283    4.6918 N   0  0  0  0  0  0  0  0  0  0  0  0
  -11.4708    4.2004    3.1645 C   0  0  0  0  0  0  0  0  0  0  0  0
  -11.4791    2.4280    3.3213 S   0  0  0  0  0  0  0  0  0  0  0  0
  -10.0869    2.3180    2.3258 C   0  0  0  0  0  0  0  0  0  0  0  0
   -9.1834    1.4002    1.8014 C   0  0  0  0  0  0  0  0  0  0  0  0
   -8.2397    2.1406    1.0502 C   0  0  0  0  0  0  0  0  0  0  0  0
   -8.5542    3.4692    1.0819 N   0  0  0  0  0  0  0  0  0  0  0  0
   -7.7780    4.5515    0.5332 C   0  0  0  0  0  0  0  0  0  0  0  0
   -6.7581    5.0765    1.5412 C   0  0  0  0  0  0  0  0  0  0  0  0
   -9.6638    3.6019    1.8784 C   0  0  0  0  0  0  0  0  0  0  0  0
  -10.4385    4.6476    2.3466 C   0  0  0  0  0  0  0  0  0  0  0  0
   -7.2392    1.3491    0.4860 C   0  0  0  0  0  0  0  0  0  0  0  0
   -7.4092    0.0124    0.7899 C   0  0  0  0  0  0  0  0  0  0  0  0
   -8.8281   -0.2921    1.7839 S   0  0  0  0  0  0  0  0  0  0  0  0
   -6.4959   -1.0244    0.4566 C   0  0  0  0  0  0  0  0  0  0  0  0
   -6.6033   -2.3963    0.5953 C   0  0  0  0  0  0  0  0  0  0  0  0
   -7.8185   -3.1347    0.9457 C   0  0  0  0  0  0  0  0  0  0  0  0
   -9.0051   -2.9254    0.2481 C   0  0  0  0  0  0  0  0  0  0  0  0
  -10.1244   -3.6725    0.5597 C   0  0  0  0  0  0  0  0  0  0  0  0
  -10.0684   -4.6332    1.5547 C   0  0  0  0  0  0  0  0  0  0  0  0
   -8.8892   -4.8621    2.2517 C   0  0  0  0  0  0  0  0  0  0  0  0
   -8.7965   -5.9485    3.2833 C   0  0  0  0  0  0  0  0  0  0  0  0
   -8.2622   -7.2332    2.6463 C   0  0  0  0  0  0  0  0  0  0  0  0
   -7.7691   -4.1078    1.9363 C   0  0  0  0  0  0  0  0  0  0  0  0
   -5.3842   -3.0399    0.3034 C   0  0  0  0  0  0  0  0  0  0  0  0
   -4.9033   -4.7206    0.3242 S   0  0  0  0  0  0  0  0  0  0  0  0
   -3.3134   -4.2462   -0.1727 C   0  0  0  0  0  0  0  0  0  0  0  0
   -2.0706   -4.8240   -0.4730 C   0  0  0  0  0  0  0  0  0  0  0  0
   -1.6834   -6.1800   -0.5153 C   0  0  0  0  0  0  0  0  0  0  0  0
   -0.3465   -6.5040   -0.9136 C   0  0  0  0  0  0  0  0  0  0  0  0
   -0.1261   -7.8095   -0.9361 N   0  0  0  0  0  0  0  0  0  0  0  0
   -1.4876   -8.5650   -0.4915 S   0  0  0  0  0  0  0  0  0  0  0  0
   -2.4100   -7.2554   -0.2528 N   0  0  0  0  0  0  0  0  0  0  0  0
    0.5555   -5.4540   -1.1860 C   0  0  0  0  0  0  0  0  0  0  0  0
    1.9237   -5.4937   -1.4946 C   0  0  0  0  0  0  0  0  0  0  0  0
    3.1901   -6.6507   -1.7404 S   0  0  0  0  0  0  0  0  0  0  0  0
    4.3244   -5.3323   -1.9322 C   0  0  0  0  0  0  0  0  0  0  0  0
    5.7074   -5.2959   -2.2013 C   0  0  0  0  0  0  0  0  0  0  0  0
    6.4935   -6.5093   -2.4366 C   0  0  0  0  0  0  0  0  0  0  0  0
    6.4205   -7.5730   -1.5421 C   0  0  0  0  0  0  0  0  0  0  0  0
    7.1384   -8.7282   -1.7876 C   0  0  0  0  0  0  0  0  0  0  0  0
    7.9209   -8.8366   -2.9242 C   0  0  0  0  0  0  0  0  0  0  0  0
    7.9883   -7.7920   -3.8374 C   0  0  0  0  0  0  0  0  0  0  0  0
    8.8517   -7.8824   -5.0631 C   0  0  0  0  0  0  0  0  0  0  0  0
   10.1370   -7.0768   -4.8689 C   0  0  0  0  0  0  0  0  0  0  0  0
    7.2718   -6.6324   -3.5821 C   0  0  0  0  0  0  0  0  0  0  0  0
    6.1727   -3.9931   -2.2662 C   0  0  0  0  0  0  0  0  0  0  0  0
    4.8908   -2.8140   -2.0252 S   0  0  0  0  0  0  0  0  0  0  0  0
    3.7302   -4.0747   -1.8190 C   0  0  0  0  0  0  0  0  0  0  0  0
    2.3554   -4.1699   -1.5724 C   0  0  0  0  0  0  0  0  0  0  0  0
    1.3130   -3.3199   -1.3315 N   0  0  0  0  0  0  0  0  0  0  0  0
    0.1778   -4.0797   -1.1057 C   0  0  0  0  0  0  0  0  0  0  0  0
   -1.1783   -3.7619   -0.8074 C   0  0  0  0  0  0  0  0  0  0  0  0
   -1.8941   -2.5779   -0.7455 N   0  0  0  0  0  0  0  0  0  0  0  0
   -3.1697   -2.8698   -0.3489 C   0  0  0  0  0  0  0  0  0  0  0  0
   -4.3564   -2.1778   -0.0815 C   0  0  0  0  0  0  0  0  0  0  0  0
   -4.8900   -0.5351   -0.0845 S   0  0  0  0  0  0  0  0  0  0  0  0
   -1.5860   -1.2160   -1.1104 C   0  0  0  0  0  0  0  0  0  0  0  0
   -1.3017   -0.3500    0.1181 C   0  0  0  0  0  0  0  0  0  0  0  0
    1.5896   -1.9046   -1.2744 C   0  0  0  0  0  0  0  0  0  0  0  0
    1.6532   -1.2846   -2.6708 C   0  0  0  0  0  0  0  0  0  0  0  0
    7.4990   -3.4894   -2.3929 C   0  0  0  0  0  0  0  0  0  0  0  0
    7.6978   -1.7763   -2.7446 S   0  0  0  0  0  0  0  0  0  0  0  0
    9.4077   -1.9355   -2.6126 C   0  0  0  0  0  0  0  0  0  0  0  0
   10.5699   -1.1719   -2.6553 C   0  0  0  0  0  0  0  0  0  0  0  0
   11.6380   -2.0709   -2.3851 C   0  0  0  0  0  0  0  0  0  0  0  0
   11.1455   -3.3391   -2.1873 N   0  0  0  0  0  0  0  0  0  0  0  0
   11.9389   -4.5137   -1.9290 C   0  0  0  0  0  0  0  0  0  0  0  0
   12.7512   -4.9278   -3.1539 C   0  0  0  0  0  0  0  0  0  0  0  0
    9.7849   -3.2675   -2.3249 C   0  0  0  0  0  0  0  0  0  0  0  0
    8.7008   -4.1426   -2.2037 C   0  0  0  0  0  0  0  0  0  0  0  0
   12.8693   -1.4467   -2.3630 C   0  0  0  0  0  0  0  0  0  0  0  0
   12.7709   -0.0728   -2.6184 C   0  0  0  0  0  0  0  0  0  0  0  0
   11.1062    0.4451   -2.8922 S   0  0  0  0  0  0  0  0  0  0  0  0
   13.9065    0.7462   -2.6302 C   0  0  0  0  0  0  0  0  0  0  0  0
   14.0381    2.0961   -2.8455 C   0  0  0  0  0  0  0  0  0  0  0  0
   12.9443    3.0337   -3.1413 C   0  0  0  0  0  0  0  0  0  0  0  0
   11.7569    2.7780   -3.2431 O   0  0  0  0  0  0  0  0  0  0  0  0
   13.5702    4.3536   -3.2907 C   0  0  0  0  0  0  0  0  0  0  0  0
   12.9861    5.5768   -3.5730 C   0  0  0  0  0  0  0  0  0  0  0  0
   13.7957    6.6902   -3.6613 C   0  0  0  0  0  0  0  0  0  0  0  0
   15.1811    6.5902   -3.4701 C   0  0  0  0  0  0  0  0  0  0  0  0
   15.8674    7.7476   -3.5794 O   0  0  0  0  0  0  0  0  0  0  0  0
   17.2675    7.7370   -3.4018 C   0  0  0  0  0  0  0  0  0  0  0  0
   15.7698    5.3546   -3.1866 C   0  0  0  0  0  0  0  0  0  0  0  0
   14.9561    4.2388   -3.0980 C   0  0  0  0  0  0  0  0  0  0  0  0
   15.2789    2.8380   -2.8180 C   0  0  0  0  0  0  0  0  0  0  0  0
   16.5411    2.3540   -2.5743 C   0  0  0  0  0  0  0  0  0  0  0  0
   16.8761    1.0118   -2.3045 C   0  0  0  0  0  0  0  0  0  0  0  0
   17.2421   -0.0543   -2.0786 N   0  0  0  0  0  0  0  0  0  0  0  0
   17.7038    3.1504   -2.5592 C   0  0  0  0  0  0  0  0  0  0  0  0
   18.6888    3.7415   -2.5312 N   0  0  0  0  0  0  0  0  0  0  0  0
  -13.1789    4.2126    4.3453 H   0  0  0  0  0  0  0  0  0  0  0  0
  -11.0340   10.0829    3.8983 H   0  0  0  0  0  0  0  0  0  0  0  0
  -11.3015   12.4080    4.7066 H   0  0  0  0  0  0  0  0  0  0  0  0
  -12.5622   14.0896    6.0284 H   0  0  0  0  0  0  0  0  0  0  0  0
  -15.4174   11.1220    7.1459 H   0  0  0  0  0  0  0  0  0  0  0  0
  -15.1866    8.8265    6.3531 H   0  0  0  0  0  0  0  0  0  0  0  0
   -8.4652    5.3518    0.2470 H   0  0  0  0  0  0  0  0  0  0  0  0
   -7.2716    4.1858   -0.3637 H   0  0  0  0  0  0  0  0  0  0  0  0
   -7.2659    5.4563    2.4242 H   0  0  0  0  0  0  0  0  0  0  0  0
   -6.1791    5.8820    1.0986 H   0  0  0  0  0  0  0  0  0  0  0  0
   -6.0802    4.2811    1.8430 H   0  0  0  0  0  0  0  0  0  0  0  0
  -10.2836    5.6902    2.1411 H   0  0  0  0  0  0  0  0  0  0  0  0
   -6.4197    1.7091   -0.1098 H   0  0  0  0  0  0  0  0  0  0  0  0
   -9.0399   -2.1915   -0.5438 H   0  0  0  0  0  0  0  0  0  0  0  0
  -11.0447   -3.5097    0.0186 H   0  0  0  0  0  0  0  0  0  0  0  0
  -10.9482   -5.2145    1.7900 H   0  0  0  0  0  0  0  0  0  0  0  0
   -9.7813   -6.1389    3.7138 H   0  0  0  0  0  0  0  0  0  0  0  0
   -8.1248   -5.6396    4.0867 H   0  0  0  0  0  0  0  0  0  0  0  0
   -8.9300   -7.5687    1.8561 H   0  0  0  0  0  0  0  0  0  0  0  0
   -8.1808   -8.0217    3.3907 H   0  0  0  0  0  0  0  0  0  0  0  0
   -7.2800   -7.0602    2.2122 H   0  0  0  0  0  0  0  0  0  0  0  0
   -6.8466   -4.2704    2.4750 H   0  0  0  0  0  0  0  0  0  0  0  0
    5.8112   -7.4862   -0.6553 H   0  0  0  0  0  0  0  0  0  0  0  0
    7.0853   -9.5503   -1.0895 H   0  0  0  0  0  0  0  0  0  0  0  0
    8.4774   -9.7441   -3.1097 H   0  0  0  0  0  0  0  0  0  0  0  0
    9.1028   -8.9249   -5.2656 H   0  0  0  0  0  0  0  0  0  0  0  0
    8.3086   -7.4882   -5.9248 H   0  0  0  0  0  0  0  0  0  0  0  0
   10.7616   -7.1342   -5.7574 H   0  0  0  0  0  0  0  0  0  0  0  0
   10.7004   -7.4650   -4.0226 H   0  0  0  0  0  0  0  0  0  0  0  0
    9.8981   -6.0325   -4.6768 H   0  0  0  0  0  0  0  0  0  0  0  0
    7.3048   -5.8142   -4.2877 H   0  0  0  0  0  0  0  0  0  0  0  0
   -2.4672   -0.8127   -1.6213 H   0  0  0  0  0  0  0  0  0  0  0  0
   -0.7637   -1.2013   -1.8195 H   0  0  0  0  0  0  0  0  0  0  0  0
   -2.2081   -0.2294    0.7051 H   0  0  0  0  0  0  0  0  0  0  0  0
   -0.5474   -0.8022    0.7589 H   0  0  0  0  0  0  0  0  0  0  0  0
   -0.9596    0.6334   -0.1925 H   0  0  0  0  0  0  0  0  0  0  0  0
    0.8602   -1.4094   -0.6418 H   0  0  0  0  0  0  0  0  0  0  0  0
    2.5698   -1.7879   -0.7995 H   0  0  0  0  0  0  0  0  0  0  0  0
    2.5022   -1.6870   -3.2169 H   0  0  0  0  0  0  0  0  0  0  0  0
    0.7535   -1.5000   -3.2442 H   0  0  0  0  0  0  0  0  0  0  0  0
    1.7750   -0.2079   -2.5929 H   0  0  0  0  0  0  0  0  0  0  0  0
   12.6134   -4.3049   -1.0913 H   0  0  0  0  0  0  0  0  0  0  0  0
   11.2599   -5.3173   -1.6365 H   0  0  0  0  0  0  0  0  0  0  0  0
   13.4458   -4.1403   -3.4338 H   0  0  0  0  0  0  0  0  0  0  0  0
   12.0943   -5.1242   -3.9970 H   0  0  0  0  0  0  0  0  0  0  0  0
   13.3171   -5.8287   -2.9344 H   0  0  0  0  0  0  0  0  0  0  0  0
    8.7650   -5.1875   -1.9635 H   0  0  0  0  0  0  0  0  0  0  0  0
   13.8140   -1.9213   -2.1665 H   0  0  0  0  0  0  0  0  0  0  0  0
   14.8200    0.1994   -2.4296 H   0  0  0  0  0  0  0  0  0  0  0  0
   11.9194    5.6454   -3.7190 H   0  0  0  0  0  0  0  0  0  0  0  0
   13.3870    7.6643   -3.8786 H   0  0  0  0  0  0  0  0  0  0  0  0
   17.5426    7.4004   -2.3982 H   0  0  0  0  0  0  0  0  0  0  0  0
   17.5855    8.7692   -3.5366 H   0  0  0  0  0  0  0  0  0  0  0  0
   17.7618    7.1048   -4.1449 H   0  0  0  0  0  0  0  0  0  0  0  0
   16.8326    5.2754   -3.0406 H   0  0  0  0  0  0  0  0  0  0  0  0
  1  2  2  0  0  0  0
  2  3  1  0  0  0  0
  3  4  2  0  0  0  0
  3  5  1  0  0  0  0
  5  6  2  0  0  0  0
  6  7  1  0  0  0  0
  7  8  2  0  0  0  0
  8  9  1  0  0  0  0
  9 10  2  0  0  0  0
 10 11  1  0  0  0  0
 10 12  1  0  0  0  0
 12 13  2  0  0  0  0
 13 14  1  0  0  0  0
 14 15  2  0  0  0  0
 15 16  1  0  0  0  0
 16 17  2  0  0  0  0
 17 18  1  0  0  0  0
 18 19  3  0  0  0  0
 17 20  1  0  0  0  0
 20 21  3  0  0  0  0
  1 22  1  0  0  0  0
 22 23  1  0  0  0  0
 23 24  1  0  0  0  0
 24 25  1  0  0  0  0
 25 26  2  0  0  0  0
 26 27  1  0  0  0  0
 27 28  1  0  0  0  0
 28 29  1  0  0  0  0
 27 30  1  0  0  0  0
 30 31  1  0  0  0  0
 26 32  1  0  0  0  0
 32 33  2  0  0  0  0
 33 34  1  0  0  0  0
 33 35  1  0  0  0  0
 35 36  2  0  0  0  0
 36 37  1  0  0  0  0
 37 38  2  0  0  0  0
 38 39  1  0  0  0  0
 39 40  2  0  0  0  0
 40 41  1  0  0  0  0
 41 42  1  0  0  0  0
 42 43  1  0  0  0  0
 41 44  2  0  0  0  0
 36 45  1  0  0  0  0
 45 46  1  0  0  0  0
 46 47  1  0  0  0  0
 47 48  1  0  0  0  0
 48 49  1  0  0  0  0
 49 50  1  0  0  0  0
 50 51  2  0  0  0  0
 51 52  1  0  0  0  0
 52 53  1  0  0  0  0
 50 54  1  0  0  0  0
 54 55  1  0  0  0  0
 55 56  1  0  0  0  0
 56 57  1  0  0  0  0
 57 58  1  0  0  0  0
 58 59  1  0  0  0  0
 59 60  2  0  0  0  0
 60 61  1  0  0  0  0
 61 62  2  0  0  0  0
 62 63  1  0  0  0  0
 63 64  1  0  0  0  0
 64 65  1  0  0  0  0
 63 66  2  0  0  0  0
 58 67  2  0  0  0  0
 67 68  1  0  0  0  0
 68 69  1  0  0  0  0
 69 70  1  0  0  0  0
 70 71  1  0  0  0  0
 71 72  1  0  0  0  0
 72 73  1  0  0  0  0
 73 74  1  0  0  0  0
 74 75  1  0  0  0  0
 75 76  1  0  0  0  0
 76 77  1  0  0  0  0
 74 78  1  0  0  0  0
 78 79  1  0  0  0  0
 71 80  1  0  0  0  0
 80 81  1  0  0  0  0
 67 82  1  0  0  0  0
 82 83  1  0  0  0  0
 83 84  1  0  0  0  0
 84 85  1  0  0  0  0
 85 86  2  0  0  0  0
 86 87  1  0  0  0  0
 87 88  1  0  0  0  0
 88 89  1  0  0  0  0
 87 90  1  0  0  0  0
 90 91  1  0  0  0  0
 86 92  1  0  0  0  0
 92 93  2  0  0  0  0
 93 94  1  0  0  0  0
 93 95  1  0  0  0  0
 95 96  2  0  0  0  0
 96 97  1  0  0  0  0
 97 98  2  0  0  0  0
 97 99  1  0  0  0  0
 99100  2  0  0  0  0
100101  1  0  0  0  0
101102  2  0  0  0  0
102103  1  0  0  0  0
103104  1  0  0  0  0
102105  1  0  0  0  0
105106  2  0  0  0  0
106107  1  0  0  0  0
107108  2  0  0  0  0
108109  1  0  0  0  0
109110  3  0  0  0  0
108111  1  0  0  0  0
111112  3  0  0  0  0
 16  2  1  0  0  0  0
 31 22  2  0  0  0  0
 77 35  1  0  0  0  0
 91 82  2  0  0  0  0
107 96  1  0  0  0  0
 15  5  1  0  0  0  0
 30 24  2  0  0  0  0
 44 37  1  0  0  0  0
 76 45  2  0  0  0  0
 90 84  2  0  0  0  0
106 99  1  0  0  0  0
 13  7  1  0  0  0  0
 34 25  1  0  0  0  0
 75 47  2  0  0  0  0
 94 85  1  0  0  0  0
 73 48  2  0  0  0  0
 53 49  2  0  0  0  0
 72 54  2  0  0  0  0
 70 55  2  0  0  0  0
 69 57  2  0  0  0  0
 66 59  1  0  0  0  0
  1113  1  0  0  0  0
  6114  1  0  0  0  0
  8115  1  0  0  0  0
  9116  1  0  0  0  0
 12117  1  0  0  0  0
 14118  1  0  0  0  0
 28119  1  0  0  0  0
 28120  1  0  0  0  0
 29121  1  0  0  0  0
 29122  1  0  0  0  0
 29123  1  0  0  0  0
 31124  1  0  0  0  0
 32125  1  0  0  0  0
 38126  1  0  0  0  0
 39127  1  0  0  0  0
 40128  1  0  0  0  0
 42129  1  0  0  0  0
 42130  1  0  0  0  0
 43131  1  0  0  0  0
 43132  1  0  0  0  0
 43133  1  0  0  0  0
 44134  1  0  0  0  0
 60135  1  0  0  0  0
 61136  1  0  0  0  0
 62137  1  0  0  0  0
 64138  1  0  0  0  0
 64139  1  0  0  0  0
 65140  1  0  0  0  0
 65141  1  0  0  0  0
 65142  1  0  0  0  0
 66143  1  0  0  0  0
 78144  1  0  0  0  0
 78145  1  0  0  0  0
 79146  1  0  0  0  0
 79147  1  0  0  0  0
 79148  1  0  0  0  0
 80149  1  0  0  0  0
 80150  1  0  0  0  0
 81151  1  0  0  0  0
 81152  1  0  0  0  0
 81153  1  0  0  0  0
 88154  1  0  0  0  0
 88155  1  0  0  0  0
 89156  1  0  0  0  0
 89157  1  0  0  0  0
 89158  1  0  0  0  0
 91159  1  0  0  0  0
 92160  1  0  0  0  0
 95161  1  0  0  0  0
100162  1  0  0  0  0
101163  1  0  0  0  0
104164  1  0  0  0  0
104165  1  0  0  0  0
104166  1  0  0  0  0
105167  1  0  0  0  0
M  END
