
  xtb     02042221153D
 energy: -293.118519727102 gnorm: 0.000727505295 xtb: 6.4.1 (unknown)
169189  0     0  0            999 V2000
    7.0040    1.0903   -6.2129 C   0  0  0  0  0  0  0  0  0  0  0  0
    6.0243    1.0977   -7.1675 C   0  0  0  0  0  0  0  0  0  0  0  0
    6.3834    1.2739   -8.5967 C   0  0  0  0  0  0  0  0  0  0  0  0
    7.4948    1.2359   -9.0773 O   0  0  0  0  0  0  0  0  0  0  0  0
    5.1069    1.5556   -9.2869 C   0  0  0  0  0  0  0  0  0  0  0  0
    4.8864    1.9026  -10.5880 C   0  0  0  0  0  0  0  0  0  0  0  0
    3.5633    2.1491  -11.0214 C   0  0  0  0  0  0  0  0  0  0  0  0
    3.2782    2.5007  -12.3565 C   0  0  0  0  0  0  0  0  0  0  0  0
    1.9949    2.7384  -12.7650 C   0  0  0  0  0  0  0  0  0  0  0  0
    0.9559    2.6295  -11.8315 C   0  0  0  0  0  0  0  0  0  0  0  0
   -0.3027    2.8636  -12.2504 F   0  0  0  0  0  0  0  0  0  0  0  0
    1.1768    2.2952  -10.5246 C   0  0  0  0  0  0  0  0  0  0  0  0
    2.4917    2.0430  -10.0884 C   0  0  0  0  0  0  0  0  0  0  0  0
    2.7499    1.6788   -8.7462 C   0  0  0  0  0  0  0  0  0  0  0  0
    4.0362    1.4268   -8.3566 C   0  0  0  0  0  0  0  0  0  0  0  0
    4.5894    0.9946   -7.0754 C   0  0  0  0  0  0  0  0  0  0  0  0
    3.8802    0.3216   -6.1093 C   0  0  0  0  0  0  0  0  0  0  0  0
    4.4856   -0.3366   -5.0209 C   0  0  0  0  0  0  0  0  0  0  0  0
    4.9479   -0.9306   -4.1533 N   0  0  0  0  0  0  0  0  0  0  0  0
    2.4946    0.0944   -6.1901 C   0  0  0  0  0  0  0  0  0  0  0  0
    1.3669   -0.1241   -6.2286 N   0  0  0  0  0  0  0  0  0  0  0  0
    6.8949    1.3707   -4.8386 C   0  0  0  0  0  0  0  0  0  0  0  0
    5.5793    2.3607   -4.1942 S   0  0  0  0  0  0  0  0  0  0  0  0
    6.2370    2.2246   -2.6130 C   0  0  0  0  0  0  0  0  0  0  0  0
    5.9837    2.5872   -1.2972 C   0  0  0  0  0  0  0  0  0  0  0  0
    6.9943    1.9916   -0.5059 C   0  0  0  0  0  0  0  0  0  0  0  0
    7.8572    1.2950   -1.3060 N   0  0  0  0  0  0  0  0  0  0  0  0
    9.0393    0.5955   -0.8732 C   0  0  0  0  0  0  0  0  0  0  0  0
   10.2452    1.5289   -0.7901 C   0  0  0  0  0  0  0  0  0  0  0  0
    7.4178    1.4351   -2.5976 C   0  0  0  0  0  0  0  0  0  0  0  0
    7.8023    0.9954   -3.8561 C   0  0  0  0  0  0  0  0  0  0  0  0
    6.8311    2.1976    0.8661 C   0  0  0  0  0  0  0  0  0  0  0  0
    5.7079    2.9543    1.1385 C   0  0  0  0  0  0  0  0  0  0  0  0
    4.8502    3.4454   -0.3243 S   0  0  0  0  0  0  0  0  0  0  0  0
    5.0882    3.2375    2.3874 C   0  0  0  0  0  0  0  0  0  0  0  0
    5.3814    2.7583    3.6586 C   0  0  0  0  0  0  0  0  0  0  0  0
    6.6370    2.1380    4.0849 C   0  0  0  0  0  0  0  0  0  0  0  0
    7.8548    2.7658    3.8287 C   0  0  0  0  0  0  0  0  0  0  0  0
    9.0300    2.2020    4.2871 C   0  0  0  0  0  0  0  0  0  0  0  0
    9.0031    1.0194    5.0075 C   0  0  0  0  0  0  0  0  0  0  0  0
    7.7977    0.3854    5.2791 C   0  0  0  0  0  0  0  0  0  0  0  0
    7.7474   -0.8590    6.1166 C   0  0  0  0  0  0  0  0  0  0  0  0
    7.4398   -0.4990    7.5717 C   0  0  0  0  0  0  0  0  0  0  0  0
    6.6212    0.9546    4.8133 C   0  0  0  0  0  0  0  0  0  0  0  0
    4.2989    2.9578    4.5392 C   0  0  0  0  0  0  0  0  0  0  0  0
    3.9427    2.3711    6.1524 S   0  0  0  0  0  0  0  0  0  0  0  0
    2.3234    2.9781    6.0047 C   0  0  0  0  0  0  0  0  0  0  0  0
    1.0668    2.8504    6.6333 C   0  0  0  0  0  0  0  0  0  0  0  0
    0.6271    2.2091    7.8136 C   0  0  0  0  0  0  0  0  0  0  0  0
   -0.7882    2.0573    8.0487 C   0  0  0  0  0  0  0  0  0  0  0  0
   -1.0425    1.4333    9.1868 N   0  0  0  0  0  0  0  0  0  0  0  0
    0.3619    1.0688    9.9047 S   0  0  0  0  0  0  0  0  0  0  0  0
    1.3566    1.6844    8.7844 N   0  0  0  0  0  0  0  0  0  0  0  0
   -1.7025    2.4528    7.0439 C   0  0  0  0  0  0  0  0  0  0  0  0
   -3.0372    2.0844    6.7836 C   0  0  0  0  0  0  0  0  0  0  0  0
   -4.2736    1.0403    7.4195 S   0  0  0  0  0  0  0  0  0  0  0  0
   -5.1387    1.1363    5.8934 C   0  0  0  0  0  0  0  0  0  0  0  0
   -6.2300    0.4264    5.3364 C   0  0  0  0  0  0  0  0  0  0  0  0
   -7.0722   -0.5089    6.0786 C   0  0  0  0  0  0  0  0  0  0  0  0
   -8.4505   -0.5304    5.8675 C   0  0  0  0  0  0  0  0  0  0  0  0
   -9.2471   -1.3969    6.5900 C   0  0  0  0  0  0  0  0  0  0  0  0
   -8.6846   -2.2455    7.5287 C   0  0  0  0  0  0  0  0  0  0  0  0
   -7.3150   -2.2311    7.7605 C   0  0  0  0  0  0  0  0  0  0  0  0
   -6.6934   -3.1732    8.7510 C   0  0  0  0  0  0  0  0  0  0  0  0
   -6.3061   -4.4873    8.0697 C   0  0  0  0  0  0  0  0  0  0  0  0
   -6.5197   -1.3612    7.0297 C   0  0  0  0  0  0  0  0  0  0  0  0
   -6.3978    0.7446    3.9953 C   0  0  0  0  0  0  0  0  0  0  0  0
   -5.3009    2.0106    3.4645 S   0  0  0  0  0  0  0  0  0  0  0  0
   -4.5250    2.0124    5.0002 C   0  0  0  0  0  0  0  0  0  0  0  0
   -3.3347    2.5483    5.5002 C   0  0  0  0  0  0  0  0  0  0  0  0
   -2.2767    3.2388    4.9772 N   0  0  0  0  0  0  0  0  0  0  0  0
   -1.2468    3.1585    5.8959 C   0  0  0  0  0  0  0  0  0  0  0  0
    0.1267    3.4615    5.7621 C   0  0  0  0  0  0  0  0  0  0  0  0
    0.7953    4.0440    4.6983 N   0  0  0  0  0  0  0  0  0  0  0  0
    2.1142    3.6809    4.8144 C   0  0  0  0  0  0  0  0  0  0  0  0
    3.2284    3.6523    3.9740 C   0  0  0  0  0  0  0  0  0  0  0  0
    3.5340    4.0632    2.3282 S   0  0  0  0  0  0  0  0  0  0  0  0
    0.4202    5.2604    4.0061 C   0  0  0  0  0  0  0  0  0  0  0  0
    1.3709    6.4107    4.3344 C   0  0  0  0  0  0  0  0  0  0  0  0
   -2.2271    3.4712    3.5496 C   0  0  0  0  0  0  0  0  0  0  0  0
   -1.4546    2.3723    2.8251 C   0  0  0  0  0  0  0  0  0  0  0  0
   -7.0564    0.0579    2.9321 C   0  0  0  0  0  0  0  0  0  0  0  0
   -6.9703    0.8191    1.3438 S   0  0  0  0  0  0  0  0  0  0  0  0
   -7.4213   -0.6633    0.5989 C   0  0  0  0  0  0  0  0  0  0  0  0
   -7.4458   -1.2622   -0.6551 C   0  0  0  0  0  0  0  0  0  0  0  0
   -7.7801   -2.6249   -0.4349 C   0  0  0  0  0  0  0  0  0  0  0  0
   -7.9624   -2.8465    0.9108 N   0  0  0  0  0  0  0  0  0  0  0  0
   -8.3699   -4.0813    1.5278 C   0  0  0  0  0  0  0  0  0  0  0  0
   -9.8880   -4.1596    1.6774 C   0  0  0  0  0  0  0  0  0  0  0  0
   -7.7212   -1.6585    1.5535 C   0  0  0  0  0  0  0  0  0  0  0  0
   -7.5199   -1.2423    2.8759 C   0  0  0  0  0  0  0  0  0  0  0  0
   -7.6922   -3.3838   -1.5894 C   0  0  0  0  0  0  0  0  0  0  0  0
   -7.2332   -2.6356   -2.6794 C   0  0  0  0  0  0  0  0  0  0  0  0
   -6.9991   -0.9339   -2.2802 S   0  0  0  0  0  0  0  0  0  0  0  0
   -6.8757   -3.2426   -3.8950 C   0  0  0  0  0  0  0  0  0  0  0  0
   -6.1344   -2.7486   -4.9371 C   0  0  0  0  0  0  0  0  0  0  0  0
   -5.5728   -1.3915   -5.0312 C   0  0  0  0  0  0  0  0  0  0  0  0
   -5.8868   -0.4132   -4.3766 O   0  0  0  0  0  0  0  0  0  0  0  0
   -4.5517   -1.4501   -6.0869 C   0  0  0  0  0  0  0  0  0  0  0  0
   -3.6398   -0.4891   -6.4702 C   0  0  0  0  0  0  0  0  0  0  0  0
   -2.7014   -0.7899   -7.4529 C   0  0  0  0  0  0  0  0  0  0  0  0
   -1.6791    0.2282   -7.8415 C   0  0  0  0  0  0  0  0  0  0  0  0
   -2.7075   -2.0609   -8.0480 C   0  0  0  0  0  0  0  0  0  0  0  0
   -1.6882   -2.4035   -9.0875 C   0  0  0  0  0  0  0  0  0  0  0  0
   -3.6470   -3.0179   -7.6710 C   0  0  0  0  0  0  0  0  0  0  0  0
   -4.5716   -2.7222   -6.6837 C   0  0  0  0  0  0  0  0  0  0  0  0
   -5.6119   -3.5246   -6.0465 C   0  0  0  0  0  0  0  0  0  0  0  0
   -6.0182   -4.7705   -6.4514 C   0  0  0  0  0  0  0  0  0  0  0  0
   -5.4734   -5.4533   -7.5578 C   0  0  0  0  0  0  0  0  0  0  0  0
   -5.0762   -6.0605   -8.4482 N   0  0  0  0  0  0  0  0  0  0  0  0
   -7.0459   -5.5260   -5.8524 C   0  0  0  0  0  0  0  0  0  0  0  0
   -7.8686   -6.2012   -5.4182 N   0  0  0  0  0  0  0  0  0  0  0  0
    8.0101    0.9187   -6.5844 H   0  0  0  0  0  0  0  0  0  0  0  0
    5.7098    1.9863  -11.2814 H   0  0  0  0  0  0  0  0  0  0  0  0
    4.0954    2.5791  -13.0577 H   0  0  0  0  0  0  0  0  0  0  0  0
    1.7608    3.0070  -13.7828 H   0  0  0  0  0  0  0  0  0  0  0  0
    0.3531    2.2203   -9.8318 H   0  0  0  0  0  0  0  0  0  0  0  0
    1.9228    1.6196   -8.0566 H   0  0  0  0  0  0  0  0  0  0  0  0
    9.2339   -0.2131   -1.5819 H   0  0  0  0  0  0  0  0  0  0  0  0
    8.8367    0.1573    0.1080 H   0  0  0  0  0  0  0  0  0  0  0  0
   11.1214    0.9760   -0.4637 H   0  0  0  0  0  0  0  0  0  0  0  0
   10.4512    1.9692   -1.7629 H   0  0  0  0  0  0  0  0  0  0  0  0
   10.0526    2.3300   -0.0803 H   0  0  0  0  0  0  0  0  0  0  0  0
    8.6631    0.3898   -4.0744 H   0  0  0  0  0  0  0  0  0  0  0  0
    7.4691    1.7943    1.6292 H   0  0  0  0  0  0  0  0  0  0  0  0
    7.8689    3.6989    3.2841 H   0  0  0  0  0  0  0  0  0  0  0  0
    9.9726    2.6913    4.0890 H   0  0  0  0  0  0  0  0  0  0  0  0
    9.9264    0.5882    5.3665 H   0  0  0  0  0  0  0  0  0  0  0  0
    6.9702   -1.5273    5.7406 H   0  0  0  0  0  0  0  0  0  0  0  0
    8.7042   -1.3822    6.0664 H   0  0  0  0  0  0  0  0  0  0  0  0
    7.3975   -1.3963    8.1843 H   0  0  0  0  0  0  0  0  0  0  0  0
    6.4840    0.0155    7.6402 H   0  0  0  0  0  0  0  0  0  0  0  0
    8.2106    0.1576    7.9693 H   0  0  0  0  0  0  0  0  0  0  0  0
    5.6789    0.4654    5.0105 H   0  0  0  0  0  0  0  0  0  0  0  0
   -8.8898    0.1437    5.1472 H   0  0  0  0  0  0  0  0  0  0  0  0
  -10.3148   -1.4067    6.4259 H   0  0  0  0  0  0  0  0  0  0  0  0
   -9.3148   -2.9182    8.0924 H   0  0  0  0  0  0  0  0  0  0  0  0
   -7.3995   -3.3804    9.5573 H   0  0  0  0  0  0  0  0  0  0  0  0
   -5.8022   -2.7157    9.1843 H   0  0  0  0  0  0  0  0  0  0  0  0
   -7.1842   -4.9658    7.6410 H   0  0  0  0  0  0  0  0  0  0  0  0
   -5.8552   -5.1689    8.7869 H   0  0  0  0  0  0  0  0  0  0  0  0
   -5.5917   -4.3027    7.2703 H   0  0  0  0  0  0  0  0  0  0  0  0
   -5.4528   -1.3528    7.1961 H   0  0  0  0  0  0  0  0  0  0  0  0
    0.4214    5.0832    2.9249 H   0  0  0  0  0  0  0  0  0  0  0  0
   -0.5784    5.5416    4.3410 H   0  0  0  0  0  0  0  0  0  0  0  0
    2.3673    6.2187    3.9472 H   0  0  0  0  0  0  0  0  0  0  0  0
    0.9979    7.3255    3.8817 H   0  0  0  0  0  0  0  0  0  0  0  0
    1.4339    6.5541    5.4110 H   0  0  0  0  0  0  0  0  0  0  0  0
   -3.2619    3.4774    3.1998 H   0  0  0  0  0  0  0  0  0  0  0  0
   -1.8034    4.4471    3.3255 H   0  0  0  0  0  0  0  0  0  0  0  0
   -0.4189    2.3428    3.1537 H   0  0  0  0  0  0  0  0  0  0  0  0
   -1.4783    2.5530    1.7544 H   0  0  0  0  0  0  0  0  0  0  0  0
   -1.9092    1.4043    3.0229 H   0  0  0  0  0  0  0  0  0  0  0  0
   -7.8928   -4.1484    2.5098 H   0  0  0  0  0  0  0  0  0  0  0  0
   -8.0102   -4.9069    0.9083 H   0  0  0  0  0  0  0  0  0  0  0  0
  -10.1691   -5.1001    2.1428 H   0  0  0  0  0  0  0  0  0  0  0  0
  -10.2473   -3.3408    2.2966 H   0  0  0  0  0  0  0  0  0  0  0  0
  -10.3661   -4.0941    0.7029 H   0  0  0  0  0  0  0  0  0  0  0  0
   -7.6286   -1.8620    3.7468 H   0  0  0  0  0  0  0  0  0  0  0  0
   -7.8907   -4.4381   -1.6668 H   0  0  0  0  0  0  0  0  0  0  0  0
   -7.1445   -4.2917   -3.9428 H   0  0  0  0  0  0  0  0  0  0  0  0
   -3.6510    0.4792   -5.9924 H   0  0  0  0  0  0  0  0  0  0  0  0
   -1.6278    0.3352   -8.9240 H   0  0  0  0  0  0  0  0  0  0  0  0
   -0.6950   -0.0787   -7.4847 H   0  0  0  0  0  0  0  0  0  0  0  0
   -1.9158    1.1934   -7.4009 H   0  0  0  0  0  0  0  0  0  0  0  0
   -0.6829   -2.2538   -8.6953 H   0  0  0  0  0  0  0  0  0  0  0  0
   -1.7921   -3.4377   -9.4045 H   0  0  0  0  0  0  0  0  0  0  0  0
   -1.8015   -1.7617   -9.9611 H   0  0  0  0  0  0  0  0  0  0  0  0
   -3.6273   -3.9878   -8.1424 H   0  0  0  0  0  0  0  0  0  0  0  0
  1  2  2  0  0  0  0
  2  3  1  0  0  0  0
  3  4  2  0  0  0  0
  3  5  1  0  0  0  0
  5  6  2  0  0  0  0
  6  7  1  0  0  0  0
  7  8  2  0  0  0  0
  8  9  1  0  0  0  0
  9 10  2  0  0  0  0
 10 11  1  0  0  0  0
 10 12  1  0  0  0  0
 12 13  2  0  0  0  0
 13 14  1  0  0  0  0
 14 15  2  0  0  0  0
 15 16  1  0  0  0  0
 16 17  2  0  0  0  0
 17 18  1  0  0  0  0
 18 19  3  0  0  0  0
 17 20  1  0  0  0  0
 20 21  3  0  0  0  0
  1 22  1  0  0  0  0
 22 23  1  0  0  0  0
 23 24  1  0  0  0  0
 24 25  1  0  0  0  0
 25 26  2  0  0  0  0
 26 27  1  0  0  0  0
 27 28  1  0  0  0  0
 28 29  1  0  0  0  0
 27 30  1  0  0  0  0
 30 31  1  0  0  0  0
 26 32  1  0  0  0  0
 32 33  2  0  0  0  0
 33 34  1  0  0  0  0
 33 35  1  0  0  0  0
 35 36  2  0  0  0  0
 36 37  1  0  0  0  0
 37 38  2  0  0  0  0
 38 39  1  0  0  0  0
 39 40  2  0  0  0  0
 40 41  1  0  0  0  0
 41 42  1  0  0  0  0
 42 43  1  0  0  0  0
 41 44  2  0  0  0  0
 36 45  1  0  0  0  0
 45 46  1  0  0  0  0
 46 47  1  0  0  0  0
 47 48  1  0  0  0  0
 48 49  1  0  0  0  0
 49 50  1  0  0  0  0
 50 51  2  0  0  0  0
 51 52  1  0  0  0  0
 52 53  1  0  0  0  0
 50 54  1  0  0  0  0
 54 55  1  0  0  0  0
 55 56  1  0  0  0  0
 56 57  1  0  0  0  0
 57 58  1  0  0  0  0
 58 59  1  0  0  0  0
 59 60  2  0  0  0  0
 60 61  1  0  0  0  0
 61 62  2  0  0  0  0
 62 63  1  0  0  0  0
 63 64  1  0  0  0  0
 64 65  1  0  0  0  0
 63 66  2  0  0  0  0
 58 67  2  0  0  0  0
 67 68  1  0  0  0  0
 68 69  1  0  0  0  0
 69 70  1  0  0  0  0
 70 71  1  0  0  0  0
 71 72  1  0  0  0  0
 72 73  1  0  0  0  0
 73 74  1  0  0  0  0
 74 75  1  0  0  0  0
 75 76  1  0  0  0  0
 76 77  1  0  0  0  0
 74 78  1  0  0  0  0
 78 79  1  0  0  0  0
 71 80  1  0  0  0  0
 80 81  1  0  0  0  0
 67 82  1  0  0  0  0
 82 83  1  0  0  0  0
 83 84  1  0  0  0  0
 84 85  1  0  0  0  0
 85 86  2  0  0  0  0
 86 87  1  0  0  0  0
 87 88  1  0  0  0  0
 88 89  1  0  0  0  0
 87 90  1  0  0  0  0
 90 91  1  0  0  0  0
 86 92  1  0  0  0  0
 92 93  2  0  0  0  0
 93 94  1  0  0  0  0
 93 95  1  0  0  0  0
 95 96  2  0  0  0  0
 96 97  1  0  0  0  0
 97 98  2  0  0  0  0
 97 99  1  0  0  0  0
 99100  2  0  0  0  0
100101  1  0  0  0  0
101102  1  0  0  0  0
101103  2  0  0  0  0
103104  1  0  0  0  0
103105  1  0  0  0  0
105106  2  0  0  0  0
106107  1  0  0  0  0
107108  2  0  0  0  0
108109  1  0  0  0  0
109110  3  0  0  0  0
108111  1  0  0  0  0
111112  3  0  0  0  0
 16  2  1  0  0  0  0
 31 22  2  0  0  0  0
 77 35  1  0  0  0  0
 91 82  2  0  0  0  0
107 96  1  0  0  0  0
 15  5  1  0  0  0  0
 30 24  2  0  0  0  0
 44 37  1  0  0  0  0
 76 45  2  0  0  0  0
 90 84  2  0  0  0  0
106 99  1  0  0  0  0
 13  7  1  0  0  0  0
 34 25  1  0  0  0  0
 75 47  2  0  0  0  0
 94 85  1  0  0  0  0
 73 48  2  0  0  0  0
 53 49  2  0  0  0  0
 72 54  2  0  0  0  0
 70 55  2  0  0  0  0
 69 57  2  0  0  0  0
 66 59  1  0  0  0  0
  1113  1  0  0  0  0
  6114  1  0  0  0  0
  8115  1  0  0  0  0
  9116  1  0  0  0  0
 12117  1  0  0  0  0
 14118  1  0  0  0  0
 28119  1  0  0  0  0
 28120  1  0  0  0  0
 29121  1  0  0  0  0
 29122  1  0  0  0  0
 29123  1  0  0  0  0
 31124  1  0  0  0  0
 32125  1  0  0  0  0
 38126  1  0  0  0  0
 39127  1  0  0  0  0
 40128  1  0  0  0  0
 42129  1  0  0  0  0
 42130  1  0  0  0  0
 43131  1  0  0  0  0
 43132  1  0  0  0  0
 43133  1  0  0  0  0
 44134  1  0  0  0  0
 60135  1  0  0  0  0
 61136  1  0  0  0  0
 62137  1  0  0  0  0
 64138  1  0  0  0  0
 64139  1  0  0  0  0
 65140  1  0  0  0  0
 65141  1  0  0  0  0
 65142  1  0  0  0  0
 66143  1  0  0  0  0
 78144  1  0  0  0  0
 78145  1  0  0  0  0
 79146  1  0  0  0  0
 79147  1  0  0  0  0
 79148  1  0  0  0  0
 80149  1  0  0  0  0
 80150  1  0  0  0  0
 81151  1  0  0  0  0
 81152  1  0  0  0  0
 81153  1  0  0  0  0
 88154  1  0  0  0  0
 88155  1  0  0  0  0
 89156  1  0  0  0  0
 89157  1  0  0  0  0
 89158  1  0  0  0  0
 91159  1  0  0  0  0
 92160  1  0  0  0  0
 95161  1  0  0  0  0
100162  1  0  0  0  0
102163  1  0  0  0  0
102164  1  0  0  0  0
102165  1  0  0  0  0
104166  1  0  0  0  0
104167  1  0  0  0  0
104168  1  0  0  0  0
105169  1  0  0  0  0
M  END
