202

C          4.31190        9.86270       -0.05510
C          3.46460       10.94680       -0.06060
C          2.33600       11.14290       -0.97400
O          2.01860       10.45030       -1.92580
C          1.64410       12.36040       -0.51550
C          0.50900       12.93550       -1.00680
C          0.00220       14.09830       -0.38380
C         -1.17220       14.72890       -0.84160
C         -1.65720       15.84860       -0.22440
C         -0.96570       16.36700        0.87820
F         -1.45900       17.46930        1.47420
C          0.17850       15.79560        1.36150
C          0.69160       14.64160        0.73840
C          1.87120       14.02520        1.21980
C          2.34230       12.89820        0.60200
C          3.49830       12.04600        0.87900
C          4.42900       12.28020        1.86210
C          5.55550       11.48110        2.14060
N          6.49540       10.88760        2.43420
C          4.38910       13.38130        2.74130
N          4.41930       14.25210        3.48970
C          4.31730        8.70470       -0.83800
S          3.22920        8.33940       -2.18120
C          3.94000        6.78000       -2.32940
C          3.79870        5.58350       -3.02570
C          4.73110        4.66900       -2.48250
N          5.44630        5.27400       -1.48550
C          6.54220        4.70140       -0.74790
C          7.87820        4.95050       -1.44480
C          4.97850        6.56090       -1.37960
C          5.19700        7.64860       -0.56070
C          4.62770        3.38340       -3.01660
C          3.63080        3.30820       -3.96790
S          2.82520        4.84680       -4.24700
C          3.11390        2.13780       -4.58240
S          3.49640        0.56250       -3.93420
C          2.29130       -0.17410       -4.94500
C          1.77780       -1.48870       -4.73380
C          0.47680       -1.74930       -5.27920
C         -0.25120       -2.85410       -4.78330
C         -1.51450       -3.12350       -5.32920
C         -2.03960       -2.31710       -6.30770
C         -1.33730       -1.20220       -6.75960
C         -0.08990       -0.90420       -6.25410
C          0.68050        0.28880       -6.79450
C          1.69230        0.74720       -5.77630
C          2.16050        2.05070       -5.57220
C         -0.29760        1.41080       -7.09940
C         -0.89060        2.08370       -6.03670
C         -1.79400        3.10340       -6.26260
C         -2.14370        3.47040       -7.55610
C         -3.08360        4.61450       -7.80380
C         -2.30490        5.92620       -7.92380
C         -1.56880        2.78020       -8.61390
C         -0.66000        1.76070       -8.39200
C          1.50410       -0.10920       -8.01910
C          2.30410        0.84900       -8.63400
C          3.08040        0.52570       -9.72870
C          3.08820       -0.76610      -10.24060
C          3.96730       -1.12590      -11.40350
C          5.36230       -1.52370      -10.91710
C          2.29810       -1.72150       -9.61880
C          1.51560       -1.40120       -8.52280
C          0.31790       -3.65710       -3.73190
C         -0.48450       -4.45670       -2.90110
C          0.04710       -5.14810       -1.83990
C         -0.73900       -5.64380       -0.75710
C         -0.20930       -6.35090        0.30030
C          1.15870       -6.96970        0.17290
C          1.80600       -7.09410        1.54160
C          1.81570       -5.98160        2.37600
C          2.40200       -6.04090        3.62480
C          3.00480       -7.20980        4.07280
C          3.67830       -7.26200        5.41370
C          5.14330       -6.83780        5.29190
C          3.01620       -8.31010        3.22730
C          2.42680       -8.25600        1.97660
C          0.91560       -8.33100       -0.47890
C          0.09650       -9.25150        0.16750
C         -0.16860      -10.48250       -0.39850
C          0.37040      -10.83150       -1.63070
C          0.04410      -12.15220       -2.26630
C         -1.23110      -12.04170       -3.10450
C          1.17870       -9.90810       -2.27700
C          1.44950       -8.67370       -1.71210
C          2.03690       -6.10040       -0.71130
C          3.40920       -6.17960       -0.60710
C          4.23020       -5.42270       -1.44000
C          3.68720       -4.56110       -2.36000
C          2.29630       -4.44510       -2.49590
C          1.68950       -3.52760       -3.42550
C          2.38720       -2.41370       -3.92150
C          1.46920       -5.25130       -1.68220
C         -1.08250       -6.43530        1.39160
C         -2.28230       -5.79430        1.17880
S         -2.36480       -5.12670       -0.43230
C         -3.29620       -5.49350        2.12590
S         -2.93260       -5.63140        3.84150
C         -4.43040       -4.86210        4.22520
C         -5.13920       -4.35000        5.30820
C         -6.32420       -3.77600        4.76500
N         -6.35140       -3.95690        3.40340
C         -7.31960       -3.40410        2.49150
C         -6.94440       -1.98700        2.06230
C         -5.18160       -4.57850        3.06100
C         -4.53170       -4.93130        1.87720
C         -7.10600       -3.15460        5.71540
C         -6.52960       -3.20920        6.99260
S         -5.00330       -4.09940        7.00460
C         -7.11720       -2.55180        8.07690
C         -6.67000       -2.36460        9.36470
C         -5.41400       -2.88030        9.91530
O         -4.61380       -3.62470        9.37500
C         -5.29920       -2.31670       11.27210
C         -4.28680       -2.45900       12.17510
C         -4.37590       -1.79390       13.41890
C         -3.35460       -1.89450       14.38480
C         -3.44820       -1.23740       15.58040
C         -4.58310       -0.45710       15.83710
F         -4.65710        0.18420       17.01900
C         -5.60330       -0.32760       14.93610
C         -5.52250       -0.99620       13.69930
C         -6.56000       -0.87510       12.74430
C         -6.45030       -1.52540       11.54480
C         -7.32930       -1.56910       10.37680
C         -8.55390       -0.95200       10.29230
C         -9.42030       -0.98290        9.18170
N        -10.18440       -0.95520        8.32300
C         -9.12860       -0.19100       11.33040
N         -9.65750        0.44190       12.12990
H          5.08330        9.86010        0.70550
H          0.00010       12.50530       -1.85640
H         -1.68750       14.30970       -1.69280
H         -2.55510       16.34220       -0.56100
H          0.68470       16.22250        2.21320
H          2.36620       14.46180        2.07200
H          6.36300        3.62750       -0.64920
H          6.55080        5.14610        0.25070
H          7.87440        4.50620       -2.43750
H          8.05820        6.01830       -1.54350
H          8.68710        4.51150       -0.86770
H          5.92770        7.70910        0.22600
H          5.21550        2.53100       -2.72750
H         -2.06700       -3.99000       -5.00110
H         -3.00590       -2.54250       -6.73400
H         -1.77230       -0.57300       -7.52140
H          1.78880        2.91970       -6.08640
H         -0.63960        1.80450       -5.02290
H         -2.23670        3.62000       -5.42290
H         -3.64280        4.44220       -8.72590
H         -3.79670        4.69330       -6.98070
H         -2.98310        6.75660       -8.10540
H         -1.59560        5.87060       -8.74670
H         -1.75140        6.12290       -7.00840
H         -1.83690        3.04000       -9.62840
H         -0.23420        1.23520       -9.23440
H          2.31200        1.86110       -8.25720
H          3.68840        1.28820      -10.19490
H          3.52790       -1.95870      -11.95630
H          4.05260       -0.27320      -12.08040
H          5.82210       -0.70140      -10.37330
H          5.29970       -2.38110      -10.25050
H          5.99970       -1.78330      -11.75910
H          2.28860       -2.73410       -9.99690
H          0.90940       -2.16960       -8.06710
H         -1.55800       -4.44310       -3.01550
H          1.35690       -5.06150        2.04180
H          2.38960       -5.16850        4.26230
H          3.16700       -6.59500        6.11060
H          3.62980       -8.27690        5.81350
H          5.21210       -5.82280        4.90660
H          5.67290       -7.49880        4.60930
H          5.63300       -6.87550        6.26220
H          3.49080       -9.22590        3.55060
H          2.45400       -9.12680        1.33790
H         -0.33120       -9.00520        1.12810
H         -0.80240      -11.18430        0.12510
H          0.86950      -12.46870       -2.90720
H         -0.09870      -12.90980       -1.49300
H         -1.46810      -12.99780       -3.56540
H         -1.10430      -11.29900       -3.88920
H         -2.06900      -11.73920       -2.48030
H          1.60850      -10.15540       -3.23740
H          2.08650       -7.98150       -2.24200
H          3.85500       -6.84260        0.11910
H          5.30260       -5.51810       -1.35490
H          4.33850       -3.99240       -3.00510
H          3.38690       -2.20580       -3.57080
H         -0.84220       -6.90330        2.33020
H         -8.29260       -3.40160        2.98930
H         -7.37710       -4.05900        1.61790
H         -6.89050       -1.33240        2.92900
H         -5.97610       -1.98650        1.56720
H         -7.68940       -1.59640        1.37510
H         -4.90470       -4.77240        0.88160
H         -8.03820       -2.65010        5.53350
H         -8.05930       -2.08080        7.82310
H         -3.42490       -3.06600       11.94130
H         -2.48960       -2.50150       14.16340
H         -2.67480       -1.30200       16.32930
H         -6.46260        0.28220       15.16770
H         -7.41240       -0.26220       12.98870
