163

C         10.26290       -8.46600        4.27060
C         10.04380       -9.81620        4.16540
C         11.17770      -10.73000        4.45900
O         12.23870      -10.43050        4.96110
C         10.75460      -12.05590        3.96650
C         11.46180      -13.22110        3.91240
C         10.85090      -14.37380        3.36800
C         11.53240      -15.60560        3.29600
C         10.93300      -16.71280        2.76230
C          9.62120      -16.60760        2.28190
F          9.04750      -17.70720        1.75750
C          8.91510      -15.43790        2.32800
C          9.51570      -14.28910        2.87830
C          8.80440      -13.06830        2.95520
C          9.41180      -11.97080        3.50130
C          8.91990      -10.61540        3.75300
C          7.58670      -10.28200        3.81300
C          7.08230       -9.06980        4.31560
N          6.58960       -8.11610        4.72610
C          6.53870      -11.14420        3.43620
N          5.63670      -11.77650        3.10990
C          9.55240       -7.38410        3.73410
S          9.91340       -5.76540        4.35320
C          8.72500       -5.08580        3.31930
C          8.09670       -3.88290        3.01410
C          7.13170       -4.16890        2.02020
N          7.17740       -5.49510        1.68920
C          6.20970       -6.20780        0.89390
C          5.01440       -6.64390        1.73870
C          8.12130       -6.07600        2.49660
C          8.59160       -7.35730        2.72800
C          6.38620       -3.05490        1.63680
C          6.77030       -1.91690        2.32040
S          8.08140       -2.21150        3.45500
C          6.12820       -0.65240        2.22040
C          6.45200        0.57130        2.77980
C          7.68870        0.88010        3.50250
C          7.62910        1.48040        4.75580
C          8.79820        1.78400        5.42730
C         10.02560        1.49720        4.85680
C         10.10270        0.91610        3.59720
C         11.43000        0.55870        2.99400
C         11.80800       -0.87540        3.37100
C          8.92700        0.61740        2.92620
C          5.44020        1.52480        2.55160
S          5.26570        3.20070        3.01570
C          3.73090        3.24300        2.21330
C          2.65490        4.12830        2.00700
C          2.34500        5.41400        2.50720
C          1.04320        5.97720        2.24760
N          0.87160        7.14250        2.85120
S          2.22220        7.50870        3.66370
N          3.08230        6.19210        3.28330
C          0.15780        5.30180        1.37670
C         -1.10500        5.61720        0.83920
S         -2.33720        6.82350        1.00100
C         -3.29500        5.97270       -0.18630
C         -4.56740        6.21970       -0.73570
C         -5.36210        7.40580       -0.40380
C         -5.78480        8.27400       -1.40660
C         -6.49800        9.40950       -1.07460
C         -6.79400        9.68440        0.24900
C         -6.36910        8.83410        1.26200
C         -6.72710        9.10690        2.69390
C         -8.05970        8.44020        3.04170
C         -5.64810        7.69880        0.92380
C         -4.92670        5.23740       -1.64030
S         -3.66250        4.02350       -1.84420
C         -2.66920        4.82740       -0.68190
C         -1.41770        4.62120       -0.09330
N         -0.41130        3.68740       -0.14540
C          0.54240        4.07540        0.77870
C          1.70860        3.42040        1.22370
N          2.15540        2.12890        1.00570
C          3.38630        2.02960        1.60770
C          4.36150        1.04800        1.80520
S          4.58160       -0.60740        1.37040
C          1.32200        0.95120        0.86510
C          1.05830        0.29440        2.22000
C         -0.16130        2.93780       -1.36020
C          0.02070        3.86820       -2.55920
C         -6.16550        5.02180       -2.30330
S         -7.62690        5.85610       -1.79140
C         -8.55030        4.94560       -2.93390
C         -9.85360        4.76960       -3.38450
C         -9.79960        3.76900       -4.39630
N         -8.49980        3.36620       -4.57530
C         -8.06070        2.30160       -5.44070
C         -8.15200        0.94330       -4.74920
C         -7.73720        4.05600       -3.67580
C         -6.39150        4.10150       -3.30800
C        -11.03160        3.44420       -4.93540
C        -12.06030        4.17970       -4.35530
S        -11.45810        5.31320       -3.12260
C        -13.44630        4.18400       -4.55470
C        -14.26510        3.41640       -5.35140
C        -13.90740        2.28120       -6.22440
O        -12.80920        1.83090       -6.49430
C        -15.18520        1.75160       -6.73940
C        -15.39370        0.67160       -7.57570
C        -16.69370        0.34700       -7.92770
C        -17.74920        1.10630       -7.43680
Cl       -19.36070        0.68680       -7.88120
C        -17.55160        2.19720       -6.59570
C        -16.25110        2.52000       -6.24660
C        -15.70620        3.58470       -5.40170
C        -16.46140        4.56420       -4.80870
C        -15.98960        5.64270       -4.03010
N        -15.71410        6.56110       -3.39670
C        -17.86670        4.65020       -4.90890
N        -19.00590        4.78940       -4.94110
H         11.17150       -8.20950        4.80830
H         12.47510      -13.26530        4.28230
H         12.54270      -15.66170        3.67250
H         11.44030      -17.66250        2.70110
H          7.90450      -15.39480        1.95290
H          7.79680      -13.03430        2.57240
H          5.88510       -5.55190        0.08180
H          6.70460       -7.08030        0.45940
H          4.32800       -7.23580        1.13990
H          5.34870       -7.24080        2.58470
H          4.48690       -5.77370        2.12190
H          8.29500       -8.23190        2.17830
H          5.59590       -3.05460        0.90780
H          6.67010        1.69400        5.20340
H          8.75100        2.24550        6.40240
H         10.93500        1.73250        5.39060
H         11.37920        0.64440        1.90660
H         12.20000        1.24250        3.35600
H         11.87420       -0.97720        4.45160
H         11.05480       -1.57270        3.01110
H         12.76820       -1.14300        2.93640
H          8.97060        0.18400        1.93670
H         -5.54150        8.06070       -2.43730
H         -6.82290       10.08500       -1.85190
H         -7.35520       10.57270        0.50040
H         -6.80940       10.18330        2.85640
H         -5.94630        8.71970        3.35130
H         -8.85030        8.81520        2.39560
H         -8.32890        8.64410        4.07540
H         -7.99110        7.36320        2.90560
H         -5.31170        7.02590        1.69970
H          1.83060        0.24490        0.20130
H          0.36640        1.23670        0.43070
H          1.98150       -0.06200        2.66780
H          0.38880       -0.55130        2.09040
H          0.59430        1.00820        2.89730
H          0.75150        2.35730       -1.23540
H         -1.00590        2.26410       -1.53920
H         -0.88710        4.43050       -2.75820
H          0.26340        3.28130       -3.44070
H          0.83150        4.56850       -2.37040
H         -8.69100        2.30890       -6.33350
H         -7.02880        2.50730       -5.73750
H         -7.80850        0.16110       -5.42010
H         -9.18130        0.73450       -4.46820
H         -7.53650        0.93260       -3.85250
H         -5.60630        3.50200       -3.73250
H        -11.21530        2.71240       -5.69970
H        -13.95120        4.92320       -3.94450
H        -14.55440        0.09980       -7.94040
H        -16.89620       -0.48930       -8.57790
H        -18.40080        2.75530       -6.23880
