159

C        -12.99930        2.85490       -1.39060
C        -14.22520        2.44960       -0.91550
C        -14.52510        1.44860        0.12720
O        -13.76960        0.89770        0.90690
C        -15.97780        1.20480        0.04460
C        -16.72960        0.31780        0.75860
C        -18.11650        0.23060        0.50500
C        -18.94130       -0.66960        1.20940
C        -20.28130       -0.74820        0.94960
C        -20.83040        0.08490       -0.03410
F        -22.15180       -0.00740       -0.27640
C        -20.07610        0.97570       -0.74550
C        -18.69410        1.07040       -0.49070
C        -17.88830        1.98420       -1.21000
C        -16.54710        2.05280       -0.94370
C        -15.48070        2.87830       -1.50450
C        -15.67700        3.91590       -2.38110
C        -16.93570        4.27500       -2.90570
N        -17.92580        4.61870       -3.37560
C        -14.68920        4.80340       -2.85680
N        -13.96260        5.58750       -3.27810
C        -11.69610        2.56740       -0.96500
S        -10.39030        3.15630       -2.01930
C         -9.21680        2.47230       -0.97230
C         -7.84610        2.29070       -0.83160
C         -7.64840        1.56190        0.36600
N         -8.85110        1.31750        0.96510
C         -9.08120        0.53130        2.15030
C         -9.35850       -0.93090        1.80900
C         -9.82310        1.84330        0.15170
C        -11.20580        1.89990        0.15210
C         -6.30730        1.27280        0.62650
C         -5.47880        1.77120       -0.35770
S         -6.35000        2.62540       -1.62580
C         -4.07110        1.62750       -0.44850
C         -3.23640        2.09990       -1.44390
C         -1.90610        1.73340       -1.24370
C         -0.59140        1.87920       -1.96680
C         -0.61000        1.14250       -3.32410
C         -1.48420        1.76210       -4.40520
C         -0.09080        3.33830       -2.07660
C         -1.17380        4.39830       -2.24080
C          0.33300        1.10100       -1.03960
C         -0.37220        0.58070        0.06830
C         -1.73230        0.98190       -0.09180
S         -3.19450        0.72070        0.76770
C          0.25090       -0.18050        1.05420
C          1.59740       -0.41770        0.91090
C          2.50990       -1.24410        1.80210
C          2.56490       -0.70060        3.23790
C          2.92340        0.78010        3.28770
C          2.01350       -2.70650        1.76170
C          2.91020       -3.71450        2.46850
C          3.82480       -1.08750        1.08890
C          3.66020       -0.32620       -0.06040
C          2.30440        0.10140       -0.19880
C          1.68130        0.86920       -1.17970
S          5.11870       -0.13020       -0.93820
C          5.97450       -1.09010        0.25720
C          5.13480       -1.50760        1.27990
C          7.35070       -1.36970        0.07360
C          8.13840       -2.27590        0.79770
C          7.66030       -3.13890        1.89710
C          7.87490       -2.76770        3.22510
C          7.45480       -3.61570        4.24020
C          6.83010       -4.82180        3.96480
C          6.36380       -5.72010        5.07470
C          4.90590       -5.42760        5.43320
C          6.60380       -5.16190        2.63880
C          7.00590       -4.33780        1.59930
C          6.76140       -4.76200        0.17750
C          7.96380       -5.52300       -0.38280
C          8.56050       -1.47610        3.57720
C         10.04260       -1.70280        3.87790
C          9.43580       -2.31340        0.31980
C          9.68850       -1.46640       -0.76400
S          8.24300       -0.58450       -1.18870
C         10.94040       -1.40640       -1.38310
C         11.35960       -0.67310       -2.46870
C         10.52980        0.26510       -3.22800
O          9.36360        0.56010       -3.02530
C         11.38610        0.79580       -4.30200
C         11.07410        1.69560       -5.27860
C         12.06420        2.06130       -6.21800
C         11.79730        2.98220       -7.25100
C         12.76410        3.32670       -8.15460
C         14.03520        2.74890       -8.03970
F         14.97420        3.10020       -8.93820
C         14.34670        1.85100       -7.05670
C         13.36280        1.48380       -6.11850
C         13.65530        0.55370       -5.09260
C         12.67940        0.21110       -4.19600
C         12.68090       -0.70690       -3.05760
C         13.75760       -1.45770       -2.65390
C         13.78110       -2.34910       -1.56260
N         13.89120       -3.09160       -0.69190
C         15.01470       -1.44240       -3.29190
N         16.06070       -1.47980       -3.76440
H        -13.02410        3.48350       -2.27330
H        -16.27110       -0.31220        1.50630
H        -18.49460       -1.30150        1.96240
H        -20.92610       -1.43190        1.47890
H        -20.53320        1.60280       -1.49500
H        -18.35680        2.60180       -1.95890
H         -9.93600        0.95820        2.68170
H         -8.19650        0.61170        2.78680
H         -8.52070       -1.35810        1.26230
H         -9.50970       -1.50190        2.72060
H        -10.25270       -1.01000        1.19570
H        -11.85500        1.47780        0.89610
H         -5.93560        0.72290        1.47190
H         -3.61840        2.68350       -2.26160
H         -0.94560        0.11820       -3.13880
H          0.41810        1.08870       -3.68850
H         -2.51810        1.83350       -4.08070
H         -1.12750        2.75050       -4.68060
H         -1.45340        1.13500       -5.29400
H          0.47030        3.57090       -1.16770
H          0.60750        3.39660       -2.91340
H         -1.78580        4.21880       -3.11880
H         -0.70600        5.37510       -2.34650
H         -1.82070        4.42650       -1.36760
H         -0.31610       -0.56170        1.89000
H          3.31100       -1.26540        3.79830
H          1.59290       -0.85640        3.71030
H          3.89590        0.95410        2.83270
H          2.96130        1.12130        4.31960
H          2.18460        1.37470        2.75510
H          1.01750       -2.73550        2.20870
H          1.91320       -2.99660        0.71250
H          3.89730       -3.74660        2.01560
H          3.01690       -3.47680        3.52320
H          2.46800       -4.70540        2.38870
H          2.24910        1.25720       -2.01160
H          5.48920       -2.07230        2.12100
H          7.62320       -3.32600        5.26810
H          6.98880       -5.57070        5.95720
H          6.45410       -6.76330        4.76540
H          4.26470       -5.58860        4.56970
H          4.57470       -6.07840        6.23910
H          4.79600       -4.39410        5.75510
H          6.10510       -6.09300        2.40800
H          6.56280       -3.89020       -0.44880
H          5.88220       -5.40930        0.14210
H          7.75870       -5.86090       -1.39600
H          8.84320       -4.88410       -0.40370
H          8.18370       -6.39030        0.23560
H          8.46130       -0.76200        2.75750
H          8.08190       -1.04630        4.46060
H         10.51590       -0.76910        4.17240
H         10.55620       -2.08700        3.00050
H         10.16020       -2.42200        4.68520
H         10.20000       -2.95270        0.72850
H         11.67310       -2.05750       -0.92190
H         10.08390        2.12240       -5.33480
H         10.81000        3.41390       -7.31840
H         12.57620        4.02890       -8.95130
H         15.33650        1.42570       -6.99910
H         14.64810        0.13650       -5.04720
