167

C        -12.47520        4.88120        3.86330
C        -12.69240        6.22410        4.07330
C        -11.82760        7.36580        3.71760
O        -10.82760        7.39050        3.02310
C        -12.40690        8.53820        4.40050
C        -11.93560        9.81820        4.43050
C        -12.64050       10.79360        5.17030
C        -12.19890       12.13030        5.23920
C        -12.88670       13.06300        5.96470
C        -14.04700       12.67040        6.64510
F        -14.71040       13.60260        7.35540
C        -14.51930       11.38800        6.61060
C        -13.82380       10.41440        5.86740
C        -14.29000        9.07960        5.81120
C        -13.59210        8.15330        5.08350
C        -13.81770        6.73120        4.83700
C        -14.94290        6.04400        5.21870
C        -16.00090        6.61510        5.95540
N        -16.89460        7.01270        6.55730
C        -15.24670        4.70150        4.91030
N        -15.59460        3.62830        4.69180
C        -11.47080        4.20040        3.16450
S        -11.47910        2.42800        3.32130
C        -10.08690        2.31800        2.32580
C         -9.18340        1.40020        1.80140
C         -8.23970        2.14060        1.05020
N         -8.55420        3.46920        1.08190
C         -7.77800        4.55150        0.53320
C         -6.75810        5.07650        1.54120
C         -9.66380        3.60190        1.87840
C        -10.43850        4.64760        2.34660
C         -7.23920        1.34910        0.48600
C         -7.40920        0.01240        0.78990
S         -8.82810       -0.29210        1.78390
C         -6.49590       -1.02440        0.45660
C         -6.60330       -2.39630        0.59530
C         -7.81850       -3.13470        0.94570
C         -9.00510       -2.92540        0.24810
C        -10.12440       -3.67250        0.55970
C        -10.06840       -4.63320        1.55470
C         -8.88920       -4.86210        2.25170
C         -8.79650       -5.94850        3.28330
C         -8.26220       -7.23320        2.64630
C         -7.76910       -4.10780        1.93630
C         -5.38420       -3.03990        0.30340
S         -4.90330       -4.72060        0.32420
C         -3.31340       -4.24620       -0.17270
C         -2.07060       -4.82400       -0.47300
C         -1.68340       -6.18000       -0.51530
C         -0.34650       -6.50400       -0.91360
N         -0.12610       -7.80950       -0.93610
S         -1.48760       -8.56500       -0.49150
N         -2.41000       -7.25540       -0.25280
C          0.55550       -5.45400       -1.18600
C          1.92370       -5.49370       -1.49460
S          3.19010       -6.65070       -1.74040
C          4.32440       -5.33230       -1.93220
C          5.70740       -5.29590       -2.20130
C          6.49350       -6.50930       -2.43660
C          6.42050       -7.57300       -1.54210
C          7.13840       -8.72820       -1.78760
C          7.92090       -8.83660       -2.92420
C          7.98830       -7.79200       -3.83740
C          8.85170       -7.88240       -5.06310
C         10.13700       -7.07680       -4.86890
C          7.27180       -6.63240       -3.58210
C          6.17270       -3.99310       -2.26620
S          4.89080       -2.81400       -2.02520
C          3.73020       -4.07470       -1.81900
C          2.35540       -4.16990       -1.57240
N          1.31300       -3.31990       -1.33150
C          0.17780       -4.07970       -1.10570
C         -1.17830       -3.76190       -0.80740
N         -1.89410       -2.57790       -0.74550
C         -3.16970       -2.86980       -0.34890
C         -4.35640       -2.17780       -0.08150
S         -4.89000       -0.53510       -0.08450
C         -1.58600       -1.21600       -1.11040
C         -1.30170       -0.35000        0.11810
C          1.58960       -1.90460       -1.27440
C          1.65320       -1.28460       -2.67080
C          7.49900       -3.48940       -2.39290
S          7.69780       -1.77630       -2.74460
C          9.40770       -1.93550       -2.61260
C         10.56990       -1.17190       -2.65530
C         11.63800       -2.07090       -2.38510
N         11.14550       -3.33910       -2.18730
C         11.93890       -4.51370       -1.92900
C         12.75120       -4.92780       -3.15390
C          9.78490       -3.26750       -2.32490
C          8.70080       -4.14260       -2.20370
C         12.86930       -1.44670       -2.36300
C         12.77090       -0.07280       -2.61840
S         11.10620        0.44510       -2.89220
C         13.90650        0.74620       -2.63020
C         14.03810        2.09610       -2.84550
C         12.94430        3.03370       -3.14130
O         11.75690        2.77800       -3.24310
C         13.57020        4.35360       -3.29070
C         12.98610        5.57680       -3.57300
C         13.79570        6.69020       -3.66130
C         15.18110        6.59020       -3.47010
O         15.86740        7.74760       -3.57940
C         17.26750        7.73700       -3.40180
C         15.76980        5.35460       -3.18660
C         14.95610        4.23880       -3.09800
C         15.27890        2.83800       -2.81800
C         16.54110        2.35400       -2.57430
C         16.87610        1.01180       -2.30450
N         17.24210       -0.05430       -2.07860
C         17.70380        3.15040       -2.55920
N         18.68880        3.74150       -2.53120
H        -13.17890        4.21260        4.34530
H        -11.03400       10.08290        3.89830
H        -11.30150       12.40800        4.70660
H        -12.56220       14.08960        6.02840
H        -15.41740       11.12200        7.14590
H        -15.18660        8.82650        6.35310
H         -8.46520        5.35180        0.24700
H         -7.27160        4.18580       -0.36370
H         -7.26590        5.45630        2.42420
H         -6.17910        5.88200        1.09860
H         -6.08020        4.28110        1.84300
H        -10.28360        5.69020        2.14110
H         -6.41970        1.70910       -0.10980
H         -9.03990       -2.19150       -0.54380
H        -11.04470       -3.50970        0.01860
H        -10.94820       -5.21450        1.79000
H         -9.78130       -6.13890        3.71380
H         -8.12480       -5.63960        4.08670
H         -8.93000       -7.56870        1.85610
H         -8.18080       -8.02170        3.39070
H         -7.28000       -7.06020        2.21220
H         -6.84660       -4.27040        2.47500
H          5.81120       -7.48620       -0.65530
H          7.08530       -9.55030       -1.08950
H          8.47740       -9.74410       -3.10970
H          9.10280       -8.92490       -5.26560
H          8.30860       -7.48820       -5.92480
H         10.76160       -7.13420       -5.75740
H         10.70040       -7.46500       -4.02260
H          9.89810       -6.03250       -4.67680
H          7.30480       -5.81420       -4.28770
H         -2.46720       -0.81270       -1.62130
H         -0.76370       -1.20130       -1.81950
H         -2.20810       -0.22940        0.70510
H         -0.54740       -0.80220        0.75890
H         -0.95960        0.63340       -0.19250
H          0.86020       -1.40940       -0.64180
H          2.56980       -1.78790       -0.79950
H          2.50220       -1.68700       -3.21690
H          0.75350       -1.50000       -3.24420
H          1.77500       -0.20790       -2.59290
H         12.61340       -4.30490       -1.09130
H         11.25990       -5.31730       -1.63650
H         13.44580       -4.14030       -3.43380
H         12.09430       -5.12420       -3.99700
H         13.31710       -5.82870       -2.93440
H          8.76500       -5.18750       -1.96350
H         13.81400       -1.92130       -2.16650
H         14.82000        0.19940       -2.42960
H         11.91940        5.64540       -3.71900
H         13.38700        7.66430       -3.87860
H         17.54260        7.40040       -2.39820
H         17.58550        8.76920       -3.53660
H         17.76180        7.10480       -4.14490
H         16.83260        5.27540       -3.04060
