194

C          9.81240       -0.02840        2.96270
C          9.36350        0.76750        1.94730
C         10.25750        1.74520        1.27660
O         11.46030        1.82920        1.39160
C          9.35900        2.61560        0.48780
C          9.65790        3.72660       -0.24720
C          8.62210        4.40230       -0.93310
C          8.88000        5.54200       -1.72250
C          7.87260        6.17910       -2.39340
C          6.56740        5.68220       -2.28310
F          5.58860        6.31770       -2.95720
C          6.25850        4.58680       -1.52690
C          7.28560        3.91690       -0.83350
C          7.00360        2.76630       -0.06140
C          8.02580        2.12120        0.57970
C          8.04310        0.89440        1.36930
C          7.07940       -0.08220        1.31440
C          7.25790       -1.39030        1.80590
N          7.38040       -2.48600        2.12970
C          5.82830        0.07620        0.68800
N          4.78130        0.15170        0.22200
C          9.00050       -0.67040        3.92750
S          7.49570        0.09690        4.44760
C          7.09110       -1.30250        5.35550
C          6.02170       -1.86470        6.03600
C          6.37400       -3.20330        6.32240
N          7.65700       -3.43970        5.90350
C          8.27880       -4.73590        5.79580
C          7.84750       -5.44560        4.51410
C          8.09370       -2.30020        5.27270
C          9.19390       -1.91090        4.51280
C          5.31650       -3.95850        6.84320
C          4.16150       -3.20990        6.95550
S          4.39800       -1.52410        6.48130
C          2.81090       -3.61090        7.16840
C          2.23440       -4.87510        7.17870
C          2.95530       -6.13320        7.37630
C          2.76260       -7.20450        6.50980
C          3.44120       -8.39040        6.72080
C          4.30340       -8.52170        7.79480
C          4.49730       -7.46650        8.67910
C          5.38820       -7.62530        9.87800
C          4.59660       -8.19720       11.05550
C          3.81660       -6.27880        8.46100
C          0.84370       -4.80400        6.94440
S         -0.38470       -6.00660        6.58890
C         -1.49330       -4.73740        6.16300
C         -2.72950       -4.54940        5.51370
C         -3.70840       -5.45630        5.04910
C         -4.80950       -4.96280        4.26520
N         -5.64440       -5.92460        3.90760
S         -5.09920       -7.32880        4.50260
N         -3.76960       -6.76490        5.23510
C         -4.83140       -3.59890        3.89450
C         -5.55560       -2.91300        2.90180
S         -6.72920       -3.21900        1.65800
C         -6.39890       -1.64020        0.96830
C         -6.79280       -0.99410       -0.22480
C         -7.78200       -1.52100       -1.16310
C         -7.78640       -2.86880       -1.51020
C         -8.74280       -3.34980       -2.38370
C         -9.69240       -2.49790       -2.91990
C         -9.70390       -1.14990       -2.58450
C        -10.68730       -0.20810       -3.21650
C        -10.10390        0.36510       -4.51010
C         -8.75150       -0.67560       -1.69670
C         -6.12240        0.20800       -0.38910
S         -5.08420        0.58960        0.98150
C         -5.47650       -0.91420        1.72150
C         -5.00370       -1.63260        2.82240
N         -4.01960       -1.47610        3.75560
C         -3.86630       -2.68500        4.40710
C         -2.87620       -3.14770        5.30960
N         -1.80760       -2.49810        5.90860
C         -0.96110       -3.46520        6.37590
C          0.36120       -3.50140        6.82060
S          1.60910       -2.33260        7.02260
C         -1.71330       -1.16090        6.45860
C         -2.97710       -0.77810        7.22280
C         -3.15800       -0.31910        3.68920
C         -1.83000       -0.64020        3.00810
C         -5.94120        1.04380       -1.52690
C         -5.14680        2.16020       -1.53620
C         -4.90410        2.68430       -2.81930
C         -4.05840        3.75660       -3.16140
C         -3.18260        4.41990       -2.21870
C         -2.77430        5.72400       -2.22960
C         -1.74300        5.96210       -1.30060
F         -1.19930        7.18240       -1.13720
C         -1.33700        4.87580       -0.58460
C         -0.22930        4.78060        0.40550
C          0.89610        3.88380       -0.11430
S         -2.27490        3.49870       -1.04860
C         -3.94820        4.03980       -4.51430
C         -4.59140        3.29550       -5.53270
C         -5.46490        2.24090       -5.18220
C         -6.14400        1.47530       -6.20460
S         -6.25410       -0.25950       -6.12010
C         -7.10240       -0.35040       -7.62330
C         -7.51710       -1.63440       -8.25330
C         -8.71640       -2.29840       -7.56050
C         -8.35050       -2.93160       -6.22500
C         -7.28700        0.90970       -8.11620
C         -6.74750        1.94860       -7.33710
F         -7.92590        1.14550       -9.27780
C         -5.57870        1.95320       -3.82780
S         -6.49410        0.63470       -3.13740
C         -4.08350        3.61830       -6.81450
C         -3.06640        4.53430       -6.78870
S         -2.82220        5.18530       -5.17630
C         -2.21360        4.93870       -7.85420
C         -0.90910        5.30460       -7.73870
C         -0.24400        6.08620       -8.81870
O         -0.65070        6.25780       -9.94490
C          0.97340        6.64340       -8.19670
C          1.89020        7.50670       -8.72450
C          2.99810        7.90170       -7.94120
C          3.98170        8.77740       -8.44510
C          5.05980        9.13750       -7.68520
C          5.17680        8.62300       -6.38660
F          6.25350        8.98070       -5.66050
C          4.24840        7.77960       -5.84380
C          3.13290        7.39680       -6.61460
C          2.16520        6.50950       -6.09050
C          1.10560        6.13370       -6.87180
C          0.02100        5.19060       -6.62960
C          0.02540        4.21550       -5.66570
C         -0.84140        3.10190       -5.68100
N         -1.47780        2.14630       -5.69870
C          0.91390        4.17760       -4.57380
N          1.56710        4.11560       -3.63100
H         10.88800       -0.13700        3.05610
H         10.67500        4.08310       -0.31400
H          9.89430        5.90520       -1.79300
H          8.05360        7.04920       -3.00480
H          5.24180        4.22990       -1.47000
H          5.98300        2.42430        0.00520
H          7.99670       -5.32530        6.67270
H          9.36230       -4.59270        5.80490
H          6.77880       -5.64530        4.53650
H          8.06010       -4.82000        3.65040
H          8.37810       -6.38790        4.41080
H         10.05430       -2.51820        4.29850
H          5.36410       -5.00590        7.07430
H          2.09710       -7.09960        5.66700
H          3.29660       -9.21750        6.04180
H          4.83070       -9.45150        7.95260
H          5.80610       -6.65690       10.16190
H          6.21410       -8.29860        9.63910
H          4.17670       -9.16570       10.79390
H          5.24020       -8.31970       11.92340
H          3.77860       -7.53080       11.31990
H          3.94560       -5.45160        9.14560
H         -7.03670       -3.53100       -1.10540
H         -8.74550       -4.39620       -2.65010
H        -10.43930       -2.88190       -3.59950
H        -10.91360        0.60980       -2.52980
H        -11.61710       -0.73410       -3.44180
H         -9.17120        0.88640       -4.30590
H        -10.80150        1.06280       -4.96750
H         -9.89790       -0.43540       -5.21610
H         -8.77310        0.36260       -1.39690
H         -1.47250       -0.43150        5.68360
H         -0.86660       -1.17380        7.15000
H         -3.85540       -0.81670        6.58270
H         -2.87660        0.22800        7.62130
H         -3.13380       -1.46540        8.05110
H         -3.68950        0.43090        3.09850
H         -3.01440        0.10100        4.68320
H         -2.00790       -0.95240        1.98190
H         -1.30610       -1.44200        3.52250
H         -1.19680        0.24250        2.99300
H         -4.72660        2.57780       -0.63910
H         -3.20070        6.49570       -2.84340
H         -0.60940        4.37790        1.34870
H          0.15020        5.78810        0.58940
H          0.53340        2.86860       -0.25880
H          1.71620        3.86200        0.59870
H          1.26790        4.25200       -1.06740
H         -7.78000       -1.42060       -9.29210
H         -6.67620       -2.33220       -8.24750
H         -9.10370       -3.07140       -8.22730
H         -9.50530       -1.55590       -7.42090
H         -8.00600       -2.18760       -5.51040
H         -7.56010       -3.66690       -6.35810
H         -9.21510       -3.43460       -5.79960
H         -6.83610        2.98840       -7.59200
H         -4.37030        3.10130       -7.71240
H         -2.64820        5.00390       -8.84620
H          1.77710        7.87770       -9.73220
H          3.87120        9.15910       -9.44900
H          5.82220        9.80330       -8.05770
H          4.37210        7.40130       -4.84160
H          2.28540        6.15110       -5.08040
