
  xtb     02112201193D
 energy: -302.590695742523 gnorm: 0.000394377836 xtb: 6.4.1 (unknown)
170189  0     0  0            999 V2000
    8.9473   10.2537    0.9727 C   0  0  0  0  0  0  0  0  0  0  0  0
    9.9471    9.9702    0.0855 C   0  0  0  0  0  0  0  0  0  0  0  0
   10.3338   10.9712   -0.9388 C   0  0  0  0  0  0  0  0  0  0  0  0
   10.0445   12.1475   -0.9568 O   0  0  0  0  0  0  0  0  0  0  0  0
   11.0817   10.2056   -1.9587 C   0  0  0  0  0  0  0  0  0  0  0  0
   11.5415   10.6142   -3.1766 C   0  0  0  0  0  0  0  0  0  0  0  0
   12.2025    9.6845   -4.0116 C   0  0  0  0  0  0  0  0  0  0  0  0
   12.6918   10.0540   -5.2809 C   0  0  0  0  0  0  0  0  0  0  0  0
   13.3221    9.1459   -6.0857 C   0  0  0  0  0  0  0  0  0  0  0  0
   13.4786    7.8306   -5.6293 C   0  0  0  0  0  0  0  0  0  0  0  0
   14.1012    6.9498   -6.4358 F   0  0  0  0  0  0  0  0  0  0  0  0
   13.0239    7.4194   -4.4075 C   0  0  0  0  0  0  0  0  0  0  0  0
   12.3734    8.3418   -3.5652 C   0  0  0  0  0  0  0  0  0  0  0  0
   11.8959    7.9485   -2.2928 C   0  0  0  0  0  0  0  0  0  0  0  0
   11.2637    8.8680   -1.5024 C   0  0  0  0  0  0  0  0  0  0  0  0
   10.6960    8.7616   -0.1615 C   0  0  0  0  0  0  0  0  0  0  0  0
   11.0530    7.8312    0.7819 C   0  0  0  0  0  0  0  0  0  0  0  0
   11.8771    6.7223    0.5143 C   0  0  0  0  0  0  0  0  0  0  0  0
   12.5357    5.7980    0.3388 N   0  0  0  0  0  0  0  0  0  0  0  0
   10.7110    7.9588    2.1434 C   0  0  0  0  0  0  0  0  0  0  0  0
   10.4942    8.0714    3.2654 N   0  0  0  0  0  0  0  0  0  0  0  0
    8.1013    9.3683    1.6660 C   0  0  0  0  0  0  0  0  0  0  0  0
    7.9043    7.6808    1.1786 S   0  0  0  0  0  0  0  0  0  0  0  0
    6.6899    7.4641    2.3727 C   0  0  0  0  0  0  0  0  0  0  0  0
    5.8172    6.5055    2.8717 C   0  0  0  0  0  0  0  0  0  0  0  0
    5.0724    7.1285    3.9002 C   0  0  0  0  0  0  0  0  0  0  0  0
    5.4582    8.4343    4.0281 N   0  0  0  0  0  0  0  0  0  0  0  0
    5.0173    9.3439    5.0542 C   0  0  0  0  0  0  0  0  0  0  0  0
    5.7320    9.0788    6.3774 C   0  0  0  0  0  0  0  0  0  0  0  0
    6.4555    8.6537    3.1115 C   0  0  0  0  0  0  0  0  0  0  0  0
    7.2364    9.7222    2.6942 C   0  0  0  0  0  0  0  0  0  0  0  0
    4.1253    6.2914    4.4939 C   0  0  0  0  0  0  0  0  0  0  0  0
    4.1474    5.0276    3.9398 C   0  0  0  0  0  0  0  0  0  0  0  0
    5.3455    4.8619    2.6583 S   0  0  0  0  0  0  0  0  0  0  0  0
    3.3051    3.9180    4.2284 C   0  0  0  0  0  0  0  0  0  0  0  0
    2.4166    3.7263    5.2757 C   0  0  0  0  0  0  0  0  0  0  0  0
    2.2948    4.5505    6.4802 C   0  0  0  0  0  0  0  0  0  0  0  0
    3.4229    4.9199    7.2100 C   0  0  0  0  0  0  0  0  0  0  0  0
    3.2808    5.6531    8.3721 C   0  0  0  0  0  0  0  0  0  0  0  0
    2.0217    6.0154    8.8216 C   0  0  0  0  0  0  0  0  0  0  0  0
    0.8862    5.6455    8.1130 C   0  0  0  0  0  0  0  0  0  0  0  0
   -0.4868    5.9712    8.6248 C   0  0  0  0  0  0  0  0  0  0  0  0
   -1.0387    4.7952    9.4334 C   0  0  0  0  0  0  0  0  0  0  0  0
    1.0355    4.9124    6.9446 C   0  0  0  0  0  0  0  0  0  0  0  0
    1.6507    2.5591    5.0831 C   0  0  0  0  0  0  0  0  0  0  0  0
    0.3604    1.8185    6.0038 S   0  0  0  0  0  0  0  0  0  0  0  0
    0.2584    0.5625    4.8154 C   0  0  0  0  0  0  0  0  0  0  0  0
   -0.4985   -0.5896    4.5363 C   0  0  0  0  0  0  0  0  0  0  0  0
   -1.5184   -1.2506    5.2553 C   0  0  0  0  0  0  0  0  0  0  0  0
   -2.0977   -2.4460    4.7055 C   0  0  0  0  0  0  0  0  0  0  0  0
   -3.0111   -2.9764    5.5028 N   0  0  0  0  0  0  0  0  0  0  0  0
   -3.1357   -2.0542    6.8279 S   0  0  0  0  0  0  0  0  0  0  0  0
   -2.0300   -0.9380    6.4353 N   0  0  0  0  0  0  0  0  0  0  0  0
   -1.7184   -2.8575    3.4084 C   0  0  0  0  0  0  0  0  0  0  0  0
   -2.2616   -3.8170    2.5385 C   0  0  0  0  0  0  0  0  0  0  0  0
   -3.5186   -5.0072    2.5145 S   0  0  0  0  0  0  0  0  0  0  0  0
   -3.2182   -5.2694    0.8103 C   0  0  0  0  0  0  0  0  0  0  0  0
   -3.8098   -6.1104   -0.1564 C   0  0  0  0  0  0  0  0  0  0  0  0
   -4.8512   -7.0909    0.1422 C   0  0  0  0  0  0  0  0  0  0  0  0
   -4.8531   -8.3424   -0.4710 C   0  0  0  0  0  0  0  0  0  0  0  0
   -5.8315   -9.2652   -0.1580 C   0  0  0  0  0  0  0  0  0  0  0  0
   -6.7972   -8.9680    0.7881 C   0  0  0  0  0  0  0  0  0  0  0  0
   -6.7933   -7.7389    1.4354 C   0  0  0  0  0  0  0  0  0  0  0  0
   -7.8251   -7.4232    2.4817 C   0  0  0  0  0  0  0  0  0  0  0  0
   -9.0966   -6.8454    1.8587 C   0  0  0  0  0  0  0  0  0  0  0  0
   -5.8267   -6.8061    1.0935 C   0  0  0  0  0  0  0  0  0  0  0  0
   -3.2028   -5.9428   -1.3896 C   0  0  0  0  0  0  0  0  0  0  0  0
   -1.8940   -4.7831   -1.3557 S   0  0  0  0  0  0  0  0  0  0  0  0
   -2.1736   -4.4837    0.3165 C   0  0  0  0  0  0  0  0  0  0  0  0
   -1.6256   -3.6561    1.3047 C   0  0  0  0  0  0  0  0  0  0  0  0
   -0.6918   -2.6588    1.3853 N   0  0  0  0  0  0  0  0  0  0  0  0
   -0.7208   -2.1585    2.6720 C   0  0  0  0  0  0  0  0  0  0  0  0
   -0.0192   -1.0988    3.2984 C   0  0  0  0  0  0  0  0  0  0  0  0
    1.0397   -0.3141    2.8699 N   0  0  0  0  0  0  0  0  0  0  0  0
    1.1851    0.7020    3.7803 C   0  0  0  0  0  0  0  0  0  0  0  0
    1.9794    1.8432    3.9306 C   0  0  0  0  0  0  0  0  0  0  0  0
    3.2329    2.6240    3.0396 S   0  0  0  0  0  0  0  0  0  0  0  0
    2.1924   -0.7161    2.0912 C   0  0  0  0  0  0  0  0  0  0  0  0
    3.3474   -1.1483    2.9950 C   0  0  0  0  0  0  0  0  0  0  0  0
   -0.1160   -2.1075    0.1789 C   0  0  0  0  0  0  0  0  0  0  0  0
    0.9863   -2.9999   -0.3925 C   0  0  0  0  0  0  0  0  0  0  0  0
   -3.5686   -6.4980   -2.6678 C   0  0  0  0  0  0  0  0  0  0  0  0
   -2.6155   -6.8889   -3.5985 C   0  0  0  0  0  0  0  0  0  0  0  0
   -1.3093   -6.8517   -3.2773 F   0  0  0  0  0  0  0  0  0  0  0  0
   -2.9657   -7.3430   -4.8668 C   0  0  0  0  0  0  0  0  0  0  0  0
   -1.9859   -7.6914   -5.7132 F   0  0  0  0  0  0  0  0  0  0  0  0
   -4.2844   -7.3936   -5.3001 C   0  0  0  0  0  0  0  0  0  0  0  0
   -5.2869   -7.0616   -4.3466 C   0  0  0  0  0  0  0  0  0  0  0  0
   -6.5886   -7.2377   -4.6602 N   0  0  0  0  0  0  0  0  0  0  0  0
   -7.4949   -6.8947   -3.7824 C   0  0  0  0  0  0  0  0  0  0  0  0
   -8.7882   -7.1115   -4.0006 O   0  0  0  0  0  0  0  0  0  0  0  0
   -9.1670   -7.7740   -5.2034 C   0  0  0  0  0  0  0  0  0  0  0  0
   -8.7811   -9.2461   -5.2174 C   0  0  0  0  0  0  0  0  0  0  0  0
   -7.1357   -6.2460   -2.5513 C   0  0  0  0  0  0  0  0  0  0  0  0
   -5.8852   -6.1373   -2.2225 N   0  0  0  0  0  0  0  0  0  0  0  0
   -4.9306   -6.5882   -3.0625 C   0  0  0  0  0  0  0  0  0  0  0  0
   -8.1821   -5.7074   -1.6448 C   0  0  0  0  0  0  0  0  0  0  0  0
   -4.5847   -7.8096   -6.6416 C   0  0  0  0  0  0  0  0  0  0  0  0
   -5.5896   -7.3914   -7.4453 C   0  0  0  0  0  0  0  0  0  0  0  0
   -5.9440   -8.1881   -8.6558 C   0  0  0  0  0  0  0  0  0  0  0  0
   -5.3050   -9.0913   -9.1418 O   0  0  0  0  0  0  0  0  0  0  0  0
   -7.2572   -7.6694   -9.0869 C   0  0  0  0  0  0  0  0  0  0  0  0
   -8.0684   -8.1163  -10.1091 C   0  0  0  0  0  0  0  0  0  0  0  0
   -9.2824   -7.4729  -10.3412 C   0  0  0  0  0  0  0  0  0  0  0  0
  -10.1688   -7.9101  -11.4626 C   0  0  0  0  0  0  0  0  0  0  0  0
   -9.6441   -6.3995   -9.5291 C   0  0  0  0  0  0  0  0  0  0  0  0
   -8.8323   -5.9397   -8.5040 C   0  0  0  0  0  0  0  0  0  0  0  0
   -7.6210   -6.5773   -8.2767 C   0  0  0  0  0  0  0  0  0  0  0  0
   -6.5437   -6.3052   -7.3294 C   0  0  0  0  0  0  0  0  0  0  0  0
   -6.3869   -5.1408   -6.6264 C   0  0  0  0  0  0  0  0  0  0  0  0
   -5.2141   -4.7659   -5.9410 C   0  0  0  0  0  0  0  0  0  0  0  0
   -4.2810   -4.3675   -5.4034 N   0  0  0  0  0  0  0  0  0  0  0  0
   -7.3776   -4.1434   -6.5243 C   0  0  0  0  0  0  0  0  0  0  0  0
   -8.1639   -3.3224   -6.3624 N   0  0  0  0  0  0  0  0  0  0  0  0
    8.7049   11.3075    1.0735 H   0  0  0  0  0  0  0  0  0  0  0  0
   11.4019   11.6340   -3.5027 H   0  0  0  0  0  0  0  0  0  0  0  0
   12.5588   11.0734   -5.6110 H   0  0  0  0  0  0  0  0  0  0  0  0
   13.7009    9.4127   -7.0596 H   0  0  0  0  0  0  0  0  0  0  0  0
   13.1646    6.3990   -4.0870 H   0  0  0  0  0  0  0  0  0  0  0  0
   12.0296    6.9250   -1.9791 H   0  0  0  0  0  0  0  0  0  0  0  0
    3.9371    9.2235    5.1807 H   0  0  0  0  0  0  0  0  0  0  0  0
    5.2172   10.3619    4.7122 H   0  0  0  0  0  0  0  0  0  0  0  0
    6.8075    9.1783    6.2509 H   0  0  0  0  0  0  0  0  0  0  0  0
    5.3993    9.7889    7.1293 H   0  0  0  0  0  0  0  0  0  0  0  0
    5.5145    8.0720    6.7263 H   0  0  0  0  0  0  0  0  0  0  0  0
    7.2210   10.7125    3.1119 H   0  0  0  0  0  0  0  0  0  0  0  0
    3.4416    6.5811    5.2692 H   0  0  0  0  0  0  0  0  0  0  0  0
    4.4023    4.6206    6.8672 H   0  0  0  0  0  0  0  0  0  0  0  0
    4.1567    5.9373    8.9371 H   0  0  0  0  0  0  0  0  0  0  0  0
    1.9202    6.5852    9.7340 H   0  0  0  0  0  0  0  0  0  0  0  0
   -0.4483    6.8602    9.2574 H   0  0  0  0  0  0  0  0  0  0  0  0
   -1.1560    6.1749    7.7863 H   0  0  0  0  0  0  0  0  0  0  0  0
   -1.0874    3.9013    8.8158 H   0  0  0  0  0  0  0  0  0  0  0  0
   -2.0374    5.0214    9.7993 H   0  0  0  0  0  0  0  0  0  0  0  0
   -0.3950    4.5874   10.2852 H   0  0  0  0  0  0  0  0  0  0  0  0
    0.1597    4.6262    6.3808 H   0  0  0  0  0  0  0  0  0  0  0  0
   -4.0778   -8.5961   -1.1789 H   0  0  0  0  0  0  0  0  0  0  0  0
   -5.8308  -10.2315   -0.6417 H   0  0  0  0  0  0  0  0  0  0  0  0
   -7.5483   -9.7032    1.0400 H   0  0  0  0  0  0  0  0  0  0  0  0
   -8.0783   -8.3352    3.0264 H   0  0  0  0  0  0  0  0  0  0  0  0
   -7.4155   -6.7043    3.1933 H   0  0  0  0  0  0  0  0  0  0  0  0
   -9.8459   -6.6673    2.6265 H   0  0  0  0  0  0  0  0  0  0  0  0
   -9.5095   -7.5369    1.1273 H   0  0  0  0  0  0  0  0  0  0  0  0
   -8.8821   -5.9032    1.3608 H   0  0  0  0  0  0  0  0  0  0  0  0
   -5.8336   -5.8396    1.5746 H   0  0  0  0  0  0  0  0  0  0  0  0
    1.9263   -1.5507    1.4538 H   0  0  0  0  0  0  0  0  0  0  0  0
    2.5028    0.1327    1.4734 H   0  0  0  0  0  0  0  0  0  0  0  0
    3.6849   -0.3259    3.6195 H   0  0  0  0  0  0  0  0  0  0  0  0
    3.0348   -1.9684    3.6382 H   0  0  0  0  0  0  0  0  0  0  0  0
    4.1819   -1.4807    2.3838 H   0  0  0  0  0  0  0  0  0  0  0  0
   -0.9173   -2.0301   -0.5645 H   0  0  0  0  0  0  0  0  0  0  0  0
    0.2409   -1.0980    0.3846 H   0  0  0  0  0  0  0  0  0  0  0  0
    1.4759   -2.4940   -1.2196 H   0  0  0  0  0  0  0  0  0  0  0  0
    1.7325   -3.2512    0.3583 H   0  0  0  0  0  0  0  0  0  0  0  0
    0.5618   -3.9288   -0.7630 H   0  0  0  0  0  0  0  0  0  0  0  0
  -10.2523   -7.6559   -5.2419 H   0  0  0  0  0  0  0  0  0  0  0  0
   -8.7140   -7.2605   -6.0559 H   0  0  0  0  0  0  0  0  0  0  0  0
   -9.1941   -9.7532   -4.3488 H   0  0  0  0  0  0  0  0  0  0  0  0
   -9.1713   -9.7101   -6.1188 H   0  0  0  0  0  0  0  0  0  0  0  0
   -7.6993   -9.3495   -5.2088 H   0  0  0  0  0  0  0  0  0  0  0  0
   -7.7065   -5.2466   -0.7851 H   0  0  0  0  0  0  0  0  0  0  0  0
   -8.8372   -6.5136   -1.3204 H   0  0  0  0  0  0  0  0  0  0  0  0
   -8.7916   -4.9769   -2.1741 H   0  0  0  0  0  0  0  0  0  0  0  0
   -3.9435   -8.5810   -7.0579 H   0  0  0  0  0  0  0  0  0  0  0  0
   -7.7541   -8.9506  -10.7182 H   0  0  0  0  0  0  0  0  0  0  0  0
   -9.8897   -7.3842  -12.3763 H   0  0  0  0  0  0  0  0  0  0  0  0
  -10.0649   -8.9766  -11.6465 H   0  0  0  0  0  0  0  0  0  0  0  0
  -11.2105   -7.6826  -11.2499 H   0  0  0  0  0  0  0  0  0  0  0  0
  -10.5880   -5.9051   -9.7067 H   0  0  0  0  0  0  0  0  0  0  0  0
   -9.1532   -5.1070   -7.8989 H   0  0  0  0  0  0  0  0  0  0  0  0
  1  2  2  0  0  0  0
  2  3  1  0  0  0  0
  3  4  2  0  0  0  0
  3  5  1  0  0  0  0
  5  6  2  0  0  0  0
  6  7  1  0  0  0  0
  7  8  2  0  0  0  0
  8  9  1  0  0  0  0
  9 10  2  0  0  0  0
 10 11  1  0  0  0  0
 10 12  1  0  0  0  0
 12 13  2  0  0  0  0
 13 14  1  0  0  0  0
 14 15  2  0  0  0  0
 15 16  1  0  0  0  0
 16 17  2  0  0  0  0
 17 18  1  0  0  0  0
 18 19  3  0  0  0  0
 17 20  1  0  0  0  0
 20 21  3  0  0  0  0
  1 22  1  0  0  0  0
 22 23  1  0  0  0  0
 23 24  1  0  0  0  0
 24 25  1  0  0  0  0
 25 26  2  0  0  0  0
 26 27  1  0  0  0  0
 27 28  1  0  0  0  0
 28 29  1  0  0  0  0
 27 30  1  0  0  0  0
 30 31  1  0  0  0  0
 26 32  1  0  0  0  0
 32 33  2  0  0  0  0
 33 34  1  0  0  0  0
 33 35  1  0  0  0  0
 35 36  2  0  0  0  0
 36 37  1  0  0  0  0
 37 38  2  0  0  0  0
 38 39  1  0  0  0  0
 39 40  2  0  0  0  0
 40 41  1  0  0  0  0
 41 42  1  0  0  0  0
 42 43  1  0  0  0  0
 41 44  2  0  0  0  0
 36 45  1  0  0  0  0
 45 46  1  0  0  0  0
 46 47  1  0  0  0  0
 47 48  1  0  0  0  0
 48 49  1  0  0  0  0
 49 50  1  0  0  0  0
 50 51  2  0  0  0  0
 51 52  1  0  0  0  0
 52 53  1  0  0  0  0
 50 54  1  0  0  0  0
 54 55  1  0  0  0  0
 55 56  1  0  0  0  0
 56 57  1  0  0  0  0
 57 58  1  0  0  0  0
 58 59  1  0  0  0  0
 59 60  2  0  0  0  0
 60 61  1  0  0  0  0
 61 62  2  0  0  0  0
 62 63  1  0  0  0  0
 63 64  1  0  0  0  0
 64 65  1  0  0  0  0
 63 66  2  0  0  0  0
 58 67  2  0  0  0  0
 67 68  1  0  0  0  0
 68 69  1  0  0  0  0
 69 70  1  0  0  0  0
 70 71  1  0  0  0  0
 71 72  1  0  0  0  0
 72 73  1  0  0  0  0
 73 74  1  0  0  0  0
 74 75  1  0  0  0  0
 75 76  1  0  0  0  0
 76 77  1  0  0  0  0
 74 78  1  0  0  0  0
 78 79  1  0  0  0  0
 71 80  1  0  0  0  0
 80 81  1  0  0  0  0
 67 82  1  0  0  0  0
 82 83  2  0  0  0  0
 83 84  1  0  0  0  0
 83 85  1  0  0  0  0
 85 86  1  0  0  0  0
 85 87  2  0  0  0  0
 87 88  1  0  0  0  0
 88 89  2  0  0  0  0
 89 90  1  0  0  0  0
 90 91  1  0  0  0  0
 91 92  1  0  0  0  0
 92 93  1  0  0  0  0
 90 94  2  0  0  0  0
 94 95  1  0  0  0  0
 95 96  2  0  0  0  0
 94 97  1  0  0  0  0
 87 98  1  0  0  0  0
 98 99  2  0  0  0  0
 99100  1  0  0  0  0
100101  2  0  0  0  0
100102  1  0  0  0  0
102103  2  0  0  0  0
103104  1  0  0  0  0
104105  1  0  0  0  0
104106  2  0  0  0  0
106107  1  0  0  0  0
107108  2  0  0  0  0
108109  1  0  0  0  0
109110  2  0  0  0  0
110111  1  0  0  0  0
111112  3  0  0  0  0
110113  1  0  0  0  0
113114  3  0  0  0  0
 16  2  1  0  0  0  0
 31 22  2  0  0  0  0
 77 35  1  0  0  0  0
 96 82  1  0  0  0  0
109 99  1  0  0  0  0
 15  5  1  0  0  0  0
 30 24  2  0  0  0  0
 44 37  1  0  0  0  0
 76 45  2  0  0  0  0
 96 88  1  0  0  0  0
108102  1  0  0  0  0
 13  7  1  0  0  0  0
 34 25  1  0  0  0  0
 75 47  2  0  0  0  0
 73 48  2  0  0  0  0
 53 49  2  0  0  0  0
 72 54  2  0  0  0  0
 70 55  2  0  0  0  0
 69 57  2  0  0  0  0
 66 59  1  0  0  0  0
  1115  1  0  0  0  0
  6116  1  0  0  0  0
  8117  1  0  0  0  0
  9118  1  0  0  0  0
 12119  1  0  0  0  0
 14120  1  0  0  0  0
 28121  1  0  0  0  0
 28122  1  0  0  0  0
 29123  1  0  0  0  0
 29124  1  0  0  0  0
 29125  1  0  0  0  0
 31126  1  0  0  0  0
 32127  1  0  0  0  0
 38128  1  0  0  0  0
 39129  1  0  0  0  0
 40130  1  0  0  0  0
 42131  1  0  0  0  0
 42132  1  0  0  0  0
 43133  1  0  0  0  0
 43134  1  0  0  0  0
 43135  1  0  0  0  0
 44136  1  0  0  0  0
 60137  1  0  0  0  0
 61138  1  0  0  0  0
 62139  1  0  0  0  0
 64140  1  0  0  0  0
 64141  1  0  0  0  0
 65142  1  0  0  0  0
 65143  1  0  0  0  0
 65144  1  0  0  0  0
 66145  1  0  0  0  0
 78146  1  0  0  0  0
 78147  1  0  0  0  0
 79148  1  0  0  0  0
 79149  1  0  0  0  0
 79150  1  0  0  0  0
 80151  1  0  0  0  0
 80152  1  0  0  0  0
 81153  1  0  0  0  0
 81154  1  0  0  0  0
 81155  1  0  0  0  0
 92156  1  0  0  0  0
 92157  1  0  0  0  0
 93158  1  0  0  0  0
 93159  1  0  0  0  0
 93160  1  0  0  0  0
 97161  1  0  0  0  0
 97162  1  0  0  0  0
 97163  1  0  0  0  0
 98164  1  0  0  0  0
103165  1  0  0  0  0
105166  1  0  0  0  0
105167  1  0  0  0  0
105168  1  0  0  0  0
106169  1  0  0  0  0
107170  1  0  0  0  0
M  END
