191

C         12.64810       -8.00730        5.47770
C         12.32450       -8.65490        6.64170
C         13.39490       -9.38830        7.36360
O         14.51140       -9.62670        6.95800
C         12.82530       -9.71780        8.68540
C         13.42280      -10.31620        9.75590
C         12.67700      -10.51480       10.94020
C         13.24190      -11.13590       12.07240
C         12.51170      -11.31920       13.21390
C         11.18240      -10.87770       13.24590
F         10.47890      -11.06500       14.37880
C         10.58580      -10.27010       12.17650
C         11.32240      -10.07640       10.99200
C         10.72740       -9.46520        9.86310
C         11.46530       -9.29780        8.72340
C         11.11020       -8.76190        7.40890
C          9.81990       -8.64470        6.94800
C          9.46700       -8.42330        5.60390
N          9.10260       -8.28290        4.52360
C          8.67630       -8.80980        7.75250
N          7.70380       -8.89110        8.35900
C         11.97080       -6.98500        4.79660
S         12.40050       -6.68790        3.10720
C         11.20350       -5.46410        3.00210
C         10.59150       -4.61120        2.09060
C          9.59440       -3.90350        2.80140
N          9.58310       -4.30000        4.10970
C          8.72230       -3.80260        5.15100
C          9.36920       -2.64290        5.90580
C         10.55340       -5.25760        4.24970
C         10.98580       -6.11360        5.24970
C          8.84140       -3.05050        1.99470
C          9.24370       -3.10390        0.67340
S         10.60190       -4.19240        0.41420
C          8.56470       -2.49260       -0.41500
C          8.84490       -2.53300       -1.77010
C         10.09900       -2.99970       -2.36600
C         10.08300       -3.94090       -3.38950
C         11.27220       -4.34920       -3.96350
C         12.47460       -3.81850       -3.53200
C         12.50690       -2.86640       -2.52020
C         13.80520       -2.24800       -2.08880
C         14.12440       -1.02200       -2.94670
C         11.31190       -2.46060       -1.94780
C          7.77160       -2.03290       -2.53210
S          7.49530       -1.92300       -4.25370
C          5.91760       -1.28270       -3.93790
C          4.76930       -0.87720       -4.64390
C          4.47980       -0.72090       -6.01830
C          3.19560       -0.20020       -6.41330
N          3.09450       -0.05530       -7.72500
S          4.48100       -0.53600       -8.40680
N          5.27020       -0.94750       -7.05550
C          2.20780        0.02370       -5.42740
C          0.84590        0.37240       -5.49130
S         -0.34290        0.81110       -6.67170
C         -1.53500        0.91240       -5.39790
C         -2.90610        1.22670       -5.40670
C         -3.62110        1.52460       -6.65450
C         -3.20910        2.59220       -7.44400
C         -3.86030        2.85820       -8.63420
C         -4.91600        2.06440       -9.04510
C         -5.33640        0.99000       -8.27140
C         -6.46260        0.10630       -8.72560
C         -5.92160       -1.12180       -9.45950
C         -4.67290        0.72170       -7.08280
C         -3.42840        1.22100       -4.12310
S         -2.22950        0.77890       -2.91310
C         -1.01940        0.62020       -4.13250
C          0.34030        0.29880       -4.18830
N          1.33170       -0.07570       -3.31420
C          2.48890       -0.22070       -4.05840
C          3.80730       -0.52620       -3.66250
N          4.36600       -0.64390       -2.40160
C          5.63930       -1.13030       -2.57490
C          6.69720       -1.56690       -1.77210
S          6.99510       -1.75670       -0.08190
C          4.03580        0.16370       -1.24370
C          5.03900        1.30120       -1.05350
C          0.99530       -0.78790       -2.09700
C          0.16540       -2.03670       -2.39370
C         -4.71460        1.62730       -3.66830
C         -5.84310        1.89410       -4.39290
C         -6.92170        2.36430       -3.61510
C         -8.21270        2.70480       -4.05750
C         -8.57610        2.62580       -5.46310
S         -9.97900        1.73030       -5.96630
C         -9.72770        2.11930       -7.63380
C        -10.64790        1.60660       -8.68600
C        -10.56380        0.08480       -8.81410
C         -8.61640        2.89550       -7.77370
Cl        -8.05910        3.51150       -9.27340
C         -7.95750        3.18290       -6.54800
Cl        -6.57190        4.19530       -6.46740
C         -9.11910        3.11940       -3.09120
C         -8.78300        3.22180       -1.71460
C         -7.50050        2.83490       -1.26680
C         -7.16850        2.85990        0.14520
S         -5.73290        3.64690        0.72830
C         -6.08820        3.24740        2.37210
C         -5.22080        3.71640        3.48730
C         -5.64040        5.11360        3.95110
C         -7.25320        2.54270        2.44920
C         -7.86800        2.31770        1.18980
Cl        -9.29350        1.37990        1.01660
Cl        -7.92460        1.96530        3.91750
C         -6.59590        2.43710       -2.23530
S         -4.95860        1.92110       -1.95260
C         -9.82310        3.77750       -0.94880
C        -10.94920        4.07370       -1.67820
S        -10.74250        3.65490       -3.38140
C        -12.20290        4.60850       -1.30990
C        -12.64220        5.15550       -0.13570
C        -11.86220        5.49640        1.07980
O        -10.71450        5.21450        1.35760
C        -12.76630        6.30140        1.92120
C        -12.49420        6.90530        3.11480
C        -13.50550        7.65730        3.75170
C        -13.27940        8.30620        4.98290
C        -14.26480        9.03820        5.58430
C        -15.51480        9.13640        4.95790
F        -16.47140        9.86240        5.56470
C        -15.78750        8.52610        3.76540
C        -14.78390        7.76780        3.13130
C        -15.03700        7.12500        1.89720
C        -14.04140        6.39750        1.30040
C        -14.00330        5.63730        0.05550
C        -15.09070        5.37990       -0.73770
C        -16.38790        5.87180       -0.47810
N        -17.46500        6.24080       -0.33100
C        -15.10990        4.56890       -1.89310
N        -15.23200        3.91410       -2.82880
H         13.60170       -8.30720        5.05260
H         14.45180      -10.63820        9.70030
H         14.26800      -11.46800       12.02350
H         12.92880      -11.79350       14.08810
H          9.55800       -9.94720       12.23480
H          9.70120       -9.14110        9.93350
H          7.78580       -3.47710        4.69170
H          8.50290       -4.62570        5.83650
H          9.58210       -1.82190        5.22500
H          8.70160       -2.28710        6.68530
H         10.30230       -2.96280        6.36380
H         10.64410       -6.09840        6.26900
H          8.02430       -2.43570        2.32710
H          9.14400       -4.35910       -3.71930
H         11.26020       -5.08630       -4.75260
H         13.40000       -4.14460       -3.98460
H         14.61170       -2.97690       -2.18770
H         13.74160       -1.94920       -1.04060
H         13.33480       -0.27950       -2.85450
H         15.06350       -0.57190       -2.63330
H         14.20640       -1.30400       -3.99390
H         11.31740       -1.70920       -1.17040
H         -2.39060        3.21520       -7.11590
H         -3.54390        3.69180       -9.24330
H         -5.42080        2.28010       -9.97500
H         -7.04950       -0.21720       -7.86190
H         -7.11800        0.66650       -9.39500
H         -5.27200       -1.69940       -8.80570
H         -6.73860       -1.75980       -9.78880
H         -5.34560       -0.81730      -10.33040
H         -4.96960       -0.12820       -6.48270
H          3.04890        0.59990       -1.39040
H          4.02960       -0.47490       -0.35380
H          6.02990        0.91620       -0.83080
H          4.72010        1.93060       -0.22730
H          5.09360        1.90800       -1.95480
H          1.91210       -1.09890       -1.60150
H          0.43250       -0.11480       -1.44210
H          0.70110       -2.68790       -3.08090
H         -0.79250       -1.77600       -2.83410
H         -0.01670       -2.57770       -1.46940
H         -5.90400        1.75810       -5.45390
H        -10.38430        2.07620       -9.63500
H        -11.67330        1.88720       -8.43410
H         -9.55620       -0.21920       -9.08560
H        -10.82740       -0.38670       -7.87040
H        -11.25050       -0.26240       -9.58120
H         -4.18210        3.73940        3.15370
H         -5.30820        3.01430        4.31870
H         -5.00700        5.44120        4.77100
H         -6.67300        5.10210        4.28980
H         -5.55130        5.82460        3.13340
H         -9.74800        3.98330        0.10210
H        -12.91900        4.59190       -2.12360
H        -11.51720        6.81180        3.56520
H        -12.30810        8.21590        5.44570
H        -14.10820        9.54190        6.52510
H        -16.76200        8.62200        3.31280
H        -16.01330        7.23290        1.45340
