176

C          5.26070      -11.00260        2.43390
C          4.59320      -11.64970        1.41890
C          4.17130      -11.04520        0.15290
O          4.36790       -9.90480       -0.23110
C          3.45010      -12.09750       -0.58480
C          2.84480      -12.02520       -1.80500
C          2.18970      -13.16810       -2.31670
C          1.54210      -13.14980       -3.56830
C          0.90670      -14.26110       -4.04930
C          0.90790      -15.42940       -3.27620
F          0.27610      -16.51350       -3.76540
C          1.52200      -15.50150       -2.05680
C          2.18050      -14.36620       -1.54600
C          2.82160      -14.41010       -0.28500
C          3.44870      -13.29040        0.19130
C          4.16860      -13.03210        1.43810
C          4.38000      -13.96090        2.42840
C          5.06070      -13.73760        3.64140
N          5.59730      -13.64350        4.65400
C          3.93600      -15.29740        2.36590
N          3.60540      -16.39730        2.38330
C          5.67500       -9.67350        2.55420
S          5.47090       -8.39810        1.34860
C          6.18080       -7.26640        2.43140
C          6.48060       -5.91300        2.54520
C          7.02810       -5.70910        3.83270
N          7.10580       -6.90380        4.49630
C          7.51160       -7.09090        5.86520
C          6.34520       -6.89020        6.83070
C          6.56690       -7.85860        3.66820
C          6.28810       -9.20760        3.72670
C          7.31630       -4.37390        4.11950
C          7.00240       -3.54820        3.05670
S          6.35810       -4.43020        1.67490
C          7.02810       -2.12740        2.99270
C          7.50650       -1.19560        3.90170
C          8.35420       -1.46560        5.06460
C          9.50170       -2.24710        4.94560
C         10.31690       -2.44300        6.04360
C         10.00440       -1.86000        7.26060
C          8.86920       -1.07140        7.39440
C          8.55310       -0.37720        8.68710
C          9.07620        1.06030        8.65150
C          8.05250       -0.88120        6.28920
C          7.10580        0.11020        3.55160
S          7.29670        1.66330        4.33720
C          6.34790        2.39350        3.08390
C          5.73190        3.62080        2.78570
C          5.61530        4.81230        3.53590
C          4.66710        5.80760        3.11710
N          4.59700        6.82410        3.96180
S          5.63860        6.56040        5.17260
N          6.21530        5.13200        4.67140
C          3.97080        5.62530        1.90180
C          2.99240        6.40040        1.25240
S          1.97090        7.77080        1.55340
C          1.15760        7.47170        0.03450
C         -0.00290        8.01800       -0.55290
C         -0.75550        9.13930        0.03300
C         -0.23230       10.42500       -0.03190
C         -0.93670       11.47930        0.51880
C         -2.15510       11.25700        1.13560
C         -2.68310        9.97540        1.21970
C         -3.97850        9.72100        1.93410
C         -3.72240        9.43790        3.41570
C         -1.96880        8.92040        0.67000
C         -0.31630        7.38580       -1.73400
S          0.84120        6.11870       -2.14510
C          1.70300        6.40400       -0.67780
C          2.73630        5.77950        0.02870
N          3.49070        4.64550       -0.10070
C          4.22670        4.50300        1.06550
C          5.00880        3.43470        1.57430
N          5.17340        2.12360        1.16340
C          5.95330        1.49230        2.09240
C          6.37410        0.18600        2.36600
S          6.15290       -1.37520        1.66520
C          4.41600        1.34140        0.21410
C          2.93570        1.28450        0.58240
C          3.71790        4.08580       -1.41580
C          5.18450        4.18480       -1.82490
C         -1.44310        7.50430       -2.60550
S         -3.06530        7.72310       -1.96580
C         -3.73090        7.39700       -3.52560
C         -4.95220        7.17180       -4.15980
C         -4.64110        6.87110       -5.51430
N         -3.28280        6.93910       -5.71010
C         -2.57610        6.57030       -6.90910
C         -2.25500        5.07710       -6.93740
C         -2.71990        7.20750       -4.49200
C         -1.42830        7.25300       -3.95990
C         -5.75140        6.52620       -6.25920
C         -6.91840        6.50760       -5.48690
S         -6.62800        6.99450       -3.81510
C         -8.13150        6.05400       -6.02180
C         -9.32410        5.76430       -5.40900
C         -9.61130        5.90460       -3.97730
O         -8.92150        6.44440       -3.13030
C        -10.91480        5.25430       -3.75320
C        -11.55880        5.06600       -2.53260
C        -12.74710        4.38200       -2.62810
C        -13.26170        3.92760       -3.84910
C        -12.64160        4.11710       -5.06160
C        -11.42560        4.80320       -4.98660
C        -10.47510        5.15420       -6.04180
C        -10.66630        4.93740       -7.38360
C        -11.81430        4.33830       -7.94150
N        -12.71320        3.85750       -8.47060
C         -9.76440        5.28440       -8.41010
N         -9.09280        5.53360       -9.30900
C        -14.47060        3.30170       -3.19870
C        -14.44370        1.76740       -3.03230
C        -15.48260        1.50000       -1.96730
C        -14.99450        1.92950       -0.81070
C        -13.61750        2.49460       -1.07460
C        -13.16480        1.56610       -2.20890
C        -13.89610        3.80790       -1.83680
H          5.49590      -11.59720        3.30840
H          2.86180      -11.10630       -2.37180
H          1.55480      -12.23730       -4.14530
H          0.40570      -14.26360       -5.00440
H          1.50270      -16.41850       -1.48870
H          2.79440      -15.33300        0.27140
H          8.30830       -6.37480        6.08500
H          7.91350       -8.10230        5.96560
H          6.67890       -7.03810        7.85380
H          5.55080       -7.60080        6.61530
H          5.94570       -5.88330        6.73470
H          6.48500       -9.85680        4.56120
H          7.69870       -4.00900        5.05400
H          9.75220       -2.68570        3.99100
H         11.20710       -3.04770        5.94880
H         10.65070       -2.01510        8.11250
H          7.47270       -0.36150        8.84450
H          9.01380       -0.91110        9.52050
H          8.84530        1.57170        9.58280
H          8.62060        1.60850        7.83010
H         10.15460        1.06610        8.50960
H          7.16220       -0.27700        6.38390
H          0.71690       10.59350       -0.51920
H         -0.53390       12.48000        0.46390
H         -2.70280       12.08710        1.55800
H         -4.62940       10.59240        1.84090
H         -4.48540        8.86550        1.48380
H         -3.07930        8.56810        3.52890
H         -4.65920        9.24820        3.93420
H         -3.23130       10.28800        3.88420
H         -2.35690        7.91470        0.74440
H          4.56520        1.72020       -0.79710
H          4.83100        0.33090        0.24240
H          2.49980        2.27960        0.62240
H          2.81590        0.82130        1.55900
H          2.39470        0.69130       -0.14990
H          3.35520        3.05770       -1.47130
H          3.11010        4.67380       -2.10850
H          5.31950        3.76660       -2.81890
H          5.82650        3.65050       -1.12880
H          5.49650        5.22660       -1.84100
H         -3.19880        6.83810       -7.76640
H         -1.65280        7.15440       -6.95420
H         -3.17190        4.49400       -6.89710
H         -1.63640        4.80850       -6.08410
H         -1.72130        4.82750       -7.85010
H         -0.51830        7.09540       -4.51060
H         -5.75250        6.25780       -7.30060
H         -8.06870        5.83950       -7.08200
H        -11.12580        5.43370       -1.61550
H        -13.05200        3.76000       -5.99110
H        -15.43710        3.67730       -3.52890
H        -14.53680        1.20750       -3.95880
H        -16.45530        1.09040       -2.16750
H        -15.47800        1.95060        0.14840
H        -12.95770        2.59650       -0.21710
H        -12.25630        1.89070       -2.71270
H        -13.04800        0.53620       -1.87560
H        -14.48020        4.52060       -1.25750
