170

C          8.94730       10.25370        0.97270
C          9.94710        9.97020        0.08550
C         10.33380       10.97120       -0.93880
O         10.04450       12.14750       -0.95680
C         11.08170       10.20560       -1.95870
C         11.54150       10.61420       -3.17660
C         12.20250        9.68450       -4.01160
C         12.69180       10.05400       -5.28090
C         13.32210        9.14590       -6.08570
C         13.47860        7.83060       -5.62930
F         14.10120        6.94980       -6.43580
C         13.02390        7.41940       -4.40750
C         12.37340        8.34180       -3.56520
C         11.89590        7.94850       -2.29280
C         11.26370        8.86800       -1.50240
C         10.69600        8.76160       -0.16150
C         11.05300        7.83120        0.78190
C         11.87710        6.72230        0.51430
N         12.53570        5.79800        0.33880
C         10.71100        7.95880        2.14340
N         10.49420        8.07140        3.26540
C          8.10130        9.36830        1.66600
S          7.90430        7.68080        1.17860
C          6.68990        7.46410        2.37270
C          5.81720        6.50550        2.87170
C          5.07240        7.12850        3.90020
N          5.45820        8.43430        4.02810
C          5.01730        9.34390        5.05420
C          5.73200        9.07880        6.37740
C          6.45550        8.65370        3.11150
C          7.23640        9.72220        2.69420
C          4.12530        6.29140        4.49390
C          4.14740        5.02760        3.93980
S          5.34550        4.86190        2.65830
C          3.30510        3.91800        4.22840
C          2.41660        3.72630        5.27570
C          2.29480        4.55050        6.48020
C          3.42290        4.91990        7.21000
C          3.28080        5.65310        8.37210
C          2.02170        6.01540        8.82160
C          0.88620        5.64550        8.11300
C         -0.48680        5.97120        8.62480
C         -1.03870        4.79520        9.43340
C          1.03550        4.91240        6.94460
C          1.65070        2.55910        5.08310
S          0.36040        1.81850        6.00380
C          0.25840        0.56250        4.81540
C         -0.49850       -0.58960        4.53630
C         -1.51840       -1.25060        5.25530
C         -2.09770       -2.44600        4.70550
N         -3.01110       -2.97640        5.50280
S         -3.13570       -2.05420        6.82790
N         -2.03000       -0.93800        6.43530
C         -1.71840       -2.85750        3.40840
C         -2.26160       -3.81700        2.53850
S         -3.51860       -5.00720        2.51450
C         -3.21820       -5.26940        0.81030
C         -3.80980       -6.11040       -0.15640
C         -4.85120       -7.09090        0.14220
C         -4.85310       -8.34240       -0.47100
C         -5.83150       -9.26520       -0.15800
C         -6.79720       -8.96800        0.78810
C         -6.79330       -7.73890        1.43540
C         -7.82510       -7.42320        2.48170
C         -9.09660       -6.84540        1.85870
C         -5.82670       -6.80610        1.09350
C         -3.20280       -5.94280       -1.38960
S         -1.89400       -4.78310       -1.35570
C         -2.17360       -4.48370        0.31650
C         -1.62560       -3.65610        1.30470
N         -0.69180       -2.65880        1.38530
C         -0.72080       -2.15850        2.67200
C         -0.01920       -1.09880        3.29840
N          1.03970       -0.31410        2.86990
C          1.18510        0.70200        3.78030
C          1.97940        1.84320        3.93060
S          3.23290        2.62400        3.03960
C          2.19240       -0.71610        2.09120
C          3.34740       -1.14830        2.99500
C         -0.11600       -2.10750        0.17890
C          0.98630       -2.99990       -0.39250
C         -3.56860       -6.49800       -2.66780
C         -2.61550       -6.88890       -3.59850
F         -1.30930       -6.85170       -3.27730
C         -2.96570       -7.34300       -4.86680
F         -1.98590       -7.69140       -5.71320
C         -4.28440       -7.39360       -5.30010
C         -5.28690       -7.06160       -4.34660
N         -6.58860       -7.23770       -4.66020
C         -7.49490       -6.89470       -3.78240
O         -8.78820       -7.11150       -4.00060
C         -9.16700       -7.77400       -5.20340
C         -8.78110       -9.24610       -5.21740
C         -7.13570       -6.24600       -2.55130
N         -5.88520       -6.13730       -2.22250
C         -4.93060       -6.58820       -3.06250
C         -8.18210       -5.70740       -1.64480
C         -4.58470       -7.80960       -6.64160
C         -5.58960       -7.39140       -7.44530
C         -5.94400       -8.18810       -8.65580
O         -5.30500       -9.09130       -9.14180
C         -7.25720       -7.66940       -9.08690
C         -8.06840       -8.11630      -10.10910
C         -9.28240       -7.47290      -10.34120
C        -10.16880       -7.91010      -11.46260
C         -9.64410       -6.39950       -9.52910
C         -8.83230       -5.93970       -8.50400
C         -7.62100       -6.57730       -8.27670
C         -6.54370       -6.30520       -7.32940
C         -6.38690       -5.14080       -6.62640
C         -5.21410       -4.76590       -5.94100
N         -4.28100       -4.36750       -5.40340
C         -7.37760       -4.14340       -6.52430
N         -8.16390       -3.32240       -6.36240
H          8.70490       11.30750        1.07350
H         11.40190       11.63400       -3.50270
H         12.55880       11.07340       -5.61100
H         13.70090        9.41270       -7.05960
H         13.16460        6.39900       -4.08700
H         12.02960        6.92500       -1.97910
H          3.93710        9.22350        5.18070
H          5.21720       10.36190        4.71220
H          6.80750        9.17830        6.25090
H          5.39930        9.78890        7.12930
H          5.51450        8.07200        6.72630
H          7.22100       10.71250        3.11190
H          3.44160        6.58110        5.26920
H          4.40230        4.62060        6.86720
H          4.15670        5.93730        8.93710
H          1.92020        6.58520        9.73400
H         -0.44830        6.86020        9.25740
H         -1.15600        6.17490        7.78630
H         -1.08740        3.90130        8.81580
H         -2.03740        5.02140        9.79930
H         -0.39500        4.58740       10.28520
H          0.15970        4.62620        6.38080
H         -4.07780       -8.59610       -1.17890
H         -5.83080      -10.23150       -0.64170
H         -7.54830       -9.70320        1.04000
H         -8.07830       -8.33520        3.02640
H         -7.41550       -6.70430        3.19330
H         -9.84590       -6.66730        2.62650
H         -9.50950       -7.53690        1.12730
H         -8.88210       -5.90320        1.36080
H         -5.83360       -5.83960        1.57460
H          1.92630       -1.55070        1.45380
H          2.50280        0.13270        1.47340
H          3.68490       -0.32590        3.61950
H          3.03480       -1.96840        3.63820
H          4.18190       -1.48070        2.38380
H         -0.91730       -2.03010       -0.56450
H          0.24090       -1.09800        0.38460
H          1.47590       -2.49400       -1.21960
H          1.73250       -3.25120        0.35830
H          0.56180       -3.92880       -0.76300
H        -10.25230       -7.65590       -5.24190
H         -8.71400       -7.26050       -6.05590
H         -9.19410       -9.75320       -4.34880
H         -9.17130       -9.71010       -6.11880
H         -7.69930       -9.34950       -5.20880
H         -7.70650       -5.24660       -0.78510
H         -8.83720       -6.51360       -1.32040
H         -8.79160       -4.97690       -2.17410
H         -3.94350       -8.58100       -7.05790
H         -7.75410       -8.95060      -10.71820
H         -9.88970       -7.38420      -12.37630
H        -10.06490       -8.97660      -11.64650
H        -11.21050       -7.68260      -11.24990
H        -10.58800       -5.90510       -9.70670
H         -9.15320       -5.10700       -7.89890
