193

C         -4.79290        5.11630      -10.60280
C         -6.11630        4.79260      -10.69000
C         -6.93650        5.45950      -11.73850
O         -6.52810        6.06440      -12.70320
C         -8.33750        5.27540      -11.31140
C         -9.47680        5.78970      -11.85840
C        -10.72150        5.50680      -11.25180
C        -11.92840        6.01290      -11.77600
C        -13.12670        5.73860      -11.17740
C        -13.14170        4.94060      -10.02560
F        -14.32970        4.68160       -9.44880
C        -12.00120        4.42430       -9.47640
C        -10.75830        4.69500      -10.08100
C         -9.56170        4.16680       -9.54220
C         -8.36950        4.44820      -10.15210
C         -7.00540        4.01480       -9.85590
C         -6.68330        2.91580       -9.09850
C         -5.40460        2.32270       -9.08610
N         -4.39290        1.78080       -9.07870
C         -7.59170        2.23020       -8.27120
N         -8.27190        1.66970       -7.53430
C         -3.90020        4.94230       -9.52330
C         -4.17710        4.62360       -8.21570
C         -3.04050        4.51570       -7.39760
C         -3.00250        4.07670       -6.05910
C         -4.24490        3.70240       -5.37060
C         -5.32510        4.58200       -5.30900
C         -6.51030        4.17510       -4.72720
C         -6.64280        2.90260       -4.19930
C         -5.56670        2.02670       -4.24360
S         -5.57790        0.39970       -3.55960
C         -7.34600       -0.02310       -3.37420
C         -8.03420       -0.22690       -4.70920
C         -4.37110        2.43270       -4.82730
C         -1.75080        3.95090       -5.49200
C         -0.55240        4.26470       -6.18770
C         -0.58940        4.69580       -7.52630
C          0.64660        5.03560       -8.24550
C          0.75780        6.25260       -8.90900
C          1.94270        6.58730       -9.54210
C          3.01530        5.72010       -9.52150
C          2.90730        4.49200       -8.87160
S          4.35030        3.47470       -8.89680
C          3.84070        1.89160       -8.14560
C          2.98420        1.05690       -9.07900
C          1.72330        4.15230       -8.23910
C         -1.84270        4.80110       -8.10600
S         -2.17760        5.20310       -9.76660
C          0.58780        4.10600       -5.37050
C          0.30770        3.68430       -4.10050
S         -1.41650        3.45060       -3.85490
C          1.21920        3.40410       -3.04210
C          2.59340        3.57710       -2.99650
C          3.45260        4.16860       -4.02980
C          3.24120        5.45790       -4.50960
C          4.07430        5.97300       -5.48560
C          5.12880        5.22130       -5.97310
C          5.37330        3.94500       -5.48160
C          6.56250        3.15870       -5.94930
C          7.79530        3.52920       -5.12250
C          4.52790        3.42950       -4.51060
C          3.12640        3.08230       -1.79160
S          4.75490        3.04200       -1.15800
C          4.14910        2.28800        0.27810
C          4.62220        1.80900        1.51160
C          5.89170        1.88080        2.12670
C          6.04470        1.38640        3.46690
N          7.26670        1.57490        3.93850
S          8.15130        2.30550        2.79570
N          7.00910        2.40970        1.65370
C          4.96290        0.70820        4.07200
C          4.88770       -0.06250        5.24230
S          5.88810       -0.49980        6.58350
C          4.62760       -1.57240        7.14110
C          4.56020       -2.46990        8.22070
C          5.66900       -2.72520        9.13590
C          6.04010       -4.02870        9.45840
C          7.08760       -4.24820       10.33070
C          7.77540       -3.17890       10.87990
C          7.43030       -1.87450       10.55370
C          8.20190       -0.70700       11.09560
C          9.22600       -0.22400       10.06640
C          6.37920       -1.65980        9.67530
C          3.35060       -3.15040        8.22500
S          2.32090       -2.71380        6.87130
C          3.49570       -1.57470        6.31720
C          3.63780       -0.69280        5.23970
N          2.92550       -0.30800        4.13410
C          3.71150        0.56710        3.40990
C          3.50080        1.25730        2.19000
N          2.36850        1.45400        1.41550
C          2.76820        2.07530        0.25990
C          2.17760        2.54490       -0.91910
S          0.58960        2.64240       -1.58740
C          0.99840        1.61980        1.85100
C          0.69810        3.08280        2.17720
C          1.74960       -1.04490        3.72770
C          0.52850       -0.69450        4.57800
C          2.88950       -4.11900        9.15060
C          3.15870       -4.23600       10.50440
C          3.80410       -3.45850       11.57630
O          4.29350       -2.35750       11.57240
N          3.66860       -4.25130       12.71610
C          4.18600       -3.85910       14.00310
C          2.91970       -5.40210       12.51520
O          2.61040       -6.19180       13.37140
C          2.59020       -5.38010       11.07820
C          1.84130       -6.16800       10.21720
S          1.84110       -5.41940        8.62550
C          1.25710       -7.38840       10.60280
C          0.43820       -8.21640        9.88610
C         -0.14700       -7.90560        8.57220
O          0.12870       -6.97100        7.84100
C         -1.15960       -8.94300        8.32250
C         -2.01240       -9.06800        7.26370
C         -2.92120      -10.14850        7.23700
C         -3.82230      -10.32790        6.16730
C         -4.69970      -11.37610        6.15420
C         -4.69380      -12.27870        7.22650
F         -5.56490      -13.30290        7.19610
C         -3.84110      -12.15140        8.28780
C         -2.92910      -11.07870        8.31720
C         -2.02960      -10.92560        9.39840
C         -1.15220       -9.87460        9.39980
C         -0.10860       -9.48150       10.34290
C          0.33530      -10.22940       11.39960
C         -0.24490      -11.45440       11.79160
N         -0.68300      -12.44950       12.15940
C          1.47130       -9.93360       12.18580
N          2.41240       -9.80150       12.82910
H         -4.39950        5.64560      -11.46530
H         -9.43030        6.40610      -12.74360
H        -11.89120        6.62560      -12.66410
H        -14.05840        6.11830      -11.56570
H        -12.05120        3.81060       -8.59050
H         -9.61840        3.55930       -8.65270
H         -5.17430        4.49840       -7.83690
H         -5.22460        5.58490       -5.69810
H         -7.34760        4.85640       -4.68050
H         -7.58090        2.61420       -3.75370
H         -7.32590       -0.94970       -2.79960
H         -7.82430        0.74670       -2.76940
H         -8.00410        0.67530       -5.31590
H         -9.07490       -0.50170       -4.54890
H         -7.54620       -1.02410       -5.26500
H         -3.54890        1.73540       -4.87800
H         -0.07220        6.94250       -8.90880
H          2.03010        7.53510      -10.05150
H          3.94430        5.97570      -10.00740
H          3.34970        2.10740       -7.19670
H          4.78550        1.38950       -7.93830
H          3.53230        0.83790       -9.99260
H          2.06890        1.57880       -9.34840
H          2.71920        0.11700       -8.59750
H          1.60310        3.20060       -7.74750
H          1.58310        4.31030       -5.71340
H          2.42570        6.04790       -4.11720
H          3.89830        6.96730       -5.86880
H          5.76920        5.62630       -6.74220
H          6.75300        3.37020       -7.00320
H          6.36790        2.08970       -5.83990
H          8.65800        2.95320       -5.44870
H          8.02130        4.58710       -5.23360
H          7.61820        3.32600       -4.06840
H          4.69700        2.43250       -4.12840
H          5.51810       -4.86400        9.01430
H          7.37120       -5.25990       10.58330
H          8.58860       -3.36090       11.56810
H          7.51430        0.10760       11.33020
H          8.71780       -0.99500       12.01340
H          8.72820        0.07170        9.14580
H          9.77980        0.62860       10.45250
H          9.93090       -1.01900        9.83300
H          6.08350       -0.64990        9.43460
H          0.81670        1.02110        2.73530
H          0.34460        1.27870        1.04230
H          1.36090        3.43710        2.96410
H         -0.33020        3.17780        2.51440
H          0.83260        3.71080        1.30070
H          1.57200       -0.86800        2.66620
H          1.96460       -2.11230        3.85360
H          0.66390       -1.05570        5.59350
H         -0.35670       -1.16700        4.16160
H          0.36580        0.38010        4.62520
H          5.27370       -3.94780       14.01380
H          3.91470       -2.82310       14.20590
H          3.75470       -4.51960       14.75320
H          1.50600       -7.66740       11.62150
H         -1.99300       -8.35110        6.45650
H         -3.80770       -9.61920        5.35300
H         -5.39500      -11.52830        5.34400
H         -3.86310      -12.86670        9.09500
H         -2.06190      -11.64440       10.20120
