
  xtb     02112219013D
 energy: -341.525074654828 gnorm: 0.000925683197 xtb: 6.4.1 (unknown)
193215  0     0  0            999 V2000
   -4.7929    5.1163  -10.6028 C   0  0  0  0  0  0  0  0  0  0  0  0
   -6.1163    4.7926  -10.6900 C   0  0  0  0  0  0  0  0  0  0  0  0
   -6.9365    5.4595  -11.7385 C   0  0  0  0  0  0  0  0  0  0  0  0
   -6.5281    6.0644  -12.7032 O   0  0  0  0  0  0  0  0  0  0  0  0
   -8.3375    5.2754  -11.3114 C   0  0  0  0  0  0  0  0  0  0  0  0
   -9.4768    5.7897  -11.8584 C   0  0  0  0  0  0  0  0  0  0  0  0
  -10.7215    5.5068  -11.2518 C   0  0  0  0  0  0  0  0  0  0  0  0
  -11.9284    6.0129  -11.7760 C   0  0  0  0  0  0  0  0  0  0  0  0
  -13.1267    5.7386  -11.1774 C   0  0  0  0  0  0  0  0  0  0  0  0
  -13.1417    4.9406  -10.0256 C   0  0  0  0  0  0  0  0  0  0  0  0
  -14.3297    4.6816   -9.4488 F   0  0  0  0  0  0  0  0  0  0  0  0
  -12.0012    4.4243   -9.4764 C   0  0  0  0  0  0  0  0  0  0  0  0
  -10.7583    4.6950  -10.0810 C   0  0  0  0  0  0  0  0  0  0  0  0
   -9.5617    4.1668   -9.5422 C   0  0  0  0  0  0  0  0  0  0  0  0
   -8.3695    4.4482  -10.1521 C   0  0  0  0  0  0  0  0  0  0  0  0
   -7.0054    4.0148   -9.8559 C   0  0  0  0  0  0  0  0  0  0  0  0
   -6.6833    2.9158   -9.0985 C   0  0  0  0  0  0  0  0  0  0  0  0
   -5.4046    2.3227   -9.0861 C   0  0  0  0  0  0  0  0  0  0  0  0
   -4.3929    1.7808   -9.0787 N   0  0  0  0  0  0  0  0  0  0  0  0
   -7.5917    2.2302   -8.2712 C   0  0  0  0  0  0  0  0  0  0  0  0
   -8.2719    1.6697   -7.5343 N   0  0  0  0  0  0  0  0  0  0  0  0
   -3.9002    4.9423   -9.5233 C   0  0  0  0  0  0  0  0  0  0  0  0
   -4.1771    4.6236   -8.2157 C   0  0  0  0  0  0  0  0  0  0  0  0
   -3.0405    4.5157   -7.3976 C   0  0  0  0  0  0  0  0  0  0  0  0
   -3.0025    4.0767   -6.0591 C   0  0  0  0  0  0  0  0  0  0  0  0
   -4.2449    3.7024   -5.3706 C   0  0  0  0  0  0  0  0  0  0  0  0
   -5.3251    4.5820   -5.3090 C   0  0  0  0  0  0  0  0  0  0  0  0
   -6.5103    4.1751   -4.7272 C   0  0  0  0  0  0  0  0  0  0  0  0
   -6.6428    2.9026   -4.1993 C   0  0  0  0  0  0  0  0  0  0  0  0
   -5.5667    2.0267   -4.2436 C   0  0  0  0  0  0  0  0  0  0  0  0
   -5.5779    0.3997   -3.5596 S   0  0  0  0  0  0  0  0  0  0  0  0
   -7.3460   -0.0231   -3.3742 C   0  0  0  0  0  0  0  0  0  0  0  0
   -8.0342   -0.2269   -4.7092 C   0  0  0  0  0  0  0  0  0  0  0  0
   -4.3711    2.4327   -4.8273 C   0  0  0  0  0  0  0  0  0  0  0  0
   -1.7508    3.9509   -5.4920 C   0  0  0  0  0  0  0  0  0  0  0  0
   -0.5524    4.2647   -6.1877 C   0  0  0  0  0  0  0  0  0  0  0  0
   -0.5894    4.6958   -7.5263 C   0  0  0  0  0  0  0  0  0  0  0  0
    0.6466    5.0356   -8.2455 C   0  0  0  0  0  0  0  0  0  0  0  0
    0.7578    6.2526   -8.9090 C   0  0  0  0  0  0  0  0  0  0  0  0
    1.9427    6.5873   -9.5421 C   0  0  0  0  0  0  0  0  0  0  0  0
    3.0153    5.7201   -9.5215 C   0  0  0  0  0  0  0  0  0  0  0  0
    2.9073    4.4920   -8.8716 C   0  0  0  0  0  0  0  0  0  0  0  0
    4.3503    3.4747   -8.8968 S   0  0  0  0  0  0  0  0  0  0  0  0
    3.8407    1.8916   -8.1456 C   0  0  0  0  0  0  0  0  0  0  0  0
    2.9842    1.0569   -9.0790 C   0  0  0  0  0  0  0  0  0  0  0  0
    1.7233    4.1523   -8.2391 C   0  0  0  0  0  0  0  0  0  0  0  0
   -1.8427    4.8011   -8.1060 C   0  0  0  0  0  0  0  0  0  0  0  0
   -2.1776    5.2031   -9.7666 S   0  0  0  0  0  0  0  0  0  0  0  0
    0.5878    4.1060   -5.3705 C   0  0  0  0  0  0  0  0  0  0  0  0
    0.3077    3.6843   -4.1005 C   0  0  0  0  0  0  0  0  0  0  0  0
   -1.4165    3.4506   -3.8549 S   0  0  0  0  0  0  0  0  0  0  0  0
    1.2192    3.4041   -3.0421 C   0  0  0  0  0  0  0  0  0  0  0  0
    2.5934    3.5771   -2.9965 C   0  0  0  0  0  0  0  0  0  0  0  0
    3.4526    4.1686   -4.0298 C   0  0  0  0  0  0  0  0  0  0  0  0
    3.2412    5.4579   -4.5096 C   0  0  0  0  0  0  0  0  0  0  0  0
    4.0743    5.9730   -5.4856 C   0  0  0  0  0  0  0  0  0  0  0  0
    5.1288    5.2213   -5.9731 C   0  0  0  0  0  0  0  0  0  0  0  0
    5.3733    3.9450   -5.4816 C   0  0  0  0  0  0  0  0  0  0  0  0
    6.5625    3.1587   -5.9493 C   0  0  0  0  0  0  0  0  0  0  0  0
    7.7953    3.5292   -5.1225 C   0  0  0  0  0  0  0  0  0  0  0  0
    4.5279    3.4295   -4.5106 C   0  0  0  0  0  0  0  0  0  0  0  0
    3.1264    3.0823   -1.7916 C   0  0  0  0  0  0  0  0  0  0  0  0
    4.7549    3.0420   -1.1580 S   0  0  0  0  0  0  0  0  0  0  0  0
    4.1491    2.2880    0.2781 C   0  0  0  0  0  0  0  0  0  0  0  0
    4.6222    1.8090    1.5116 C   0  0  0  0  0  0  0  0  0  0  0  0
    5.8917    1.8808    2.1267 C   0  0  0  0  0  0  0  0  0  0  0  0
    6.0447    1.3864    3.4669 C   0  0  0  0  0  0  0  0  0  0  0  0
    7.2667    1.5749    3.9385 N   0  0  0  0  0  0  0  0  0  0  0  0
    8.1513    2.3055    2.7957 S   0  0  0  0  0  0  0  0  0  0  0  0
    7.0091    2.4097    1.6537 N   0  0  0  0  0  0  0  0  0  0  0  0
    4.9629    0.7082    4.0720 C   0  0  0  0  0  0  0  0  0  0  0  0
    4.8877   -0.0625    5.2423 C   0  0  0  0  0  0  0  0  0  0  0  0
    5.8881   -0.4998    6.5835 S   0  0  0  0  0  0  0  0  0  0  0  0
    4.6276   -1.5724    7.1411 C   0  0  0  0  0  0  0  0  0  0  0  0
    4.5602   -2.4699    8.2207 C   0  0  0  0  0  0  0  0  0  0  0  0
    5.6690   -2.7252    9.1359 C   0  0  0  0  0  0  0  0  0  0  0  0
    6.0401   -4.0287    9.4584 C   0  0  0  0  0  0  0  0  0  0  0  0
    7.0876   -4.2482   10.3307 C   0  0  0  0  0  0  0  0  0  0  0  0
    7.7754   -3.1789   10.8799 C   0  0  0  0  0  0  0  0  0  0  0  0
    7.4303   -1.8745   10.5537 C   0  0  0  0  0  0  0  0  0  0  0  0
    8.2019   -0.7070   11.0956 C   0  0  0  0  0  0  0  0  0  0  0  0
    9.2260   -0.2240   10.0664 C   0  0  0  0  0  0  0  0  0  0  0  0
    6.3792   -1.6598    9.6753 C   0  0  0  0  0  0  0  0  0  0  0  0
    3.3506   -3.1504    8.2250 C   0  0  0  0  0  0  0  0  0  0  0  0
    2.3209   -2.7138    6.8713 S   0  0  0  0  0  0  0  0  0  0  0  0
    3.4957   -1.5747    6.3172 C   0  0  0  0  0  0  0  0  0  0  0  0
    3.6378   -0.6928    5.2397 C   0  0  0  0  0  0  0  0  0  0  0  0
    2.9255   -0.3080    4.1341 N   0  0  0  0  0  0  0  0  0  0  0  0
    3.7115    0.5671    3.4099 C   0  0  0  0  0  0  0  0  0  0  0  0
    3.5008    1.2573    2.1900 C   0  0  0  0  0  0  0  0  0  0  0  0
    2.3685    1.4540    1.4155 N   0  0  0  0  0  0  0  0  0  0  0  0
    2.7682    2.0753    0.2599 C   0  0  0  0  0  0  0  0  0  0  0  0
    2.1776    2.5449   -0.9191 C   0  0  0  0  0  0  0  0  0  0  0  0
    0.5896    2.6424   -1.5874 S   0  0  0  0  0  0  0  0  0  0  0  0
    0.9984    1.6198    1.8510 C   0  0  0  0  0  0  0  0  0  0  0  0
    0.6981    3.0828    2.1772 C   0  0  0  0  0  0  0  0  0  0  0  0
    1.7496   -1.0449    3.7277 C   0  0  0  0  0  0  0  0  0  0  0  0
    0.5285   -0.6945    4.5780 C   0  0  0  0  0  0  0  0  0  0  0  0
    2.8895   -4.1190    9.1506 C   0  0  0  0  0  0  0  0  0  0  0  0
    3.1587   -4.2360   10.5044 C   0  0  0  0  0  0  0  0  0  0  0  0
    3.8041   -3.4585   11.5763 C   0  0  0  0  0  0  0  0  0  0  0  0
    4.2935   -2.3575   11.5724 O   0  0  0  0  0  0  0  0  0  0  0  0
    3.6686   -4.2513   12.7161 N   0  0  0  0  0  0  0  0  0  0  0  0
    4.1860   -3.8591   14.0031 C   0  0  0  0  0  0  0  0  0  0  0  0
    2.9197   -5.4021   12.5152 C   0  0  0  0  0  0  0  0  0  0  0  0
    2.6104   -6.1918   13.3714 O   0  0  0  0  0  0  0  0  0  0  0  0
    2.5902   -5.3801   11.0782 C   0  0  0  0  0  0  0  0  0  0  0  0
    1.8413   -6.1680   10.2172 C   0  0  0  0  0  0  0  0  0  0  0  0
    1.8411   -5.4194    8.6255 S   0  0  0  0  0  0  0  0  0  0  0  0
    1.2571   -7.3884   10.6028 C   0  0  0  0  0  0  0  0  0  0  0  0
    0.4382   -8.2164    9.8861 C   0  0  0  0  0  0  0  0  0  0  0  0
   -0.1470   -7.9056    8.5722 C   0  0  0  0  0  0  0  0  0  0  0  0
    0.1287   -6.9710    7.8410 O   0  0  0  0  0  0  0  0  0  0  0  0
   -1.1596   -8.9430    8.3225 C   0  0  0  0  0  0  0  0  0  0  0  0
   -2.0124   -9.0680    7.2637 C   0  0  0  0  0  0  0  0  0  0  0  0
   -2.9212  -10.1485    7.2370 C   0  0  0  0  0  0  0  0  0  0  0  0
   -3.8223  -10.3279    6.1673 C   0  0  0  0  0  0  0  0  0  0  0  0
   -4.6997  -11.3761    6.1542 C   0  0  0  0  0  0  0  0  0  0  0  0
   -4.6938  -12.2787    7.2265 C   0  0  0  0  0  0  0  0  0  0  0  0
   -5.5649  -13.3029    7.1961 F   0  0  0  0  0  0  0  0  0  0  0  0
   -3.8411  -12.1514    8.2878 C   0  0  0  0  0  0  0  0  0  0  0  0
   -2.9291  -11.0787    8.3172 C   0  0  0  0  0  0  0  0  0  0  0  0
   -2.0296  -10.9256    9.3984 C   0  0  0  0  0  0  0  0  0  0  0  0
   -1.1522   -9.8746    9.3998 C   0  0  0  0  0  0  0  0  0  0  0  0
   -0.1086   -9.4815   10.3429 C   0  0  0  0  0  0  0  0  0  0  0  0
    0.3353  -10.2294   11.3996 C   0  0  0  0  0  0  0  0  0  0  0  0
   -0.2449  -11.4544   11.7916 C   0  0  0  0  0  0  0  0  0  0  0  0
   -0.6830  -12.4495   12.1594 N   0  0  0  0  0  0  0  0  0  0  0  0
    1.4713   -9.9336   12.1858 C   0  0  0  0  0  0  0  0  0  0  0  0
    2.4124   -9.8015   12.8291 N   0  0  0  0  0  0  0  0  0  0  0  0
   -4.3995    5.6456  -11.4653 H   0  0  0  0  0  0  0  0  0  0  0  0
   -9.4303    6.4061  -12.7436 H   0  0  0  0  0  0  0  0  0  0  0  0
  -11.8912    6.6256  -12.6641 H   0  0  0  0  0  0  0  0  0  0  0  0
  -14.0584    6.1183  -11.5657 H   0  0  0  0  0  0  0  0  0  0  0  0
  -12.0512    3.8106   -8.5905 H   0  0  0  0  0  0  0  0  0  0  0  0
   -9.6184    3.5593   -8.6527 H   0  0  0  0  0  0  0  0  0  0  0  0
   -5.1743    4.4984   -7.8369 H   0  0  0  0  0  0  0  0  0  0  0  0
   -5.2246    5.5849   -5.6981 H   0  0  0  0  0  0  0  0  0  0  0  0
   -7.3476    4.8564   -4.6805 H   0  0  0  0  0  0  0  0  0  0  0  0
   -7.5809    2.6142   -3.7537 H   0  0  0  0  0  0  0  0  0  0  0  0
   -7.3259   -0.9497   -2.7996 H   0  0  0  0  0  0  0  0  0  0  0  0
   -7.8243    0.7467   -2.7694 H   0  0  0  0  0  0  0  0  0  0  0  0
   -8.0041    0.6753   -5.3159 H   0  0  0  0  0  0  0  0  0  0  0  0
   -9.0749   -0.5017   -4.5489 H   0  0  0  0  0  0  0  0  0  0  0  0
   -7.5462   -1.0241   -5.2650 H   0  0  0  0  0  0  0  0  0  0  0  0
   -3.5489    1.7354   -4.8780 H   0  0  0  0  0  0  0  0  0  0  0  0
   -0.0722    6.9425   -8.9088 H   0  0  0  0  0  0  0  0  0  0  0  0
    2.0301    7.5351  -10.0515 H   0  0  0  0  0  0  0  0  0  0  0  0
    3.9443    5.9757  -10.0074 H   0  0  0  0  0  0  0  0  0  0  0  0
    3.3497    2.1074   -7.1967 H   0  0  0  0  0  0  0  0  0  0  0  0
    4.7855    1.3895   -7.9383 H   0  0  0  0  0  0  0  0  0  0  0  0
    3.5323    0.8379   -9.9926 H   0  0  0  0  0  0  0  0  0  0  0  0
    2.0689    1.5788   -9.3484 H   0  0  0  0  0  0  0  0  0  0  0  0
    2.7192    0.1170   -8.5975 H   0  0  0  0  0  0  0  0  0  0  0  0
    1.6031    3.2006   -7.7475 H   0  0  0  0  0  0  0  0  0  0  0  0
    1.5831    4.3103   -5.7134 H   0  0  0  0  0  0  0  0  0  0  0  0
    2.4257    6.0479   -4.1172 H   0  0  0  0  0  0  0  0  0  0  0  0
    3.8983    6.9673   -5.8688 H   0  0  0  0  0  0  0  0  0  0  0  0
    5.7692    5.6263   -6.7422 H   0  0  0  0  0  0  0  0  0  0  0  0
    6.7530    3.3702   -7.0032 H   0  0  0  0  0  0  0  0  0  0  0  0
    6.3679    2.0897   -5.8399 H   0  0  0  0  0  0  0  0  0  0  0  0
    8.6580    2.9532   -5.4487 H   0  0  0  0  0  0  0  0  0  0  0  0
    8.0213    4.5871   -5.2336 H   0  0  0  0  0  0  0  0  0  0  0  0
    7.6182    3.3260   -4.0684 H   0  0  0  0  0  0  0  0  0  0  0  0
    4.6970    2.4325   -4.1284 H   0  0  0  0  0  0  0  0  0  0  0  0
    5.5181   -4.8640    9.0143 H   0  0  0  0  0  0  0  0  0  0  0  0
    7.3712   -5.2599   10.5833 H   0  0  0  0  0  0  0  0  0  0  0  0
    8.5886   -3.3609   11.5681 H   0  0  0  0  0  0  0  0  0  0  0  0
    7.5143    0.1076   11.3302 H   0  0  0  0  0  0  0  0  0  0  0  0
    8.7178   -0.9950   12.0134 H   0  0  0  0  0  0  0  0  0  0  0  0
    8.7282    0.0717    9.1458 H   0  0  0  0  0  0  0  0  0  0  0  0
    9.7798    0.6286   10.4525 H   0  0  0  0  0  0  0  0  0  0  0  0
    9.9309   -1.0190    9.8330 H   0  0  0  0  0  0  0  0  0  0  0  0
    6.0835   -0.6499    9.4346 H   0  0  0  0  0  0  0  0  0  0  0  0
    0.8167    1.0211    2.7353 H   0  0  0  0  0  0  0  0  0  0  0  0
    0.3446    1.2787    1.0423 H   0  0  0  0  0  0  0  0  0  0  0  0
    1.3609    3.4371    2.9641 H   0  0  0  0  0  0  0  0  0  0  0  0
   -0.3302    3.1778    2.5144 H   0  0  0  0  0  0  0  0  0  0  0  0
    0.8326    3.7108    1.3007 H   0  0  0  0  0  0  0  0  0  0  0  0
    1.5720   -0.8680    2.6662 H   0  0  0  0  0  0  0  0  0  0  0  0
    1.9646   -2.1123    3.8536 H   0  0  0  0  0  0  0  0  0  0  0  0
    0.6639   -1.0557    5.5935 H   0  0  0  0  0  0  0  0  0  0  0  0
   -0.3567   -1.1670    4.1616 H   0  0  0  0  0  0  0  0  0  0  0  0
    0.3658    0.3801    4.6252 H   0  0  0  0  0  0  0  0  0  0  0  0
    5.2737   -3.9478   14.0138 H   0  0  0  0  0  0  0  0  0  0  0  0
    3.9147   -2.8231   14.2059 H   0  0  0  0  0  0  0  0  0  0  0  0
    3.7547   -4.5196   14.7532 H   0  0  0  0  0  0  0  0  0  0  0  0
    1.5060   -7.6674   11.6215 H   0  0  0  0  0  0  0  0  0  0  0  0
   -1.9930   -8.3511    6.4565 H   0  0  0  0  0  0  0  0  0  0  0  0
   -3.8077   -9.6192    5.3530 H   0  0  0  0  0  0  0  0  0  0  0  0
   -5.3950  -11.5283    5.3440 H   0  0  0  0  0  0  0  0  0  0  0  0
   -3.8631  -12.8667    9.0950 H   0  0  0  0  0  0  0  0  0  0  0  0
   -2.0619  -11.6444   10.2012 H   0  0  0  0  0  0  0  0  0  0  0  0
  1  2  2  0  0  0  0
  2  3  1  0  0  0  0
  3  4  2  0  0  0  0
  3  5  1  0  0  0  0
  5  6  2  0  0  0  0
  6  7  1  0  0  0  0
  7  8  2  0  0  0  0
  8  9  1  0  0  0  0
  9 10  2  0  0  0  0
 10 11  1  0  0  0  0
 10 12  1  0  0  0  0
 12 13  2  0  0  0  0
 13 14  1  0  0  0  0
 14 15  2  0  0  0  0
 15 16  1  0  0  0  0
 16 17  2  0  0  0  0
 17 18  1  0  0  0  0
 18 19  3  0  0  0  0
 17 20  1  0  0  0  0
 20 21  3  0  0  0  0
  1 22  1  0  0  0  0
 22 23  2  0  0  0  0
 23 24  1  0  0  0  0
 24 25  2  0  0  0  0
 25 26  1  0  0  0  0
 26 27  2  0  0  0  0
 27 28  1  0  0  0  0
 28 29  2  0  0  0  0
 29 30  1  0  0  0  0
 30 31  1  0  0  0  0
 31 32  1  0  0  0  0
 32 33  1  0  0  0  0
 30 34  2  0  0  0  0
 25 35  1  0  0  0  0
 35 36  2  0  0  0  0
 36 37  1  0  0  0  0
 37 38  1  0  0  0  0
 38 39  2  0  0  0  0
 39 40  1  0  0  0  0
 40 41  2  0  0  0  0
 41 42  1  0  0  0  0
 42 43  1  0  0  0  0
 43 44  1  0  0  0  0
 44 45  1  0  0  0  0
 42 46  2  0  0  0  0
 37 47  2  0  0  0  0
 47 48  1  0  0  0  0
 36 49  1  0  0  0  0
 49 50  2  0  0  0  0
 50 51  1  0  0  0  0
 50 52  1  0  0  0  0
 52 53  2  0  0  0  0
 53 54  1  0  0  0  0
 54 55  2  0  0  0  0
 55 56  1  0  0  0  0
 56 57  2  0  0  0  0
 57 58  1  0  0  0  0
 58 59  1  0  0  0  0
 59 60  1  0  0  0  0
 58 61  2  0  0  0  0
 53 62  1  0  0  0  0
 62 63  1  0  0  0  0
 63 64  1  0  0  0  0
 64 65  1  0  0  0  0
 65 66  1  0  0  0  0
 66 67  1  0  0  0  0
 67 68  2  0  0  0  0
 68 69  1  0  0  0  0
 69 70  1  0  0  0  0
 67 71  1  0  0  0  0
 71 72  1  0  0  0  0
 72 73  1  0  0  0  0
 73 74  1  0  0  0  0
 74 75  1  0  0  0  0
 75 76  1  0  0  0  0
 76 77  2  0  0  0  0
 77 78  1  0  0  0  0
 78 79  2  0  0  0  0
 79 80  1  0  0  0  0
 80 81  1  0  0  0  0
 81 82  1  0  0  0  0
 80 83  2  0  0  0  0
 75 84  2  0  0  0  0
 84 85  1  0  0  0  0
 85 86  1  0  0  0  0
 86 87  1  0  0  0  0
 87 88  1  0  0  0  0
 88 89  1  0  0  0  0
 89 90  1  0  0  0  0
 90 91  1  0  0  0  0
 91 92  1  0  0  0  0
 92 93  1  0  0  0  0
 93 94  1  0  0  0  0
 91 95  1  0  0  0  0
 95 96  1  0  0  0  0
 88 97  1  0  0  0  0
 97 98  1  0  0  0  0
 84 99  1  0  0  0  0
 99100  2  0  0  0  0
100101  1  0  0  0  0
101102  2  0  0  0  0
101103  1  0  0  0  0
103104  1  0  0  0  0
103105  1  0  0  0  0
105106  2  0  0  0  0
105107  1  0  0  0  0
107108  2  0  0  0  0
108109  1  0  0  0  0
108110  1  0  0  0  0
110111  2  0  0  0  0
111112  1  0  0  0  0
112113  2  0  0  0  0
112114  1  0  0  0  0
114115  2  0  0  0  0
115116  1  0  0  0  0
116117  2  0  0  0  0
117118  1  0  0  0  0
118119  2  0  0  0  0
119120  1  0  0  0  0
119121  1  0  0  0  0
121122  2  0  0  0  0
122123  1  0  0  0  0
123124  2  0  0  0  0
124125  1  0  0  0  0
125126  2  0  0  0  0
126127  1  0  0  0  0
127128  3  0  0  0  0
126129  1  0  0  0  0
129130  3  0  0  0  0
 16  2  1  0  0  0  0
 48 22  1  0  0  0  0
 94 52  1  0  0  0  0
109 99  1  0  0  0  0
125111  1  0  0  0  0
 15  5  1  0  0  0  0
 47 24  1  0  0  0  0
 61 54  1  0  0  0  0
 93 62  2  0  0  0  0
107100  1  0  0  0  0
124114  1  0  0  0  0
 13  7  1  0  0  0  0
 34 26  1  0  0  0  0
 51 35  1  0  0  0  0
 92 64  2  0  0  0  0
122116  1  0  0  0  0
 46 38  1  0  0  0  0
 90 65  2  0  0  0  0
 70 66  2  0  0  0  0
 89 71  2  0  0  0  0
 87 72  2  0  0  0  0
 86 74  2  0  0  0  0
 83 76  1  0  0  0  0
  1131  1  0  0  0  0
  6132  1  0  0  0  0
  8133  1  0  0  0  0
  9134  1  0  0  0  0
 12135  1  0  0  0  0
 14136  1  0  0  0  0
 23137  1  0  0  0  0
 27138  1  0  0  0  0
 28139  1  0  0  0  0
 29140  1  0  0  0  0
 32141  1  0  0  0  0
 32142  1  0  0  0  0
 33143  1  0  0  0  0
 33144  1  0  0  0  0
 33145  1  0  0  0  0
 34146  1  0  0  0  0
 39147  1  0  0  0  0
 40148  1  0  0  0  0
 41149  1  0  0  0  0
 44150  1  0  0  0  0
 44151  1  0  0  0  0
 45152  1  0  0  0  0
 45153  1  0  0  0  0
 45154  1  0  0  0  0
 46155  1  0  0  0  0
 49156  1  0  0  0  0
 55157  1  0  0  0  0
 56158  1  0  0  0  0
 57159  1  0  0  0  0
 59160  1  0  0  0  0
 59161  1  0  0  0  0
 60162  1  0  0  0  0
 60163  1  0  0  0  0
 60164  1  0  0  0  0
 61165  1  0  0  0  0
 77166  1  0  0  0  0
 78167  1  0  0  0  0
 79168  1  0  0  0  0
 81169  1  0  0  0  0
 81170  1  0  0  0  0
 82171  1  0  0  0  0
 82172  1  0  0  0  0
 82173  1  0  0  0  0
 83174  1  0  0  0  0
 95175  1  0  0  0  0
 95176  1  0  0  0  0
 96177  1  0  0  0  0
 96178  1  0  0  0  0
 96179  1  0  0  0  0
 97180  1  0  0  0  0
 97181  1  0  0  0  0
 98182  1  0  0  0  0
 98183  1  0  0  0  0
 98184  1  0  0  0  0
104185  1  0  0  0  0
104186  1  0  0  0  0
104187  1  0  0  0  0
110188  1  0  0  0  0
115189  1  0  0  0  0
117190  1  0  0  0  0
118191  1  0  0  0  0
121192  1  0  0  0  0
123193  1  0  0  0  0
M  END
