
  xtb     02052208173D
 energy: -312.854073763653 gnorm: 0.000557219392 xtb: 6.4.1 (unknown)
177196  0     0  0            999 V2000
   -4.1592  -11.1695    1.1520 C   0  0  0  0  0  0  0  0  0  0  0  0
   -3.4204  -12.0563    0.4318 C   0  0  0  0  0  0  0  0  0  0  0  0
   -3.2465  -12.0077   -1.0564 C   0  0  0  0  0  0  0  0  0  0  0  0
   -3.9437  -11.4163   -1.8464 O   0  0  0  0  0  0  0  0  0  0  0  0
   -2.1997  -12.9990   -1.3536 C   0  0  0  0  0  0  0  0  0  0  0  0
   -1.5769  -13.2531   -2.5407 C   0  0  0  0  0  0  0  0  0  0  0  0
   -0.5857  -14.2576   -2.5973 C   0  0  0  0  0  0  0  0  0  0  0  0
    0.1010  -14.5508   -3.7936 C   0  0  0  0  0  0  0  0  0  0  0  0
    1.0568  -15.5271   -3.8367 C   0  0  0  0  0  0  0  0  0  0  0  0
    1.3505  -16.2409   -2.6664 C   0  0  0  0  0  0  0  0  0  0  0  0
    2.2946  -17.1978   -2.7289 F   0  0  0  0  0  0  0  0  0  0  0  0
    0.7161  -15.9972   -1.4806 C   0  0  0  0  0  0  0  0  0  0  0  0
   -0.2713  -14.9940   -1.4176 C   0  0  0  0  0  0  0  0  0  0  0  0
   -0.9412  -14.7161   -0.2043 C   0  0  0  0  0  0  0  0  0  0  0  0
   -1.8908  -13.7285   -0.1704 C   0  0  0  0  0  0  0  0  0  0  0  0
   -2.7032  -13.2143    0.9277 C   0  0  0  0  0  0  0  0  0  0  0  0
   -2.7372  -13.7187    2.2031 C   0  0  0  0  0  0  0  0  0  0  0  0
   -3.5242  -13.2030    3.2527 C   0  0  0  0  0  0  0  0  0  0  0  0
   -4.1376  -12.8257    4.1478 N   0  0  0  0  0  0  0  0  0  0  0  0
   -2.0013  -14.8434    2.6313 C   0  0  0  0  0  0  0  0  0  0  0  0
   -1.4350  -15.7524    3.0446 N   0  0  0  0  0  0  0  0  0  0  0  0
   -4.5019   -9.8769    0.6710 C   0  0  0  0  0  0  0  0  0  0  0  0
   -3.7743   -9.0938   -0.2110 C   0  0  0  0  0  0  0  0  0  0  0  0
   -4.3760   -7.8070   -0.2819 C   0  0  0  0  0  0  0  0  0  0  0  0
   -5.5243   -7.8142    0.6063 C   0  0  0  0  0  0  0  0  0  0  0  0
   -6.3376   -6.9635    0.8972 O   0  0  0  0  0  0  0  0  0  0  0  0
   -5.5318   -9.1098    1.1540 N   0  0  0  0  0  0  0  0  0  0  0  0
   -6.5406   -9.5279    2.0987 C   0  0  0  0  0  0  0  0  0  0  0  0
   -6.0961   -9.3107    3.5433 C   0  0  0  0  0  0  0  0  0  0  0  0
   -3.5512   -6.9937   -1.0400 C   0  0  0  0  0  0  0  0  0  0  0  0
   -2.4536   -7.7330   -1.4125 N   0  0  0  0  0  0  0  0  0  0  0  0
   -1.3670   -7.3132   -2.2656 C   0  0  0  0  0  0  0  0  0  0  0  0
   -0.1007   -7.0309   -1.4622 C   0  0  0  0  0  0  0  0  0  0  0  0
   -2.5265   -9.0544   -0.9352 C   0  0  0  0  0  0  0  0  0  0  0  0
   -1.6650   -9.8889   -1.1285 O   0  0  0  0  0  0  0  0  0  0  0  0
   -3.6763   -5.6031   -1.3953 C   0  0  0  0  0  0  0  0  0  0  0  0
   -4.5967   -4.9792   -2.2068 C   0  0  0  0  0  0  0  0  0  0  0  0
   -5.6999   -5.6229   -2.9280 C   0  0  0  0  0  0  0  0  0  0  0  0
   -6.6934   -6.3312   -2.2643 C   0  0  0  0  0  0  0  0  0  0  0  0
   -7.7237   -6.9021   -2.9892 C   0  0  0  0  0  0  0  0  0  0  0  0
   -7.7703   -6.7706   -4.3655 C   0  0  0  0  0  0  0  0  0  0  0  0
   -6.7928   -6.0497   -5.0404 C   0  0  0  0  0  0  0  0  0  0  0  0
   -6.8218   -5.9248   -6.5366 C   0  0  0  0  0  0  0  0  0  0  0  0
   -6.0296   -7.0626   -7.1835 C   0  0  0  0  0  0  0  0  0  0  0  0
   -5.7616   -5.4795   -4.3109 C   0  0  0  0  0  0  0  0  0  0  0  0
   -4.2793   -3.6136   -2.3828 C   0  0  0  0  0  0  0  0  0  0  0  0
   -5.0394   -2.3397   -3.3051 S   0  0  0  0  0  0  0  0  0  0  0  0
   -3.8150   -1.2469   -2.7520 C   0  0  0  0  0  0  0  0  0  0  0  0
   -3.4111    0.0840   -2.9339 C   0  0  0  0  0  0  0  0  0  0  0  0
   -3.9471    1.0886   -3.7675 C   0  0  0  0  0  0  0  0  0  0  0  0
   -3.2756    2.3500   -3.8457 C   0  0  0  0  0  0  0  0  0  0  0  0
   -3.8607    3.1853   -4.6902 N   0  0  0  0  0  0  0  0  0  0  0  0
   -5.1512    2.4444   -5.3289 S   0  0  0  0  0  0  0  0  0  0  0  0
   -5.0098    1.0296   -4.5552 N   0  0  0  0  0  0  0  0  0  0  0  0
   -2.1386    2.5657   -3.0382 C   0  0  0  0  0  0  0  0  0  0  0  0
   -1.3471    3.7112   -2.8809 C   0  0  0  0  0  0  0  0  0  0  0  0
   -1.2310    5.3267   -3.4914 S   0  0  0  0  0  0  0  0  0  0  0  0
    0.1249    5.6076   -2.4207 C   0  0  0  0  0  0  0  0  0  0  0  0
    0.9276    6.7336   -2.1699 C   0  0  0  0  0  0  0  0  0  0  0  0
    0.6246    8.0651   -2.6912 C   0  0  0  0  0  0  0  0  0  0  0  0
    0.2269    8.2433   -4.0139 C   0  0  0  0  0  0  0  0  0  0  0  0
   -0.1270    9.5018   -4.4611 C   0  0  0  0  0  0  0  0  0  0  0  0
   -0.1009   10.5840   -3.5987 C   0  0  0  0  0  0  0  0  0  0  0  0
    0.2879   10.4240   -2.2735 C   0  0  0  0  0  0  0  0  0  0  0  0
    0.2773   11.5875   -1.3245 C   0  0  0  0  0  0  0  0  0  0  0  0
   -1.1083   11.7515   -0.6970 C   0  0  0  0  0  0  0  0  0  0  0  0
    0.6486    9.1603   -1.8308 C   0  0  0  0  0  0  0  0  0  0  0  0
    1.8999    6.4485   -1.2160 C   0  0  0  0  0  0  0  0  0  0  0  0
    1.7554    4.8252   -0.5626 S   0  0  0  0  0  0  0  0  0  0  0  0
    0.4502    4.4936   -1.6358 C   0  0  0  0  0  0  0  0  0  0  0  0
   -0.3952    3.4117   -1.9047 C   0  0  0  0  0  0  0  0  0  0  0  0
   -0.5711    2.1332   -1.4539 N   0  0  0  0  0  0  0  0  0  0  0  0
   -1.6260    1.5709   -2.1499 C   0  0  0  0  0  0  0  0  0  0  0  0
   -2.2376    0.2843   -2.1463 C   0  0  0  0  0  0  0  0  0  0  0  0
   -1.9332   -0.9203   -1.5353 N   0  0  0  0  0  0  0  0  0  0  0  0
   -2.8841   -1.8335   -1.8938 C   0  0  0  0  0  0  0  0  0  0  0  0
   -3.1450   -3.1943   -1.6888 C   0  0  0  0  0  0  0  0  0  0  0  0
   -2.4231   -4.5027   -0.8262 S   0  0  0  0  0  0  0  0  0  0  0  0
   -0.8319   -1.3680   -0.7167 C   0  0  0  0  0  0  0  0  0  0  0  0
   -1.2141   -1.4220    0.7628 C   0  0  0  0  0  0  0  0  0  0  0  0
    0.2247    1.6899   -0.3326 C   0  0  0  0  0  0  0  0  0  0  0  0
    1.6180    1.2363   -0.7698 C   0  0  0  0  0  0  0  0  0  0  0  0
    2.9764    7.2170   -0.6925 C   0  0  0  0  0  0  0  0  0  0  0  0
    3.4550    7.1223    0.6119 C   0  0  0  0  0  0  0  0  0  0  0  0
    4.5577    7.9938    0.7512 C   0  0  0  0  0  0  0  0  0  0  0  0
    4.7943    8.6250   -0.5295 C   0  0  0  0  0  0  0  0  0  0  0  0
    5.6573    9.3850   -0.9068 O   0  0  0  0  0  0  0  0  0  0  0  0
    3.7714    8.1139   -1.3672 N   0  0  0  0  0  0  0  0  0  0  0  0
    3.8444    8.3052   -2.8015 C   0  0  0  0  0  0  0  0  0  0  0  0
    3.7103    9.7693   -3.2035 C   0  0  0  0  0  0  0  0  0  0  0  0
    4.9814    7.9640    2.0756 C   0  0  0  0  0  0  0  0  0  0  0  0
    4.1770    7.0691    2.7460 N   0  0  0  0  0  0  0  0  0  0  0  0
    4.3971    6.5225    4.0679 C   0  0  0  0  0  0  0  0  0  0  0  0
    3.1811    6.6990    4.9708 C   0  0  0  0  0  0  0  0  0  0  0  0
    3.2351    6.4748    1.8852 C   0  0  0  0  0  0  0  0  0  0  0  0
    2.4842    5.5766    2.2112 O   0  0  0  0  0  0  0  0  0  0  0  0
    6.1023    8.6797    2.5758 C   0  0  0  0  0  0  0  0  0  0  0  0
    6.2297    9.3004    3.7836 C   0  0  0  0  0  0  0  0  0  0  0  0
    5.0791    9.7441    4.6132 C   0  0  0  0  0  0  0  0  0  0  0  0
    3.9026    9.5474    4.3986 O   0  0  0  0  0  0  0  0  0  0  0  0
    5.6587   10.6005    5.6637 C   0  0  0  0  0  0  0  0  0  0  0  0
    5.0195   11.2611    6.6729 C   0  0  0  0  0  0  0  0  0  0  0  0
    5.7752   12.0551    7.5641 C   0  0  0  0  0  0  0  0  0  0  0  0
    5.1668   12.7519    8.6280 C   0  0  0  0  0  0  0  0  0  0  0  0
    5.9077   13.5233    9.4797 C   0  0  0  0  0  0  0  0  0  0  0  0
    7.2922   13.6141    9.2819 C   0  0  0  0  0  0  0  0  0  0  0  0
    8.0042   14.3779   10.1299 F   0  0  0  0  0  0  0  0  0  0  0  0
    7.9324   12.9584    8.2671 C   0  0  0  0  0  0  0  0  0  0  0  0
    7.1850   12.1586    7.3811 C   0  0  0  0  0  0  0  0  0  0  0  0
    7.8196   11.4656    6.3240 C   0  0  0  0  0  0  0  0  0  0  0  0
    7.0681   10.6924    5.4801 C   0  0  0  0  0  0  0  0  0  0  0  0
    7.4419    9.8664    4.3380 C   0  0  0  0  0  0  0  0  0  0  0  0
    8.7187    9.5782    3.9304 C   0  0  0  0  0  0  0  0  0  0  0  0
    9.8765   10.1298    4.5156 C   0  0  0  0  0  0  0  0  0  0  0  0
   10.8509   10.5521    4.9517 N   0  0  0  0  0  0  0  0  0  0  0  0
    9.0380    8.6504    2.9164 C   0  0  0  0  0  0  0  0  0  0  0  0
    9.3675    7.8744    2.1370 N   0  0  0  0  0  0  0  0  0  0  0  0
   -4.4416  -11.3999    2.1696 H   0  0  0  0  0  0  0  0  0  0  0  0
   -1.8290  -12.6837   -3.4221 H   0  0  0  0  0  0  0  0  0  0  0  0
   -0.1427  -13.9875   -4.6818 H   0  0  0  0  0  0  0  0  0  0  0  0
    1.5907  -15.7639   -4.7434 H   0  0  0  0  0  0  0  0  0  0  0  0
    0.9682  -16.5663   -0.5994 H   0  0  0  0  0  0  0  0  0  0  0  0
   -0.6798  -15.2899    0.6705 H   0  0  0  0  0  0  0  0  0  0  0  0
   -6.7829  -10.5784    1.9195 H   0  0  0  0  0  0  0  0  0  0  0  0
   -7.4250   -8.9165    1.8976 H   0  0  0  0  0  0  0  0  0  0  0  0
   -6.8994   -9.5945    4.2171 H   0  0  0  0  0  0  0  0  0  0  0  0
   -5.8615   -8.2613    3.7034 H   0  0  0  0  0  0  0  0  0  0  0  0
   -5.2191   -9.9067    3.7847 H   0  0  0  0  0  0  0  0  0  0  0  0
   -1.6816   -6.4309   -2.8276 H   0  0  0  0  0  0  0  0  0  0  0  0
   -1.1727   -8.1314   -2.9657 H   0  0  0  0  0  0  0  0  0  0  0  0
   -0.2718   -6.2401   -0.7354 H   0  0  0  0  0  0  0  0  0  0  0  0
    0.6993   -6.7275   -2.1316 H   0  0  0  0  0  0  0  0  0  0  0  0
    0.2051   -7.9316   -0.9367 H   0  0  0  0  0  0  0  0  0  0  0  0
   -6.6799   -6.3949   -1.1900 H   0  0  0  0  0  0  0  0  0  0  0  0
   -8.4990   -7.4481   -2.4726 H   0  0  0  0  0  0  0  0  0  0  0  0
   -8.5790   -7.2210   -4.9230 H   0  0  0  0  0  0  0  0  0  0  0  0
   -6.3895   -4.9678   -6.8355 H   0  0  0  0  0  0  0  0  0  0  0  0
   -7.8541   -5.9587   -6.8899 H   0  0  0  0  0  0  0  0  0  0  0  0
   -6.4505   -8.0249   -6.9008 H   0  0  0  0  0  0  0  0  0  0  0  0
   -4.9923   -7.0355   -6.8567 H   0  0  0  0  0  0  0  0  0  0  0  0
   -6.0550   -6.9764   -8.2673 H   0  0  0  0  0  0  0  0  0  0  0  0
   -4.9917   -4.9203   -4.8241 H   0  0  0  0  0  0  0  0  0  0  0  0
    0.2103    7.4007   -4.6883 H   0  0  0  0  0  0  0  0  0  0  0  0
   -0.4289    9.6389   -5.4885 H   0  0  0  0  0  0  0  0  0  0  0  0
   -0.3840   11.5638   -3.9549 H   0  0  0  0  0  0  0  0  0  0  0  0
    0.5413   12.5022   -1.8593 H   0  0  0  0  0  0  0  0  0  0  0  0
    1.0141   11.4284   -0.5345 H   0  0  0  0  0  0  0  0  0  0  0  0
   -1.3843   10.8531   -0.1495 H   0  0  0  0  0  0  0  0  0  0  0  0
   -1.8556   11.9257   -1.4679 H   0  0  0  0  0  0  0  0  0  0  0  0
   -1.1152   12.5934   -0.0090 H   0  0  0  0  0  0  0  0  0  0  0  0
    0.9358    9.0179   -0.7983 H   0  0  0  0  0  0  0  0  0  0  0  0
   -0.5778   -2.3812   -1.0472 H   0  0  0  0  0  0  0  0  0  0  0  0
    0.0372   -0.7413   -0.8894 H   0  0  0  0  0  0  0  0  0  0  0  0
   -1.9802   -2.1763    0.9224 H   0  0  0  0  0  0  0  0  0  0  0  0
   -0.3452   -1.6820    1.3607 H   0  0  0  0  0  0  0  0  0  0  0  0
   -1.6083   -0.4682    1.1077 H   0  0  0  0  0  0  0  0  0  0  0  0
    0.3375    2.5451    0.3423 H   0  0  0  0  0  0  0  0  0  0  0  0
   -0.3059    0.9141    0.2111 H   0  0  0  0  0  0  0  0  0  0  0  0
    2.1836    2.0845   -1.1456 H   0  0  0  0  0  0  0  0  0  0  0  0
    2.1518    0.8187    0.0790 H   0  0  0  0  0  0  0  0  0  0  0  0
    1.5680    0.4902   -1.5608 H   0  0  0  0  0  0  0  0  0  0  0  0
    3.0660    7.7025   -3.2700 H   0  0  0  0  0  0  0  0  0  0  0  0
    4.8232    7.9379   -3.1334 H   0  0  0  0  0  0  0  0  0  0  0  0
    2.7678   10.1811   -2.8562 H   0  0  0  0  0  0  0  0  0  0  0  0
    4.5277   10.3437   -2.7779 H   0  0  0  0  0  0  0  0  0  0  0  0
    3.7490    9.8486   -4.2864 H   0  0  0  0  0  0  0  0  0  0  0  0
    5.2750    7.0059    4.5008 H   0  0  0  0  0  0  0  0  0  0  0  0
    4.6066    5.4518    3.9539 H   0  0  0  0  0  0  0  0  0  0  0  0
    3.4027    6.3076    5.9602 H   0  0  0  0  0  0  0  0  0  0  0  0
    2.3356    6.1590    4.5553 H   0  0  0  0  0  0  0  0  0  0  0  0
    2.9231    7.7512    5.0508 H   0  0  0  0  0  0  0  0  0  0  0  0
    6.9068    8.7737    1.8550 H   0  0  0  0  0  0  0  0  0  0  0  0
    3.9495   11.1772    6.7922 H   0  0  0  0  0  0  0  0  0  0  0  0
    4.0986   12.6673    8.7600 H   0  0  0  0  0  0  0  0  0  0  0  0
    5.4579   14.0635   10.2976 H   0  0  0  0  0  0  0  0  0  0  0  0
    9.0004   13.0500    8.1454 H   0  0  0  0  0  0  0  0  0  0  0  0
    8.8863   11.5693    6.2052 H   0  0  0  0  0  0  0  0  0  0  0  0
  1  2  2  0  0  0  0
  2  3  1  0  0  0  0
  3  4  2  0  0  0  0
  3  5  1  0  0  0  0
  5  6  2  0  0  0  0
  6  7  1  0  0  0  0
  7  8  2  0  0  0  0
  8  9  1  0  0  0  0
  9 10  2  0  0  0  0
 10 11  1  0  0  0  0
 10 12  1  0  0  0  0
 12 13  2  0  0  0  0
 13 14  1  0  0  0  0
 14 15  2  0  0  0  0
 15 16  1  0  0  0  0
 16 17  2  0  0  0  0
 17 18  1  0  0  0  0
 18 19  3  0  0  0  0
 17 20  1  0  0  0  0
 20 21  3  0  0  0  0
  1 22  1  0  0  0  0
 22 23  2  0  0  0  0
 23 24  1  0  0  0  0
 24 25  1  0  0  0  0
 25 26  2  0  0  0  0
 25 27  1  0  0  0  0
 27 28  1  0  0  0  0
 28 29  1  0  0  0  0
 24 30  2  0  0  0  0
 30 31  1  0  0  0  0
 31 32  1  0  0  0  0
 32 33  1  0  0  0  0
 31 34  1  0  0  0  0
 34 35  2  0  0  0  0
 30 36  1  0  0  0  0
 36 37  2  0  0  0  0
 37 38  1  0  0  0  0
 38 39  2  0  0  0  0
 39 40  1  0  0  0  0
 40 41  2  0  0  0  0
 41 42  1  0  0  0  0
 42 43  1  0  0  0  0
 43 44  1  0  0  0  0
 42 45  2  0  0  0  0
 37 46  1  0  0  0  0
 46 47  1  0  0  0  0
 47 48  1  0  0  0  0
 48 49  1  0  0  0  0
 49 50  1  0  0  0  0
 50 51  1  0  0  0  0
 51 52  2  0  0  0  0
 52 53  1  0  0  0  0
 53 54  1  0  0  0  0
 51 55  1  0  0  0  0
 55 56  1  0  0  0  0
 56 57  1  0  0  0  0
 57 58  1  0  0  0  0
 58 59  1  0  0  0  0
 59 60  1  0  0  0  0
 60 61  2  0  0  0  0
 61 62  1  0  0  0  0
 62 63  2  0  0  0  0
 63 64  1  0  0  0  0
 64 65  1  0  0  0  0
 65 66  1  0  0  0  0
 64 67  2  0  0  0  0
 59 68  2  0  0  0  0
 68 69  1  0  0  0  0
 69 70  1  0  0  0  0
 70 71  1  0  0  0  0
 71 72  1  0  0  0  0
 72 73  1  0  0  0  0
 73 74  1  0  0  0  0
 74 75  1  0  0  0  0
 75 76  1  0  0  0  0
 76 77  1  0  0  0  0
 77 78  1  0  0  0  0
 75 79  1  0  0  0  0
 79 80  1  0  0  0  0
 72 81  1  0  0  0  0
 81 82  1  0  0  0  0
 68 83  1  0  0  0  0
 83 84  2  0  0  0  0
 84 85  1  0  0  0  0
 85 86  1  0  0  0  0
 86 87  2  0  0  0  0
 86 88  1  0  0  0  0
 88 89  1  0  0  0  0
 89 90  1  0  0  0  0
 85 91  2  0  0  0  0
 91 92  1  0  0  0  0
 92 93  1  0  0  0  0
 93 94  1  0  0  0  0
 92 95  1  0  0  0  0
 95 96  2  0  0  0  0
 91 97  1  0  0  0  0
 97 98  2  0  0  0  0
 98 99  1  0  0  0  0
 99100  2  0  0  0  0
 99101  1  0  0  0  0
101102  2  0  0  0  0
102103  1  0  0  0  0
103104  2  0  0  0  0
104105  1  0  0  0  0
105106  2  0  0  0  0
106107  1  0  0  0  0
106108  1  0  0  0  0
108109  2  0  0  0  0
109110  1  0  0  0  0
110111  2  0  0  0  0
111112  1  0  0  0  0
112113  2  0  0  0  0
113114  1  0  0  0  0
114115  3  0  0  0  0
113116  1  0  0  0  0
116117  3  0  0  0  0
 16  2  1  0  0  0  0
 27 22  1  0  0  0  0
 78 36  1  0  0  0  0
 88 83  1  0  0  0  0
112 98  1  0  0  0  0
 15  5  1  0  0  0  0
 34 23  1  0  0  0  0
 45 38  1  0  0  0  0
 77 46  2  0  0  0  0
 95 84  1  0  0  0  0
111101  1  0  0  0  0
 13  7  1  0  0  0  0
 76 48  2  0  0  0  0
109103  1  0  0  0  0
 74 49  2  0  0  0  0
 54 50  2  0  0  0  0
 73 55  2  0  0  0  0
 71 56  2  0  0  0  0
 70 58  2  0  0  0  0
 67 60  1  0  0  0  0
  1118  1  0  0  0  0
  6119  1  0  0  0  0
  8120  1  0  0  0  0
  9121  1  0  0  0  0
 12122  1  0  0  0  0
 14123  1  0  0  0  0
 28124  1  0  0  0  0
 28125  1  0  0  0  0
 29126  1  0  0  0  0
 29127  1  0  0  0  0
 29128  1  0  0  0  0
 32129  1  0  0  0  0
 32130  1  0  0  0  0
 33131  1  0  0  0  0
 33132  1  0  0  0  0
 33133  1  0  0  0  0
 39134  1  0  0  0  0
 40135  1  0  0  0  0
 41136  1  0  0  0  0
 43137  1  0  0  0  0
 43138  1  0  0  0  0
 44139  1  0  0  0  0
 44140  1  0  0  0  0
 44141  1  0  0  0  0
 45142  1  0  0  0  0
 61143  1  0  0  0  0
 62144  1  0  0  0  0
 63145  1  0  0  0  0
 65146  1  0  0  0  0
 65147  1  0  0  0  0
 66148  1  0  0  0  0
 66149  1  0  0  0  0
 66150  1  0  0  0  0
 67151  1  0  0  0  0
 79152  1  0  0  0  0
 79153  1  0  0  0  0
 80154  1  0  0  0  0
 80155  1  0  0  0  0
 80156  1  0  0  0  0
 81157  1  0  0  0  0
 81158  1  0  0  0  0
 82159  1  0  0  0  0
 82160  1  0  0  0  0
 82161  1  0  0  0  0
 89162  1  0  0  0  0
 89163  1  0  0  0  0
 90164  1  0  0  0  0
 90165  1  0  0  0  0
 90166  1  0  0  0  0
 93167  1  0  0  0  0
 93168  1  0  0  0  0
 94169  1  0  0  0  0
 94170  1  0  0  0  0
 94171  1  0  0  0  0
 97172  1  0  0  0  0
102173  1  0  0  0  0
104174  1  0  0  0  0
105175  1  0  0  0  0
108176  1  0  0  0  0
110177  1  0  0  0  0
M  END
