
  xtb     02052210513D
 energy: -459.962221695860 gnorm: 0.000530559792 xtb: 6.4.1 (unknown)
285314  0     0  0            999 V2000
    1.8544    0.6569    6.2457 C   0  0  0  0  0  0  0  0  0  0  0  0
    0.8589    1.3105    5.5731 C   0  0  0  0  0  0  0  0  0  0  0  0
    0.2643    0.9327    4.2654 C   0  0  0  0  0  0  0  0  0  0  0  0
    0.7038    0.1993    3.4044 O   0  0  0  0  0  0  0  0  0  0  0  0
   -1.0422    1.6110    4.2151 C   0  0  0  0  0  0  0  0  0  0  0  0
   -1.9989    1.5186    3.2465 C   0  0  0  0  0  0  0  0  0  0  0  0
   -3.1907    2.2621    3.3858 C   0  0  0  0  0  0  0  0  0  0  0  0
   -4.2145    2.2029    2.4190 C   0  0  0  0  0  0  0  0  0  0  0  0
   -5.3562    2.9419    2.5558 C   0  0  0  0  0  0  0  0  0  0  0  0
   -5.4974    3.7641    3.6816 C   0  0  0  0  0  0  0  0  0  0  0  0
   -6.6243    4.4905    3.7993 F   0  0  0  0  0  0  0  0  0  0  0  0
   -4.5397    3.8510    4.6530 C   0  0  0  0  0  0  0  0  0  0  0  0
   -3.3571    3.0972    4.5282 C   0  0  0  0  0  0  0  0  0  0  0  0
   -2.3461    3.1727    5.5137 C   0  0  0  0  0  0  0  0  0  0  0  0
   -1.2027    2.4336    5.3629 C   0  0  0  0  0  0  0  0  0  0  0  0
   -0.0055    2.3083    6.1856 C   0  0  0  0  0  0  0  0  0  0  0  0
    0.2544    3.0261    7.3233 C   0  0  0  0  0  0  0  0  0  0  0  0
    1.4732    3.0112    8.0347 C   0  0  0  0  0  0  0  0  0  0  0  0
    2.4428    3.0833    8.6454 N   0  0  0  0  0  0  0  0  0  0  0  0
   -0.6693    3.9041    7.9255 C   0  0  0  0  0  0  0  0  0  0  0  0
   -1.3869    4.6092    8.4793 N   0  0  0  0  0  0  0  0  0  0  0  0
    2.6114   -0.4537    5.8055 C   0  0  0  0  0  0  0  0  0  0  0  0
    2.9060   -0.9030    4.5455 C   0  0  0  0  0  0  0  0  0  0  0  0
    3.3928   -2.2247    4.5177 C   0  0  0  0  0  0  0  0  0  0  0  0
    3.5413   -3.0259    3.3661 C   0  0  0  0  0  0  0  0  0  0  0  0
    3.2335   -2.4995    2.0468 C   0  0  0  0  0  0  0  0  0  0  0  0
    2.2370   -2.9735    1.2379 C   0  0  0  0  0  0  0  0  0  0  0  0
    2.0594   -2.1687    0.1042 C   0  0  0  0  0  0  0  0  0  0  0  0
    0.9574   -2.1579   -1.2184 S   0  0  0  0  0  0  0  0  0  0  0  0
    1.6832   -0.7076   -1.8750 C   0  0  0  0  0  0  0  0  0  0  0  0
    0.8753    0.0846   -3.3911 Si  0  0  0  0  0  4  0  0  0  0  0  0
    0.1007    1.7528   -2.8632 C   0  0  0  0  0  0  0  0  0  0  0  0
    1.0962    2.7791   -2.3374 C   0  0  0  0  0  0  0  0  0  0  0  0
   -0.5341   -1.0823   -3.9505 C   0  0  0  0  0  0  0  0  0  0  0  0
   -0.0518   -2.3894   -4.5704 C   0  0  0  0  0  0  0  0  0  0  0  0
    2.1567    0.3523   -4.7839 C   0  0  0  0  0  0  0  0  0  0  0  0
    1.5503    1.0474   -6.0004 C   0  0  0  0  0  0  0  0  0  0  0  0
    2.7238   -0.2765   -1.1019 C   0  0  0  0  0  0  0  0  0  0  0  0
    2.9359   -1.0916    0.0247 C   0  0  0  0  0  0  0  0  0  0  0  0
    3.9956   -1.0634    1.3926 S   0  0  0  0  0  0  0  0  0  0  0  0
    3.6961   -4.3843    3.5881 C   0  0  0  0  0  0  0  0  0  0  0  0
    3.7216   -4.9679    4.8782 C   0  0  0  0  0  0  0  0  0  0  0  0
    3.7461   -4.1488    6.0281 C   0  0  0  0  0  0  0  0  0  0  0  0
    3.9502   -4.7351    7.3300 C   0  0  0  0  0  0  0  0  0  0  0  0
    3.2298   -4.0605    8.7817 S   0  0  0  0  0  0  0  0  0  0  0  0
    3.9850   -5.2759    9.7509 C   0  0  0  0  0  0  0  0  0  0  0  0
    4.0173   -5.5813   11.1211 C   0  0  0  0  0  0  0  0  0  0  0  0
    4.7996   -6.6656   11.3966 C   0  0  0  0  0  0  0  0  0  0  0  0
    5.1885   -7.4584   13.0661 Si  0  0  0  0  0  4  0  0  0  0  0  0
    7.0766   -7.7671   13.1075 C   0  0  0  0  0  0  0  0  0  0  0  0
    7.8977   -6.4832   13.0164 C   0  0  0  0  0  0  0  0  0  0  0  0
    4.2296   -9.1089   13.2198 C   0  0  0  0  0  0  0  0  0  0  0  0
    4.5844  -10.1297   12.1434 C   0  0  0  0  0  0  0  0  0  0  0  0
    4.6317   -6.2363   14.4234 C   0  0  0  0  0  0  0  0  0  0  0  0
    5.0155   -6.6956   15.8252 C   0  0  0  0  0  0  0  0  0  0  0  0
    5.5162   -7.3331    9.9472 S   0  0  0  0  0  0  0  0  0  0  0  0
    4.7505   -6.1363    8.9682 C   0  0  0  0  0  0  0  0  0  0  0  0
    4.7295   -5.8328    7.6005 C   0  0  0  0  0  0  0  0  0  0  0  0
    3.5144   -2.7894    5.8141 C   0  0  0  0  0  0  0  0  0  0  0  0
    3.1310   -1.6116    7.0356 S   0  0  0  0  0  0  0  0  0  0  0  0
    3.4516   -6.3657    4.8204 C   0  0  0  0  0  0  0  0  0  0  0  0
    3.2922   -6.8413    3.5593 C   0  0  0  0  0  0  0  0  0  0  0  0
    3.6264   -5.6016    2.3413 S   0  0  0  0  0  0  0  0  0  0  0  0
    2.4624   -7.9138    3.0558 C   0  0  0  0  0  0  0  0  0  0  0  0
    2.6467   -8.7267    1.9571 C   0  0  0  0  0  0  0  0  0  0  0  0
    3.9737   -9.1617    1.5342 C   0  0  0  0  0  0  0  0  0  0  0  0
    4.9986   -9.2621    2.4769 C   0  0  0  0  0  0  0  0  0  0  0  0
    6.2577   -9.6763    2.0919 C   0  0  0  0  0  0  0  0  0  0  0  0
    6.5133  -10.0010    0.7703 C   0  0  0  0  0  0  0  0  0  0  0  0
    5.5089   -9.9044   -0.1836 C   0  0  0  0  0  0  0  0  0  0  0  0
    5.7554  -10.2959   -1.6120 C   0  0  0  0  0  0  0  0  0  0  0  0
    5.2741  -11.7267   -1.8607 C   0  0  0  0  0  0  0  0  0  0  0  0
    4.2470   -9.4843    0.2088 C   0  0  0  0  0  0  0  0  0  0  0  0
    1.4091   -9.0012    1.3150 C   0  0  0  0  0  0  0  0  0  0  0  0
    1.0073   -9.6537   -0.2604 S   0  0  0  0  0  0  0  0  0  0  0  0
   -0.5452   -8.8899   -0.1737 C   0  0  0  0  0  0  0  0  0  0  0  0
   -1.5088   -8.4035   -1.0855 C   0  0  0  0  0  0  0  0  0  0  0  0
   -1.7470   -8.6165   -2.4616 C   0  0  0  0  0  0  0  0  0  0  0  0
   -2.6552   -7.7397   -3.1591 C   0  0  0  0  0  0  0  0  0  0  0  0
   -2.7844   -8.0636   -4.4346 N   0  0  0  0  0  0  0  0  0  0  0  0
   -1.8546   -9.3538   -4.7386 S   0  0  0  0  0  0  0  0  0  0  0  0
   -1.2380   -9.5453   -3.2540 N   0  0  0  0  0  0  0  0  0  0  0  0
   -3.1680   -6.6075   -2.4829 C   0  0  0  0  0  0  0  0  0  0  0  0
   -3.6498   -5.3741   -2.9560 C   0  0  0  0  0  0  0  0  0  0  0  0
   -3.9887   -4.6003   -4.4687 S   0  0  0  0  0  0  0  0  0  0  0  0
   -4.0678   -3.0647   -3.6369 C   0  0  0  0  0  0  0  0  0  0  0  0
   -4.1668   -1.7422   -4.1034 C   0  0  0  0  0  0  0  0  0  0  0  0
   -4.3704   -1.3881   -5.5117 C   0  0  0  0  0  0  0  0  0  0  0  0
   -3.5098   -1.8727   -6.4904 C   0  0  0  0  0  0  0  0  0  0  0  0
   -3.6911   -1.5007   -7.8094 C   0  0  0  0  0  0  0  0  0  0  0  0
   -4.7295   -0.6575   -8.1608 C   0  0  0  0  0  0  0  0  0  0  0  0
   -5.6141   -0.1841   -7.1994 C   0  0  0  0  0  0  0  0  0  0  0  0
   -6.7699    0.6923   -7.5848 C   0  0  0  0  0  0  0  0  0  0  0  0
   -7.9962   -0.1565   -7.9250 C   0  0  0  0  0  0  0  0  0  0  0  0
   -5.4304   -0.5635   -5.8793 C   0  0  0  0  0  0  0  0  0  0  0  0
   -4.0238   -0.8285   -3.0718 C   0  0  0  0  0  0  0  0  0  0  0  0
   -3.8579   -1.6158   -1.5046 S   0  0  0  0  0  0  0  0  0  0  0  0
   -3.8951   -3.1733   -2.2553 C   0  0  0  0  0  0  0  0  0  0  0  0
   -3.6762   -4.4996   -1.8630 C   0  0  0  0  0  0  0  0  0  0  0  0
   -3.3191   -5.1642   -0.7213 N   0  0  0  0  0  0  0  0  0  0  0  0
   -2.9654   -6.4488   -1.0857 C   0  0  0  0  0  0  0  0  0  0  0  0
   -2.2653   -7.4465   -0.3700 C   0  0  0  0  0  0  0  0  0  0  0  0
   -1.9009   -7.4631    0.9745 N   0  0  0  0  0  0  0  0  0  0  0  0
   -0.7968   -8.2912    1.0632 C   0  0  0  0  0  0  0  0  0  0  0  0
    0.3128   -8.3800    1.9155 C   0  0  0  0  0  0  0  0  0  0  0  0
    0.7580   -7.5877    3.3830 S   0  0  0  0  0  0  0  0  0  0  0  0
   -2.8926   -7.3671    2.0332 C   0  0  0  0  0  0  0  0  0  0  0  0
   -2.4163   -6.6066    3.2648 C   0  0  0  0  0  0  0  0  0  0  0  0
   -2.9760   -4.4261    0.4730 C   0  0  0  0  0  0  0  0  0  0  0  0
   -1.4712   -4.1949    0.5806 C   0  0  0  0  0  0  0  0  0  0  0  0
   -3.7646    0.5676   -3.1701 C   0  0  0  0  0  0  0  0  0  0  0  0
   -3.5843    1.4775   -2.1633 C   0  0  0  0  0  0  0  0  0  0  0  0
   -3.1344    2.7429   -2.6119 C   0  0  0  0  0  0  0  0  0  0  0  0
   -2.7503    3.8617   -1.8659 C   0  0  0  0  0  0  0  0  0  0  0  0
   -2.7356    4.0247   -0.4093 C   0  0  0  0  0  0  0  0  0  0  0  0
   -1.6604    3.8267    0.4051 C   0  0  0  0  0  0  0  0  0  0  0  0
   -1.7879    4.5301    1.6178 C   0  0  0  0  0  0  0  0  0  0  0  0
   -0.7407    4.8615    2.9464 S   0  0  0  0  0  0  0  0  0  0  0  0
   -1.8928    5.9876    3.6293 C   0  0  0  0  0  0  0  0  0  0  0  0
   -1.3790    7.0957    5.0696 Si  0  0  0  0  0  4  0  0  0  0  0  0
   -1.0950    8.8647    4.3780 C   0  0  0  0  0  0  0  0  0  0  0  0
   -2.2500    9.3876    3.5285 C   0  0  0  0  0  0  0  0  0  0  0  0
   -2.7626    7.0649    6.3917 C   0  0  0  0  0  0  0  0  0  0  0  0
   -2.8168    8.3242    7.2522 C   0  0  0  0  0  0  0  0  0  0  0  0
    0.2863    6.4075    5.7025 C   0  0  0  0  0  0  0  0  0  0  0  0
    0.7471    7.0026    7.0273 C   0  0  0  0  0  0  0  0  0  0  0  0
   -3.0271    6.0647    2.8754 C   0  0  0  0  0  0  0  0  0  0  0  0
   -2.9670    5.2560    1.7289 C   0  0  0  0  0  0  0  0  0  0  0  0
   -3.9610    5.0421    0.3325 S   0  0  0  0  0  0  0  0  0  0  0  0
   -2.2623    4.9575   -2.5669 C   0  0  0  0  0  0  0  0  0  0  0  0
   -2.0931    4.9878   -3.9737 C   0  0  0  0  0  0  0  0  0  0  0  0
   -2.4289    3.8385   -4.7301 C   0  0  0  0  0  0  0  0  0  0  0  0
   -2.0959    3.7273   -6.1317 C   0  0  0  0  0  0  0  0  0  0  0  0
   -3.1465    2.8758   -7.2511 S   0  0  0  0  0  0  0  0  0  0  0  0
   -1.9852    3.0652   -8.5162 C   0  0  0  0  0  0  0  0  0  0  0  0
   -1.8981    2.6564   -9.8557 C   0  0  0  0  0  0  0  0  0  0  0  0
   -0.7179    3.0220  -10.4386 C   0  0  0  0  0  0  0  0  0  0  0  0
   -0.1004    2.6405  -12.1834 Si  0  0  0  0  0  4  0  0  0  0  0  0
   -1.3577    1.4570  -13.0062 C   0  0  0  0  0  0  0  0  0  0  0  0
   -1.3702    0.0456  -12.4299 C   0  0  0  0  0  0  0  0  0  0  0  0
    1.6533    1.8759  -12.0521 C   0  0  0  0  0  0  0  0  0  0  0  0
    1.8621    0.9543  -10.8524 C   0  0  0  0  0  0  0  0  0  0  0  0
   -0.0424    4.2554  -13.2087 C   0  0  0  0  0  0  0  0  0  0  0  0
    0.7816    5.3691  -12.5726 C   0  0  0  0  0  0  0  0  0  0  0  0
    0.3072    3.9023   -9.3266 S   0  0  0  0  0  0  0  0  0  0  0  0
   -0.8636    3.7596   -8.0695 C   0  0  0  0  0  0  0  0  0  0  0  0
   -0.9303    4.1429   -6.7225 C   0  0  0  0  0  0  0  0  0  0  0  0
   -2.9766    2.7762   -4.0263 C   0  0  0  0  0  0  0  0  0  0  0  0
   -3.4172    1.2552   -4.7439 S   0  0  0  0  0  0  0  0  0  0  0  0
   -1.5975    6.2289   -4.3938 C   0  0  0  0  0  0  0  0  0  0  0  0
   -1.3539    7.1206   -3.3588 C   0  0  0  0  0  0  0  0  0  0  0  0
   -1.7392    6.4238   -1.7991 S   0  0  0  0  0  0  0  0  0  0  0  0
   -0.8775    8.4250   -3.5903 C   0  0  0  0  0  0  0  0  0  0  0  0
   -0.5774    9.4287   -2.7068 C   0  0  0  0  0  0  0  0  0  0  0  0
   -0.6595    9.3481   -1.2381 C   0  0  0  0  0  0  0  0  0  0  0  0
   -0.9811    8.3940   -0.5549 O   0  0  0  0  0  0  0  0  0  0  0  0
   -0.2651   10.6714   -0.7324 C   0  0  0  0  0  0  0  0  0  0  0  0
   -0.1878   11.0931    0.5630 C   0  0  0  0  0  0  0  0  0  0  0  0
    0.1968   12.4255    0.8279 C   0  0  0  0  0  0  0  0  0  0  0  0
    0.2891   12.9187    2.1453 C   0  0  0  0  0  0  0  0  0  0  0  0
    0.6532   14.2140    2.3876 C   0  0  0  0  0  0  0  0  0  0  0  0
    0.9376   15.0522    1.3010 C   0  0  0  0  0  0  0  0  0  0  0  0
    1.2926   16.3243    1.5589 F   0  0  0  0  0  0  0  0  0  0  0  0
    0.8674   14.6232    0.0047 C   0  0  0  0  0  0  0  0  0  0  0  0
    0.4935   13.2922   -0.2641 C   0  0  0  0  0  0  0  0  0  0  0  0
    0.4138   12.8201   -1.5959 C   0  0  0  0  0  0  0  0  0  0  0  0
    0.0410   11.5229   -1.8297 C   0  0  0  0  0  0  0  0  0  0  0  0
   -0.1249   10.7611   -3.0662 C   0  0  0  0  0  0  0  0  0  0  0  0
    0.1217   11.2471   -4.3251 C   0  0  0  0  0  0  0  0  0  0  0  0
    0.5601   12.5613   -4.5912 C   0  0  0  0  0  0  0  0  0  0  0  0
    0.9133   13.6145   -4.8815 N   0  0  0  0  0  0  0  0  0  0  0  0
   -0.0062   10.5309   -5.5331 C   0  0  0  0  0  0  0  0  0  0  0  0
   -0.0771   10.0242   -6.5620 N   0  0  0  0  0  0  0  0  0  0  0  0
    1.9945    0.9057    7.2917 H   0  0  0  0  0  0  0  0  0  0  0  0
   -1.8448    0.8899    2.3820 H   0  0  0  0  0  0  0  0  0  0  0  0
   -4.0770    1.5652    1.5587 H   0  0  0  0  0  0  0  0  0  0  0  0
   -6.1442    2.9175    1.8202 H   0  0  0  0  0  0  0  0  0  0  0  0
   -4.6824    4.4937    5.5071 H   0  0  0  0  0  0  0  0  0  0  0  0
   -2.5068    3.8139    6.3642 H   0  0  0  0  0  0  0  0  0  0  0  0
    2.7442   -0.3170    3.6630 H   0  0  0  0  0  0  0  0  0  0  0  0
    1.6310   -3.8283    1.4738 H   0  0  0  0  0  0  0  0  0  0  0  0
   -0.4162    2.1792   -3.7230 H   0  0  0  0  0  0  0  0  0  0  0  0
   -0.6624    1.5798   -2.1026 H   0  0  0  0  0  0  0  0  0  0  0  0
    1.5848    2.4134   -1.4377 H   0  0  0  0  0  0  0  0  0  0  0  0
    0.5926    3.7148   -2.0967 H   0  0  0  0  0  0  0  0  0  0  0  0
    1.8614    2.9889   -3.0805 H   0  0  0  0  0  0  0  0  0  0  0  0
   -1.1578   -1.3156   -3.0856 H   0  0  0  0  0  0  0  0  0  0  0  0
   -1.1801   -0.5708   -4.6658 H   0  0  0  0  0  0  0  0  0  0  0  0
   -0.8911   -3.0503   -4.7817 H   0  0  0  0  0  0  0  0  0  0  0  0
    0.6206   -2.9127   -3.8953 H   0  0  0  0  0  0  0  0  0  0  0  0
    0.4769   -2.2010   -5.5012 H   0  0  0  0  0  0  0  0  0  0  0  0
    2.5803   -0.6037   -5.0944 H   0  0  0  0  0  0  0  0  0  0  0  0
    2.9906    0.9494   -4.4128 H   0  0  0  0  0  0  0  0  0  0  0  0
    2.2950    1.1780   -6.7836 H   0  0  0  0  0  0  0  0  0  0  0  0
    1.1657    2.0283   -5.7318 H   0  0  0  0  0  0  0  0  0  0  0  0
    0.7273    0.4652   -6.4080 H   0  0  0  0  0  0  0  0  0  0  0  0
    3.3081    0.5946   -1.3346 H   0  0  0  0  0  0  0  0  0  0  0  0
    3.4933   -5.0266   11.8767 H   0  0  0  0  0  0  0  0  0  0  0  0
    7.3512   -8.4156   12.2739 H   0  0  0  0  0  0  0  0  0  0  0  0
    7.3497   -8.3016   14.0184 H   0  0  0  0  0  0  0  0  0  0  0  0
    7.6855   -5.8280   13.8575 H   0  0  0  0  0  0  0  0  0  0  0  0
    8.9632   -6.7056   13.0183 H   0  0  0  0  0  0  0  0  0  0  0  0
    7.6645   -5.9451   12.1007 H   0  0  0  0  0  0  0  0  0  0  0  0
    3.1576   -8.9091   13.1770 H   0  0  0  0  0  0  0  0  0  0  0  0
    4.4218   -9.5502   14.1985 H   0  0  0  0  0  0  0  0  0  0  0  0
    3.9974  -11.0382   12.2647 H   0  0  0  0  0  0  0  0  0  0  0  0
    4.3879   -9.7274   11.1528 H   0  0  0  0  0  0  0  0  0  0  0  0
    5.6369  -10.3951   12.1974 H   0  0  0  0  0  0  0  0  0  0  0  0
    3.5501   -6.1039   14.3814 H   0  0  0  0  0  0  0  0  0  0  0  0
    5.0706   -5.2555   14.2396 H   0  0  0  0  0  0  0  0  0  0  0  0
    4.5562   -7.6540   16.0538 H   0  0  0  0  0  0  0  0  0  0  0  0
    6.0932   -6.8061   15.9120 H   0  0  0  0  0  0  0  0  0  0  0  0
    4.6872   -5.9754   16.5726 H   0  0  0  0  0  0  0  0  0  0  0  0
    5.2939   -6.3617    6.8549 H   0  0  0  0  0  0  0  0  0  0  0  0
    3.2685   -6.9638    5.6953 H   0  0  0  0  0  0  0  0  0  0  0  0
    4.7973   -9.0302    3.5124 H   0  0  0  0  0  0  0  0  0  0  0  0
    7.0445   -9.7544    2.8279 H   0  0  0  0  0  0  0  0  0  0  0  0
    7.4996  -10.3315    0.4779 H   0  0  0  0  0  0  0  0  0  0  0  0
    6.8211  -10.2273   -1.8379 H   0  0  0  0  0  0  0  0  0  0  0  0
    5.2189   -9.6172   -2.2780 H   0  0  0  0  0  0  0  0  0  0  0  0
    5.4517  -12.0132   -2.8945 H   0  0  0  0  0  0  0  0  0  0  0  0
    4.2093  -11.8080   -1.6553 H   0  0  0  0  0  0  0  0  0  0  0  0
    5.8027  -12.4217   -1.2117 H   0  0  0  0  0  0  0  0  0  0  0  0
    3.4725   -9.3922   -0.5366 H   0  0  0  0  0  0  0  0  0  0  0  0
   -2.6910   -2.5185   -6.2142 H   0  0  0  0  0  0  0  0  0  0  0  0
   -3.0133   -1.8674   -8.5662 H   0  0  0  0  0  0  0  0  0  0  0  0
   -4.8578   -0.3618   -9.1921 H   0  0  0  0  0  0  0  0  0  0  0  0
   -7.0128    1.3655   -6.7606 H   0  0  0  0  0  0  0  0  0  0  0  0
   -6.4978    1.2991   -8.4504 H   0  0  0  0  0  0  0  0  0  0  0  0
   -8.2900   -0.7576   -7.0674 H   0  0  0  0  0  0  0  0  0  0  0  0
   -7.7746   -0.8276   -8.7519 H   0  0  0  0  0  0  0  0  0  0  0  0
   -8.8326    0.4786   -8.2072 H   0  0  0  0  0  0  0  0  0  0  0  0
   -6.1113   -0.2067   -5.1189 H   0  0  0  0  0  0  0  0  0  0  0  0
   -3.7806   -6.8999    1.6028 H   0  0  0  0  0  0  0  0  0  0  0  0
   -3.1801   -8.3837    2.3341 H   0  0  0  0  0  0  0  0  0  0  0  0
   -1.7014   -7.1986    3.8279 H   0  0  0  0  0  0  0  0  0  0  0  0
   -3.2662   -6.3985    3.9099 H   0  0  0  0  0  0  0  0  0  0  0  0
   -1.9410   -5.6686    2.9944 H   0  0  0  0  0  0  0  0  0  0  0  0
   -3.3531   -4.9357    1.3580 H   0  0  0  0  0  0  0  0  0  0  0  0
   -3.4871   -3.4626    0.4006 H   0  0  0  0  0  0  0  0  0  0  0  0
   -1.2541   -3.5719    1.4443 H   0  0  0  0  0  0  0  0  0  0  0  0
   -1.1074   -3.6870   -0.3091 H   0  0  0  0  0  0  0  0  0  0  0  0
   -0.9399   -5.1379    0.6803 H   0  0  0  0  0  0  0  0  0  0  0  0
   -3.7396    1.2448   -1.1243 H   0  0  0  0  0  0  0  0  0  0  0  0
   -0.7979    3.2504    0.1244 H   0  0  0  0  0  0  0  0  0  0  0  0
   -0.1825    8.8775    3.7780 H   0  0  0  0  0  0  0  0  0  0  0  0
   -0.9269    9.5490    5.2111 H   0  0  0  0  0  0  0  0  0  0  0  0
   -2.3524    8.7957    2.6222 H   0  0  0  0  0  0  0  0  0  0  0  0
   -3.1878    9.3349    4.0760 H   0  0  0  0  0  0  0  0  0  0  0  0
   -2.0884   10.4268    3.2434 H   0  0  0  0  0  0  0  0  0  0  0  0
   -2.6135    6.2097    7.0526 H   0  0  0  0  0  0  0  0  0  0  0  0
   -3.7328    6.9280    5.9108 H   0  0  0  0  0  0  0  0  0  0  0  0
   -3.0285    9.2013    6.6459 H   0  0  0  0  0  0  0  0  0  0  0  0
   -3.5967    8.2368    8.0064 H   0  0  0  0  0  0  0  0  0  0  0  0
   -1.8706    8.4814    7.7623 H   0  0  0  0  0  0  0  0  0  0  0  0
    1.0567    6.5766    4.9483 H   0  0  0  0  0  0  0  0  0  0  0  0
    0.2050    5.3250    5.8069 H   0  0  0  0  0  0  0  0  0  0  0  0
    1.7014    6.5760    7.3330 H   0  0  0  0  0  0  0  0  0  0  0  0
    0.0214    6.7979    7.8100 H   0  0  0  0  0  0  0  0  0  0  0  0
    0.8684    8.0797    6.9419 H   0  0  0  0  0  0  0  0  0  0  0  0
   -3.8567    6.7011    3.1211 H   0  0  0  0  0  0  0  0  0  0  0  0
   -2.6674    2.1108  -10.3688 H   0  0  0  0  0  0  0  0  0  0  0  0
   -2.3587    1.8830  -12.9269 H   0  0  0  0  0  0  0  0  0  0  0  0
   -1.1395    1.3965  -14.0728 H   0  0  0  0  0  0  0  0  0  0  0  0
   -2.1487   -0.5560  -12.8968 H   0  0  0  0  0  0  0  0  0  0  0  0
   -0.4165   -0.4449  -12.6053 H   0  0  0  0  0  0  0  0  0  0  0  0
   -1.5510    0.0663  -11.3579 H   0  0  0  0  0  0  0  0  0  0  0  0
    2.3906    2.6784  -11.9997 H   0  0  0  0  0  0  0  0  0  0  0  0
    1.8708    1.3205  -12.9661 H   0  0  0  0  0  0  0  0  0  0  0  0
    1.7237    1.4990   -9.9219 H   0  0  0  0  0  0  0  0  0  0  0  0
    1.1580    0.1270  -10.8665 H   0  0  0  0  0  0  0  0  0  0  0  0
    2.8706    0.5443  -10.8575 H   0  0  0  0  0  0  0  0  0  0  0  0
   -1.0581    4.6187  -13.3708 H   0  0  0  0  0  0  0  0  0  0  0  0
    0.3656    4.0350  -14.1961 H   0  0  0  0  0  0  0  0  0  0  0  0
    0.3714    5.6470  -11.6054 H   0  0  0  0  0  0  0  0  0  0  0  0
    1.8108    5.0530  -12.4237 H   0  0  0  0  0  0  0  0  0  0  0  0
    0.7870    6.2544  -13.2056 H   0  0  0  0  0  0  0  0  0  0  0  0
   -0.1412    4.6472   -6.1956 H   0  0  0  0  0  0  0  0  0  0  0  0
   -1.4409    6.4955   -5.4243 H   0  0  0  0  0  0  0  0  0  0  0  0
   -0.7450    8.6443   -4.6430 H   0  0  0  0  0  0  0  0  0  0  0  0
   -0.4208   10.4172    1.3716 H   0  0  0  0  0  0  0  0  0  0  0  0
    0.0662   12.2524    2.9651 H   0  0  0  0  0  0  0  0  0  0  0  0
    0.7275   14.6085    3.3886 H   0  0  0  0  0  0  0  0  0  0  0  0
    1.0955   15.2971   -0.8064 H   0  0  0  0  0  0  0  0  0  0  0  0
    0.6490   13.5032   -2.3958 H   0  0  0  0  0  0  0  0  0  0  0  0
  1  2  2  0  0  0  0
  2  3  1  0  0  0  0
  3  4  2  0  0  0  0
  3  5  1  0  0  0  0
  5  6  2  0  0  0  0
  6  7  1  0  0  0  0
  7  8  2  0  0  0  0
  8  9  1  0  0  0  0
  9 10  2  0  0  0  0
 10 11  1  0  0  0  0
 10 12  1  0  0  0  0
 12 13  2  0  0  0  0
 13 14  1  0  0  0  0
 14 15  2  0  0  0  0
 15 16  1  0  0  0  0
 16 17  2  0  0  0  0
 17 18  1  0  0  0  0
 18 19  3  0  0  0  0
 17 20  1  0  0  0  0
 20 21  3  0  0  0  0
  1 22  1  0  0  0  0
 22 23  2  0  0  0  0
 23 24  1  0  0  0  0
 24 25  2  0  0  0  0
 25 26  1  0  0  0  0
 26 27  2  0  0  0  0
 27 28  1  0  0  0  0
 28 29  1  0  0  0  0
 29 30  1  0  0  0  0
 30 31  1  0  0  0  0
 31 32  1  0  0  0  0
 32 33  1  0  0  0  0
 31 34  1  0  0  0  0
 34 35  1  0  0  0  0
 31 36  1  0  0  0  0
 36 37  1  0  0  0  0
 30 38  2  0  0  0  0
 38 39  1  0  0  0  0
 39 40  1  0  0  0  0
 25 41  1  0  0  0  0
 41 42  2  0  0  0  0
 42 43  1  0  0  0  0
 43 44  1  0  0  0  0
 44 45  1  0  0  0  0
 45 46  1  0  0  0  0
 46 47  1  0  0  0  0
 47 48  2  0  0  0  0
 48 49  1  0  0  0  0
 49 50  1  0  0  0  0
 50 51  1  0  0  0  0
 49 52  1  0  0  0  0
 52 53  1  0  0  0  0
 49 54  1  0  0  0  0
 54 55  1  0  0  0  0
 48 56  1  0  0  0  0
 56 57  1  0  0  0  0
 57 58  1  0  0  0  0
 43 59  2  0  0  0  0
 59 60  1  0  0  0  0
 42 61  1  0  0  0  0
 61 62  2  0  0  0  0
 62 63  1  0  0  0  0
 62 64  1  0  0  0  0
 64 65  2  0  0  0  0
 65 66  1  0  0  0  0
 66 67  2  0  0  0  0
 67 68  1  0  0  0  0
 68 69  2  0  0  0  0
 69 70  1  0  0  0  0
 70 71  1  0  0  0  0
 71 72  1  0  0  0  0
 70 73  2  0  0  0  0
 65 74  1  0  0  0  0
 74 75  1  0  0  0  0
 75 76  1  0  0  0  0
 76 77  1  0  0  0  0
 77 78  1  0  0  0  0
 78 79  1  0  0  0  0
 79 80  2  0  0  0  0
 80 81  1  0  0  0  0
 81 82  1  0  0  0  0
 79 83  1  0  0  0  0
 83 84  1  0  0  0  0
 84 85  1  0  0  0  0
 85 86  1  0  0  0  0
 86 87  1  0  0  0  0
 87 88  1  0  0  0  0
 88 89  2  0  0  0  0
 89 90  1  0  0  0  0
 90 91  2  0  0  0  0
 91 92  1  0  0  0  0
 92 93  1  0  0  0  0
 93 94  1  0  0  0  0
 92 95  2  0  0  0  0
 87 96  2  0  0  0  0
 96 97  1  0  0  0  0
 97 98  1  0  0  0  0
 98 99  1  0  0  0  0
 99100  1  0  0  0  0
100101  1  0  0  0  0
101102  1  0  0  0  0
102103  1  0  0  0  0
103104  1  0  0  0  0
104105  1  0  0  0  0
105106  1  0  0  0  0
103107  1  0  0  0  0
107108  1  0  0  0  0
100109  1  0  0  0  0
109110  1  0  0  0  0
 96111  1  0  0  0  0
111112  2  0  0  0  0
112113  1  0  0  0  0
113114  2  0  0  0  0
114115  1  0  0  0  0
115116  2  0  0  0  0
116117  1  0  0  0  0
117118  1  0  0  0  0
118119  1  0  0  0  0
119120  1  0  0  0  0
120121  1  0  0  0  0
121122  1  0  0  0  0
120123  1  0  0  0  0
123124  1  0  0  0  0
120125  1  0  0  0  0
125126  1  0  0  0  0
119127  2  0  0  0  0
127128  1  0  0  0  0
128129  1  0  0  0  0
114130  1  0  0  0  0
130131  2  0  0  0  0
131132  1  0  0  0  0
132133  1  0  0  0  0
133134  1  0  0  0  0
134135  1  0  0  0  0
135136  1  0  0  0  0
136137  2  0  0  0  0
137138  1  0  0  0  0
138139  1  0  0  0  0
139140  1  0  0  0  0
138141  1  0  0  0  0
141142  1  0  0  0  0
138143  1  0  0  0  0
143144  1  0  0  0  0
137145  1  0  0  0  0
145146  1  0  0  0  0
146147  1  0  0  0  0
132148  2  0  0  0  0
148149  1  0  0  0  0
131150  1  0  0  0  0
150151  2  0  0  0  0
151152  1  0  0  0  0
151153  1  0  0  0  0
153154  2  0  0  0  0
154155  1  0  0  0  0
155156  2  0  0  0  0
155157  1  0  0  0  0
157158  2  0  0  0  0
158159  1  0  0  0  0
159160  2  0  0  0  0
160161  1  0  0  0  0
161162  2  0  0  0  0
162163  1  0  0  0  0
162164  1  0  0  0  0
164165  2  0  0  0  0
165166  1  0  0  0  0
166167  2  0  0  0  0
167168  1  0  0  0  0
168169  2  0  0  0  0
169170  1  0  0  0  0
170171  3  0  0  0  0
169172  1  0  0  0  0
172173  3  0  0  0  0
 16  2  1  0  0  0  0
 60 22  1  0  0  0  0
106 64  1  0  0  0  0
149111  1  0  0  0  0
168154  1  0  0  0  0
 15  5  1  0  0  0  0
 59 24  1  0  0  0  0
 73 66  1  0  0  0  0
105 74  2  0  0  0  0
148113  1  0  0  0  0
167157  1  0  0  0  0
 13  7  1  0  0  0  0
 40 26  1  0  0  0  0
 63 41  1  0  0  0  0
104 76  2  0  0  0  0
129115  1  0  0  0  0
152130  1  0  0  0  0
165159  1  0  0  0  0
 39 28  2  0  0  0  0
 58 44  2  0  0  0  0
102 77  2  0  0  0  0
128117  2  0  0  0  0
147133  2  0  0  0  0
 57 46  2  0  0  0  0
 82 78  2  0  0  0  0
101 83  2  0  0  0  0
146135  2  0  0  0  0
 99 84  2  0  0  0  0
 98 86  2  0  0  0  0
 95 88  1  0  0  0  0
  1174  1  0  0  0  0
  6175  1  0  0  0  0
  8176  1  0  0  0  0
  9177  1  0  0  0  0
 12178  1  0  0  0  0
 14179  1  0  0  0  0
 23180  1  0  0  0  0
 27181  1  0  0  0  0
 32182  1  0  0  0  0
 32183  1  0  0  0  0
 33184  1  0  0  0  0
 33185  1  0  0  0  0
 33186  1  0  0  0  0
 34187  1  0  0  0  0
 34188  1  0  0  0  0
 35189  1  0  0  0  0
 35190  1  0  0  0  0
 35191  1  0  0  0  0
 36192  1  0  0  0  0
 36193  1  0  0  0  0
 37194  1  0  0  0  0
 37195  1  0  0  0  0
 37196  1  0  0  0  0
 38197  1  0  0  0  0
 47198  1  0  0  0  0
 50199  1  0  0  0  0
 50200  1  0  0  0  0
 51201  1  0  0  0  0
 51202  1  0  0  0  0
 51203  1  0  0  0  0
 52204  1  0  0  0  0
 52205  1  0  0  0  0
 53206  1  0  0  0  0
 53207  1  0  0  0  0
 53208  1  0  0  0  0
 54209  1  0  0  0  0
 54210  1  0  0  0  0
 55211  1  0  0  0  0
 55212  1  0  0  0  0
 55213  1  0  0  0  0
 58214  1  0  0  0  0
 61215  1  0  0  0  0
 67216  1  0  0  0  0
 68217  1  0  0  0  0
 69218  1  0  0  0  0
 71219  1  0  0  0  0
 71220  1  0  0  0  0
 72221  1  0  0  0  0
 72222  1  0  0  0  0
 72223  1  0  0  0  0
 73224  1  0  0  0  0
 89225  1  0  0  0  0
 90226  1  0  0  0  0
 91227  1  0  0  0  0
 93228  1  0  0  0  0
 93229  1  0  0  0  0
 94230  1  0  0  0  0
 94231  1  0  0  0  0
 94232  1  0  0  0  0
 95233  1  0  0  0  0
107234  1  0  0  0  0
107235  1  0  0  0  0
108236  1  0  0  0  0
108237  1  0  0  0  0
108238  1  0  0  0  0
109239  1  0  0  0  0
109240  1  0  0  0  0
110241  1  0  0  0  0
110242  1  0  0  0  0
110243  1  0  0  0  0
112244  1  0  0  0  0
116245  1  0  0  0  0
121246  1  0  0  0  0
121247  1  0  0  0  0
122248  1  0  0  0  0
122249  1  0  0  0  0
122250  1  0  0  0  0
123251  1  0  0  0  0
123252  1  0  0  0  0
124253  1  0  0  0  0
124254  1  0  0  0  0
124255  1  0  0  0  0
125256  1  0  0  0  0
125257  1  0  0  0  0
126258  1  0  0  0  0
126259  1  0  0  0  0
126260  1  0  0  0  0
127261  1  0  0  0  0
136262  1  0  0  0  0
139263  1  0  0  0  0
139264  1  0  0  0  0
140265  1  0  0  0  0
140266  1  0  0  0  0
140267  1  0  0  0  0
141268  1  0  0  0  0
141269  1  0  0  0  0
142270  1  0  0  0  0
142271  1  0  0  0  0
142272  1  0  0  0  0
143273  1  0  0  0  0
143274  1  0  0  0  0
144275  1  0  0  0  0
144276  1  0  0  0  0
144277  1  0  0  0  0
147278  1  0  0  0  0
150279  1  0  0  0  0
153280  1  0  0  0  0
158281  1  0  0  0  0
160282  1  0  0  0  0
161283  1  0  0  0  0
164284  1  0  0  0  0
166285  1  0  0  0  0
M  END
