139

C         -2.10470       10.30180       -0.60000
C         -3.43960       10.15150       -0.77130
C         -4.18030       11.09720       -1.66070
O         -3.77830       12.15500       -2.08250
C         -5.46140       10.42690       -1.95050
C         -6.46180       10.81770       -2.79390
C         -7.61150       10.00730       -2.92220
C         -8.68100       10.37440       -3.76510
C         -9.79020        9.58390       -3.88030
C         -9.85270        8.39120       -3.14620
F        -10.95160        7.62660       -3.27290
C         -8.84410        7.98730       -2.31650
C         -7.69600        8.79190       -2.18140
C         -6.64560        8.41180       -1.31450
C         -5.55050        9.22370       -1.19140
C         -4.37210        9.12870       -0.33560
C         -4.29470        8.40280        0.82160
C         -3.28690        8.57200        1.79590
N         -2.52970        8.70780        2.64730
C         -5.26690        7.46400        1.22450
N         -6.01330        6.67000        1.58450
C         -1.15490        9.36620       -0.11000
N         -0.01310        9.71820        0.40230
N          0.74870        8.74240        0.78210
C          0.26350        7.55110        0.56040
S         -1.32120        7.60570       -0.21280
C          0.86510        6.33200        0.94460
C          1.92610        6.14020        1.82370
C          2.77030        7.18540        2.39740
C          3.02770        7.18980        3.76620
C          3.84450        8.16370        4.30710
C          4.41600        9.12620        3.49320
C          4.18040        9.12620        2.12390
C          4.83520       10.13740        1.22800
C          6.15420        9.59170        0.67720
C          3.36030        8.14760        1.58530
C          2.08950        4.77500        2.11110
S          3.19320        3.92210        3.16270
C          2.47590        2.43030        2.66550
C          2.58910        1.05600        2.93840
C          3.29290        0.32060        3.92030
C          3.04180       -1.09150        4.05190
N          3.70010       -1.62580        5.06760
S          4.56600       -0.46580        5.79060
N          4.13420        0.76870        4.83790
C          2.24000       -1.74080        3.08440
C          1.96970       -3.09380        2.81520
S          2.24720       -4.64670        3.52380
C          1.49110       -5.38750        2.13410
C          1.30260       -6.73040        1.76810
C          1.72450       -7.85610        2.60090
C          2.51020       -8.88110        2.08390
C          2.91600       -9.91400        2.90550
C          2.54430       -9.93460        4.23870
C          1.77220       -8.91170        4.77410
C          1.33190       -8.95020        6.20890
C          0.00080       -9.69420        6.33480
C          1.37260       -7.87380        3.94620
C          0.71550       -6.82100        0.51320
S          0.39650       -5.25220       -0.20720
C          1.05380       -4.46120        1.17950
C          1.30620       -3.14560        1.58140
N          1.10590       -1.87520        1.10040
C          1.65050       -1.00360        2.02500
C          1.67200        0.40700        2.07210
N          0.96060        1.35160        1.35600
C          1.45130        2.58200        1.72020
C          1.21390        3.92660        1.42200
S          0.11930        4.82510        0.43580
C         -0.39890        1.20970        0.87340
C         -1.40550        1.74540        1.89090
C          0.96890       -1.63950       -0.32270
C          2.20450       -2.12030       -1.08290
C          0.34570       -7.98900       -0.19610
N          0.22810       -9.17850        0.35840
N         -0.08510      -10.11200       -0.47210
C         -0.21270       -9.73410       -1.72460
S          0.04570       -8.00180       -1.91940
C         -0.50730      -10.69880       -2.71220
C         -0.51440      -10.56980       -4.06920
C         -0.12740       -9.36160       -4.82750
O          0.03660       -8.23540       -4.40070
C          0.03680       -9.79760       -6.22330
C          0.47350       -9.07420       -7.29570
C          0.58470       -9.70780       -8.55270
C          1.04150       -9.01270       -9.69130
C          1.15520       -9.64030      -10.90040
C          0.80720      -10.99480      -10.99710
F          0.92690      -11.59460      -12.19440
C          0.35710      -11.71470       -9.92530
C          0.23510      -11.08480       -8.67140
C         -0.22290      -11.80540       -7.54370
C         -0.32230      -11.17080       -6.33410
C         -0.74230      -11.64790       -5.02010
C         -1.29900      -12.86990       -4.75810
C         -1.50320      -13.86580       -5.73750
N         -1.69020      -14.71420       -6.48740
C         -1.78520      -13.29710       -3.50280
N         -2.22260      -13.71300       -2.52670
H         -1.68090       11.24720       -0.92320
H         -6.37930       11.73830       -3.35190
H         -8.60990       11.29750       -4.32030
H        -10.61770        9.85140       -4.51810
H         -8.92820        7.06530       -1.76270
H         -6.73090        7.48410       -0.77110
H          2.56820        6.44930        4.40340
H          4.03400        8.17340        5.37020
H          5.05040        9.88700        3.92480
H          5.02980       11.05460        1.78640
H          4.16680       10.37650        0.39930
H          6.62860       10.32490        0.02910
H          6.83580        9.35530        1.49140
H          5.97910        8.68360        0.10460
H          3.18430        8.12500        0.52120
H          2.81600       -8.85510        1.04940
H          3.52710      -10.70880        2.50440
H          2.86170      -10.74980        4.87280
H          1.21470       -7.93300        6.58750
H          2.08620       -9.45620        6.81450
H         -0.76510       -9.20180        5.74010
H          0.10350      -10.71620        5.97770
H         -0.32510       -9.71850        7.37210
H          0.76380       -7.07590        4.34690
H         -0.60880        0.15490        0.70480
H         -0.49380        1.75850       -0.06890
H         -1.29040        1.22780        2.84080
H         -2.41490        1.58230        1.52400
H         -1.26810        2.81030        2.05510
H          0.08210       -2.17310       -0.67830
H          0.84820       -0.57260       -0.50060
H          2.09090       -1.89570       -2.13960
H          2.33820       -3.19250       -0.97150
H          3.09380       -1.61600       -0.71070
H         -0.68910      -11.67500       -2.27890
H          0.73720       -8.03310       -7.18400
H          1.30390       -7.97020       -9.59170
H          1.50510       -9.12430      -11.78040
H          0.09740      -12.75580      -10.03680
H         -0.47420      -12.84660       -7.66600
