
  xtb     02112204423D
 energy: -247.829454481556 gnorm: 0.000749653324 xtb: 6.4.1 (unknown)
136152  0     0  0            999 V2000
   -3.8154    9.4124    3.0371 C   0  0  0  0  0  0  0  0  0  0  0  0
   -5.1056    8.9723    2.9810 C   0  0  0  0  0  0  0  0  0  0  0  0
   -5.5457    7.6269    2.5590 C   0  0  0  0  0  0  0  0  0  0  0  0
   -4.8565    6.7119    2.1504 O   0  0  0  0  0  0  0  0  0  0  0  0
   -7.0060    7.6017    2.7341 C   0  0  0  0  0  0  0  0  0  0  0  0
   -7.8737    6.5743    2.4975 C   0  0  0  0  0  0  0  0  0  0  0  0
   -9.2503    6.7661    2.7458 C   0  0  0  0  0  0  0  0  0  0  0  0
  -10.1917    5.7408    2.5205 C   0  0  0  0  0  0  0  0  0  0  0  0
  -11.5214    5.9394    2.7682 C   0  0  0  0  0  0  0  0  0  0  0  0
  -11.9424    7.1854    3.2533 C   0  0  0  0  0  0  0  0  0  0  0  0
  -13.2542    7.3608    3.4917 F   0  0  0  0  0  0  0  0  0  0  0  0
  -11.0719    8.2132    3.4883 C   0  0  0  0  0  0  0  0  0  0  0  0
   -9.6983    8.0265    3.2381 C   0  0  0  0  0  0  0  0  0  0  0  0
   -8.7750    9.0723    3.4706 C   0  0  0  0  0  0  0  0  0  0  0  0
   -7.4441    8.8654    3.2205 C   0  0  0  0  0  0  0  0  0  0  0  0
   -6.2825    9.7398    3.3601 C   0  0  0  0  0  0  0  0  0  0  0  0
   -6.3260   11.0489    3.7586 C   0  0  0  0  0  0  0  0  0  0  0  0
   -5.2252   11.9263    3.8716 C   0  0  0  0  0  0  0  0  0  0  0  0
   -4.4013   12.7166    3.9916 N   0  0  0  0  0  0  0  0  0  0  0  0
   -7.5145   11.7274    4.1060 C   0  0  0  0  0  0  0  0  0  0  0  0
   -8.4404   12.3376    4.4021 N   0  0  0  0  0  0  0  0  0  0  0  0
   -2.6196    8.7418    2.7061 C   0  0  0  0  0  0  0  0  0  0  0  0
   -1.4711    9.3607    2.8766 N   0  0  0  0  0  0  0  0  0  0  0  0
   -0.4240    8.6865    2.5530 N   0  0  0  0  0  0  0  0  0  0  0  0
   -0.6872    7.4768    2.0975 C   0  0  0  0  0  0  0  0  0  0  0  0
   -2.4001    7.1161    2.0640 S   0  0  0  0  0  0  0  0  0  0  0  0
    0.2989    6.5410    1.7122 C   0  0  0  0  0  0  0  0  0  0  0  0
    1.6825    6.6794    1.7137 C   0  0  0  0  0  0  0  0  0  0  0  0
    2.4335    7.9047    1.9784 C   0  0  0  0  0  0  0  0  0  0  0  0
    2.1137    9.0999    1.3408 C   0  0  0  0  0  0  0  0  0  0  0  0
    2.8795   10.2250    1.5730 C   0  0  0  0  0  0  0  0  0  0  0  0
    3.9644   10.1700    2.4316 C   0  0  0  0  0  0  0  0  0  0  0  0
    4.3015    8.9836    3.0696 C   0  0  0  0  0  0  0  0  0  0  0  0
    5.5110    8.8924    3.9546 C   0  0  0  0  0  0  0  0  0  0  0  0
    6.7012    8.3411    3.1667 C   0  0  0  0  0  0  0  0  0  0  0  0
    3.5313    7.8558    2.8311 C   0  0  0  0  0  0  0  0  0  0  0  0
    2.3053    5.4617    1.3921 C   0  0  0  0  0  0  0  0  0  0  0  0
    3.9872    5.0090    1.2380 S   0  0  0  0  0  0  0  0  0  0  0  0
    3.4891    3.4110    0.8046 C   0  0  0  0  0  0  0  0  0  0  0  0
    4.0594    2.1845    0.4363 C   0  0  0  0  0  0  0  0  0  0  0  0
    5.4080    1.8301    0.2162 C   0  0  0  0  0  0  0  0  0  0  0  0
    5.7061    0.5134   -0.2618 C   0  0  0  0  0  0  0  0  0  0  0  0
    7.0010    0.3308   -0.4693 N   0  0  0  0  0  0  0  0  0  0  0  0
    7.7778    1.6989   -0.0895 S   0  0  0  0  0  0  0  0  0  0  0  0
    6.4924    2.5777    0.3522 N   0  0  0  0  0  0  0  0  0  0  0  0
    4.6502   -0.4118   -0.4089 C   0  0  0  0  0  0  0  0  0  0  0  0
    4.6716   -1.7699   -0.7569 C   0  0  0  0  0  0  0  0  0  0  0  0
    5.8078   -2.9843   -1.2319 S   0  0  0  0  0  0  0  0  0  0  0  0
    4.5019   -4.1458   -1.2912 C   0  0  0  0  0  0  0  0  0  0  0  0
    4.4733   -5.5215   -1.5827 C   0  0  0  0  0  0  0  0  0  0  0  0
    5.6782   -6.2840   -1.9034 C   0  0  0  0  0  0  0  0  0  0  0  0
    5.9633   -7.4884   -1.2670 C   0  0  0  0  0  0  0  0  0  0  0  0
    7.1386   -8.1533   -1.5559 C   0  0  0  0  0  0  0  0  0  0  0  0
    8.0362   -7.6268   -2.4692 C   0  0  0  0  0  0  0  0  0  0  0  0
    7.7709   -6.4219   -3.1066 C   0  0  0  0  0  0  0  0  0  0  0  0
    8.7639   -5.8068   -4.0501 C   0  0  0  0  0  0  0  0  0  0  0  0
    9.6318   -4.7866   -3.3100 C   0  0  0  0  0  0  0  0  0  0  0  0
    6.5903   -5.7574   -2.8125 C   0  0  0  0  0  0  0  0  0  0  0  0
    3.1771   -6.0152   -1.4980 C   0  0  0  0  0  0  0  0  0  0  0  0
    2.0123   -4.7894   -1.0238 S   0  0  0  0  0  0  0  0  0  0  0  0
    3.2590   -3.5980   -0.9551 C   0  0  0  0  0  0  0  0  0  0  0  0
    3.3582   -2.2359   -0.6500 C   0  0  0  0  0  0  0  0  0  0  0  0
    2.5257   -1.2172   -0.2725 N   0  0  0  0  0  0  0  0  0  0  0  0
    3.2954   -0.0738   -0.1209 C   0  0  0  0  0  0  0  0  0  0  0  0
    2.9863    1.2711    0.2201 C   0  0  0  0  0  0  0  0  0  0  0  0
    1.7954    1.9489    0.4322 N   0  0  0  0  0  0  0  0  0  0  0  0
    2.1019    3.2373    0.7792 C   0  0  0  0  0  0  0  0  0  0  0  0
    1.4209    4.4125    1.1145 C   0  0  0  0  0  0  0  0  0  0  0  0
   -0.2211    4.9213    1.2749 S   0  0  0  0  0  0  0  0  0  0  0  0
    0.4479    1.6345    0.0126 C   0  0  0  0  0  0  0  0  0  0  0  0
    0.3626    1.4500   -1.5006 C   0  0  0  0  0  0  0  0  0  0  0  0
    1.2064   -1.5348    0.2265 C   0  0  0  0  0  0  0  0  0  0  0  0
    1.1333   -1.3894    1.7446 C   0  0  0  0  0  0  0  0  0  0  0  0
    2.6823   -7.3001   -1.8219 C   0  0  0  0  0  0  0  0  0  0  0  0
    3.4204   -8.3022   -2.2523 N   0  0  0  0  0  0  0  0  0  0  0  0
    2.7480   -9.3708   -2.5136 N   0  0  0  0  0  0  0  0  0  0  0  0
    1.4513   -9.2846   -2.3196 C   0  0  0  0  0  0  0  0  0  0  0  0
    0.9776   -7.6932   -1.7354 S   0  0  0  0  0  0  0  0  0  0  0  0
    0.6368  -10.4106   -2.5753 C   0  0  0  0  0  0  0  0  0  0  0  0
   -0.7187  -10.5293   -2.5197 C   0  0  0  0  0  0  0  0  0  0  0  0
   -1.6797   -9.4436   -2.2263 C   0  0  0  0  0  0  0  0  0  0  0  0
   -1.4344   -8.3081   -1.8693 O   0  0  0  0  0  0  0  0  0  0  0  0
   -3.0162  -10.0136   -2.4618 C   0  0  0  0  0  0  0  0  0  0  0  0
   -4.2435   -9.3886   -2.3679 C   0  0  0  0  0  0  0  0  0  0  0  0
   -5.3944  -10.1205   -2.6452 C   0  0  0  0  0  0  0  0  0  0  0  0
   -6.7463   -9.4861   -2.5725 C   0  0  0  0  0  0  0  0  0  0  0  0
   -5.2701  -11.4613   -3.0099 C   0  0  0  0  0  0  0  0  0  0  0  0
   -4.0416  -12.0954   -3.1025 C   0  0  0  0  0  0  0  0  0  0  0  0
   -2.8939  -11.3663   -2.8240 C   0  0  0  0  0  0  0  0  0  0  0  0
   -1.4820  -11.7329   -2.8253 C   0  0  0  0  0  0  0  0  0  0  0  0
   -0.9890  -12.9917   -3.0335 C   0  0  0  0  0  0  0  0  0  0  0  0
    0.3696  -13.3733   -2.9726 C   0  0  0  0  0  0  0  0  0  0  0  0
    1.4413  -13.7823   -2.9281 N   0  0  0  0  0  0  0  0  0  0  0  0
   -1.7957  -14.1164   -3.3140 C   0  0  0  0  0  0  0  0  0  0  0  0
   -2.3919  -15.0685   -3.5489 N   0  0  0  0  0  0  0  0  0  0  0  0
   -3.6216   10.4169    3.3927 H   0  0  0  0  0  0  0  0  0  0  0  0
   -7.5122    5.6267    2.1269 H   0  0  0  0  0  0  0  0  0  0  0  0
   -9.8432    4.7897    2.1468 H   0  0  0  0  0  0  0  0  0  0  0  0
  -12.2546    5.1663    2.6016 H   0  0  0  0  0  0  0  0  0  0  0  0
  -11.4314    9.1594    3.8614 H   0  0  0  0  0  0  0  0  0  0  0  0
   -9.1487   10.0118    3.8437 H   0  0  0  0  0  0  0  0  0  0  0  0
    1.2816    9.1382    0.6564 H   0  0  0  0  0  0  0  0  0  0  0  0
    2.6308   11.1522    1.0789 H   0  0  0  0  0  0  0  0  0  0  0  0
    4.5563   11.0567    2.6077 H   0  0  0  0  0  0  0  0  0  0  0  0
    5.7610    9.8800    4.3461 H   0  0  0  0  0  0  0  0  0  0  0  0
    5.3024    8.2323    4.7989 H   0  0  0  0  0  0  0  0  0  0  0  0
    7.5783    8.2664    3.8050 H   0  0  0  0  0  0  0  0  0  0  0  0
    6.4711    7.3536    2.7733 H   0  0  0  0  0  0  0  0  0  0  0  0
    6.9352    8.9953    2.3300 H   0  0  0  0  0  0  0  0  0  0  0  0
    3.7758    6.9301    3.3324 H   0  0  0  0  0  0  0  0  0  0  0  0
    5.2749   -7.8890   -0.5408 H   0  0  0  0  0  0  0  0  0  0  0  0
    7.3583   -9.0884   -1.0632 H   0  0  0  0  0  0  0  0  0  0  0  0
    8.9527   -8.1555   -2.6889 H   0  0  0  0  0  0  0  0  0  0  0  0
    8.2386   -5.3067   -4.8663 H   0  0  0  0  0  0  0  0  0  0  0  0
    9.4011   -6.5829   -4.4777 H   0  0  0  0  0  0  0  0  0  0  0  0
   10.3497   -4.3333   -3.9894 H   0  0  0  0  0  0  0  0  0  0  0  0
    9.0123   -4.0014   -2.8824 H   0  0  0  0  0  0  0  0  0  0  0  0
   10.1757   -5.2701   -2.5016 H   0  0  0  0  0  0  0  0  0  0  0  0
    6.3670   -4.8261   -3.3130 H   0  0  0  0  0  0  0  0  0  0  0  0
    0.0708    0.7637    0.5483 H   0  0  0  0  0  0  0  0  0  0  0  0
   -0.1739    2.4838    0.3062 H   0  0  0  0  0  0  0  0  0  0  0  0
    1.0318    0.6630   -1.8407 H   0  0  0  0  0  0  0  0  0  0  0  0
   -0.6546    1.1971   -1.7869 H   0  0  0  0  0  0  0  0  0  0  0  0
    0.6436    2.3729   -2.0027 H   0  0  0  0  0  0  0  0  0  0  0  0
    0.4494   -0.9322   -0.2747 H   0  0  0  0  0  0  0  0  0  0  0  0
    1.0156   -2.5763   -0.0437 H   0  0  0  0  0  0  0  0  0  0  0  0
    1.3962   -0.3815    2.0578 H   0  0  0  0  0  0  0  0  0  0  0  0
    0.1289   -1.6167    2.0912 H   0  0  0  0  0  0  0  0  0  0  0  0
    1.8267   -2.0816    2.2166 H   0  0  0  0  0  0  0  0  0  0  0  0
    1.2259  -11.2687   -2.8752 H   0  0  0  0  0  0  0  0  0  0  0  0
   -4.2951   -8.3482   -2.0836 H   0  0  0  0  0  0  0  0  0  0  0  0
   -6.6959   -8.5129   -2.0917 H   0  0  0  0  0  0  0  0  0  0  0  0
   -7.4381  -10.1195   -2.0204 H   0  0  0  0  0  0  0  0  0  0  0  0
   -7.1490   -9.3538   -3.5768 H   0  0  0  0  0  0  0  0  0  0  0  0
   -6.1654  -12.0256   -3.2269 H   0  0  0  0  0  0  0  0  0  0  0  0
   -3.9958  -13.1328   -3.3900 H   0  0  0  0  0  0  0  0  0  0  0  0
  1  2  2  0  0  0  0
  2  3  1  0  0  0  0
  3  4  2  0  0  0  0
  3  5  1  0  0  0  0
  5  6  2  0  0  0  0
  6  7  1  0  0  0  0
  7  8  2  0  0  0  0
  8  9  1  0  0  0  0
  9 10  2  0  0  0  0
 10 11  1  0  0  0  0
 10 12  1  0  0  0  0
 12 13  2  0  0  0  0
 13 14  1  0  0  0  0
 14 15  2  0  0  0  0
 15 16  1  0  0  0  0
 16 17  2  0  0  0  0
 17 18  1  0  0  0  0
 18 19  3  0  0  0  0
 17 20  1  0  0  0  0
 20 21  3  0  0  0  0
  1 22  1  0  0  0  0
 22 23  2  0  0  0  0
 23 24  1  0  0  0  0
 24 25  2  0  0  0  0
 25 26  1  0  0  0  0
 25 27  1  0  0  0  0
 27 28  2  0  0  0  0
 28 29  1  0  0  0  0
 29 30  2  0  0  0  0
 30 31  1  0  0  0  0
 31 32  2  0  0  0  0
 32 33  1  0  0  0  0
 33 34  1  0  0  0  0
 34 35  1  0  0  0  0
 33 36  2  0  0  0  0
 28 37  1  0  0  0  0
 37 38  1  0  0  0  0
 38 39  1  0  0  0  0
 39 40  1  0  0  0  0
 40 41  1  0  0  0  0
 41 42  1  0  0  0  0
 42 43  2  0  0  0  0
 43 44  1  0  0  0  0
 44 45  1  0  0  0  0
 42 46  1  0  0  0  0
 46 47  1  0  0  0  0
 47 48  1  0  0  0  0
 48 49  1  0  0  0  0
 49 50  1  0  0  0  0
 50 51  1  0  0  0  0
 51 52  2  0  0  0  0
 52 53  1  0  0  0  0
 53 54  2  0  0  0  0
 54 55  1  0  0  0  0
 55 56  1  0  0  0  0
 56 57  1  0  0  0  0
 55 58  2  0  0  0  0
 50 59  2  0  0  0  0
 59 60  1  0  0  0  0
 60 61  1  0  0  0  0
 61 62  1  0  0  0  0
 62 63  1  0  0  0  0
 63 64  1  0  0  0  0
 64 65  1  0  0  0  0
 65 66  1  0  0  0  0
 66 67  1  0  0  0  0
 67 68  1  0  0  0  0
 68 69  1  0  0  0  0
 66 70  1  0  0  0  0
 70 71  1  0  0  0  0
 63 72  1  0  0  0  0
 72 73  1  0  0  0  0
 59 74  1  0  0  0  0
 74 75  2  0  0  0  0
 75 76  1  0  0  0  0
 76 77  2  0  0  0  0
 77 78  1  0  0  0  0
 77 79  1  0  0  0  0
 79 80  2  0  0  0  0
 80 81  1  0  0  0  0
 81 82  2  0  0  0  0
 81 83  1  0  0  0  0
 83 84  2  0  0  0  0
 84 85  1  0  0  0  0
 85 86  1  0  0  0  0
 85 87  2  0  0  0  0
 87 88  1  0  0  0  0
 88 89  2  0  0  0  0
 89 90  1  0  0  0  0
 90 91  2  0  0  0  0
 91 92  1  0  0  0  0
 92 93  3  0  0  0  0
 91 94  1  0  0  0  0
 94 95  3  0  0  0  0
 16  2  1  0  0  0  0
 26 22  1  0  0  0  0
 69 27  1  0  0  0  0
 78 74  1  0  0  0  0
 90 80  1  0  0  0  0
 15  5  1  0  0  0  0
 36 29  1  0  0  0  0
 68 37  2  0  0  0  0
 89 83  1  0  0  0  0
 13  7  1  0  0  0  0
 67 39  2  0  0  0  0
 65 40  2  0  0  0  0
 45 41  2  0  0  0  0
 64 46  2  0  0  0  0
 62 47  2  0  0  0  0
 61 49  2  0  0  0  0
 58 51  1  0  0  0  0
  1 96  1  0  0  0  0
  6 97  1  0  0  0  0
  8 98  1  0  0  0  0
  9 99  1  0  0  0  0
 12100  1  0  0  0  0
 14101  1  0  0  0  0
 30102  1  0  0  0  0
 31103  1  0  0  0  0
 32104  1  0  0  0  0
 34105  1  0  0  0  0
 34106  1  0  0  0  0
 35107  1  0  0  0  0
 35108  1  0  0  0  0
 35109  1  0  0  0  0
 36110  1  0  0  0  0
 52111  1  0  0  0  0
 53112  1  0  0  0  0
 54113  1  0  0  0  0
 56114  1  0  0  0  0
 56115  1  0  0  0  0
 57116  1  0  0  0  0
 57117  1  0  0  0  0
 57118  1  0  0  0  0
 58119  1  0  0  0  0
 70120  1  0  0  0  0
 70121  1  0  0  0  0
 71122  1  0  0  0  0
 71123  1  0  0  0  0
 71124  1  0  0  0  0
 72125  1  0  0  0  0
 72126  1  0  0  0  0
 73127  1  0  0  0  0
 73128  1  0  0  0  0
 73129  1  0  0  0  0
 79130  1  0  0  0  0
 84131  1  0  0  0  0
 86132  1  0  0  0  0
 86133  1  0  0  0  0
 86134  1  0  0  0  0
 87135  1  0  0  0  0
 88136  1  0  0  0  0
M  END
