93

C          6.26880       -3.49600        0.39020
C          6.15630       -4.78830       -0.02210
C          4.90270       -5.47930       -0.40040
O          3.76180       -5.10140       -0.22780
C          5.31500       -6.73400       -1.04970
C          4.52990       -7.68320       -1.63900
C          5.14090       -8.80970       -2.23130
C          4.37940       -9.81720       -2.85860
C          4.98330      -10.89840       -3.43720
C          6.38130      -10.99540       -3.39860
F          6.95690      -12.06500       -3.97470
C          7.16640      -10.04830       -2.80180
C          6.56140       -8.92750       -2.20020
C          7.34730       -7.93170       -1.57490
C          6.73280       -6.84910       -1.00270
C          7.26960       -5.68640       -0.30220
C          8.57460       -5.51720        0.06910
C          9.08500       -4.43630        0.82220
N          9.58390       -3.61170        1.44530
C          9.60030       -6.44390       -0.22040
N         10.47690       -7.15530       -0.42610
C          5.25560       -2.53580        0.62550
N          5.60520       -1.29070        0.87140
N          4.61990       -0.47470        1.04700
C          3.43780       -1.04470        0.96620
S          3.51040       -2.75020        0.63480
C          2.20030       -0.33400        1.08740
C          2.13560        1.03570        1.23780
C          0.90710        1.72350        1.29820
C         -0.34530        1.06390        1.21210
C         -0.27950       -0.34750        1.08860
C          0.96690       -1.02870        1.02500
N          0.70660       -2.33350        0.90030
N         -0.59690       -2.40150        0.89200
C         -1.28010       -3.66080        0.82430
C         -1.45170       -4.24480        2.22360
N         -1.24180       -1.27270        0.99880
C         -1.57210        1.75530        1.22640
C         -1.63760        3.12940        1.32560
C         -0.40690        3.82230        1.43660
N         -0.14520        5.12720        1.56410
N          1.15790        5.18840        1.62570
C          1.84750        6.44200        1.72940
C          2.02070        7.06890        0.34920
N          1.80040        4.05640        1.54710
C          0.83860        3.13460        1.42580
C         -2.88460        3.83310        1.29230
N         -4.05210        3.25400        1.21540
N         -5.05650        4.07110        1.14780
C         -4.73400        5.32990        1.17000
S         -2.98970        5.57620        1.32290
C         -5.62900        6.43870        1.16150
C         -6.85310        6.46160        0.58150
C         -7.36790        5.44910       -0.39540
O         -6.79460        4.48610       -0.84010
C         -8.69460        5.95120       -0.80510
C         -9.58860        5.37280       -1.68260
C        -10.79510        6.01810       -1.94140
C        -11.78580        5.43010       -2.89370
C        -11.05710        7.23610       -1.31360
C        -10.16170        7.82650       -0.43700
C         -8.96220        7.17820       -0.17300
C         -7.84070        7.52820        0.68810
C         -7.76330        8.63790        1.48600
C         -8.76600        9.62930        1.56330
N         -9.53730       10.47250        1.67190
C         -6.69160        8.96230        2.34520
N         -5.86860        9.30060        3.07090
H          7.25850       -3.07700        0.52900
H          3.45610       -7.57190       -1.65690
H          3.30430       -9.71940       -2.87580
H          4.41630      -11.67700       -3.92230
H          8.23960      -10.15730       -2.79040
H          8.41890       -8.04890       -1.57250
H          3.04870        1.60640        1.29680
H         -0.67790       -4.32810        0.20480
H         -2.25140       -3.48170        0.36020
H         -0.47930       -4.40790        2.68200
H         -2.02700       -3.56440        2.84680
H         -1.97570       -5.19430        2.16520
H         -2.48470        1.18670        1.14370
H          2.81780        6.24090        2.18640
H          1.25390        7.09590        2.37150
H          2.53870        8.01910        0.43920
H          2.60240        6.41170       -0.29260
H          1.04910        7.24040       -0.10790
H         -5.26030        7.31800        1.67340
H         -9.34580        4.42980       -2.14900
H        -11.65330        4.35460       -2.97740
H        -11.64720        5.86580       -3.88390
H        -12.80410        5.64190       -2.57610
H        -11.99210        7.73710       -1.51870
H        -10.40610        8.77070        0.02130
