
  xtb     02112205003D
 energy: -177.790612844743 gnorm: 0.000849507300 xtb: 6.4.1 (unknown)
 93103  0     0  0            999 V2000
    6.2688   -3.4960    0.3902 C   0  0  0  0  0  0  0  0  0  0  0  0
    6.1563   -4.7883   -0.0221 C   0  0  0  0  0  0  0  0  0  0  0  0
    4.9027   -5.4793   -0.4004 C   0  0  0  0  0  0  0  0  0  0  0  0
    3.7618   -5.1014   -0.2278 O   0  0  0  0  0  0  0  0  0  0  0  0
    5.3150   -6.7340   -1.0497 C   0  0  0  0  0  0  0  0  0  0  0  0
    4.5299   -7.6832   -1.6390 C   0  0  0  0  0  0  0  0  0  0  0  0
    5.1409   -8.8097   -2.2313 C   0  0  0  0  0  0  0  0  0  0  0  0
    4.3794   -9.8172   -2.8586 C   0  0  0  0  0  0  0  0  0  0  0  0
    4.9833  -10.8984   -3.4372 C   0  0  0  0  0  0  0  0  0  0  0  0
    6.3813  -10.9954   -3.3986 C   0  0  0  0  0  0  0  0  0  0  0  0
    6.9569  -12.0650   -3.9747 F   0  0  0  0  0  0  0  0  0  0  0  0
    7.1664  -10.0483   -2.8018 C   0  0  0  0  0  0  0  0  0  0  0  0
    6.5614   -8.9275   -2.2002 C   0  0  0  0  0  0  0  0  0  0  0  0
    7.3473   -7.9317   -1.5749 C   0  0  0  0  0  0  0  0  0  0  0  0
    6.7328   -6.8491   -1.0027 C   0  0  0  0  0  0  0  0  0  0  0  0
    7.2696   -5.6864   -0.3022 C   0  0  0  0  0  0  0  0  0  0  0  0
    8.5746   -5.5172    0.0691 C   0  0  0  0  0  0  0  0  0  0  0  0
    9.0850   -4.4363    0.8222 C   0  0  0  0  0  0  0  0  0  0  0  0
    9.5839   -3.6117    1.4453 N   0  0  0  0  0  0  0  0  0  0  0  0
    9.6003   -6.4439   -0.2204 C   0  0  0  0  0  0  0  0  0  0  0  0
   10.4769   -7.1553   -0.4261 N   0  0  0  0  0  0  0  0  0  0  0  0
    5.2556   -2.5358    0.6255 C   0  0  0  0  0  0  0  0  0  0  0  0
    5.6052   -1.2907    0.8714 N   0  0  0  0  0  0  0  0  0  0  0  0
    4.6199   -0.4747    1.0470 N   0  0  0  0  0  0  0  0  0  0  0  0
    3.4378   -1.0447    0.9662 C   0  0  0  0  0  0  0  0  0  0  0  0
    3.5104   -2.7502    0.6348 S   0  0  0  0  0  0  0  0  0  0  0  0
    2.2003   -0.3340    1.0874 C   0  0  0  0  0  0  0  0  0  0  0  0
    2.1356    1.0357    1.2378 C   0  0  0  0  0  0  0  0  0  0  0  0
    0.9071    1.7235    1.2982 C   0  0  0  0  0  0  0  0  0  0  0  0
   -0.3453    1.0639    1.2121 C   0  0  0  0  0  0  0  0  0  0  0  0
   -0.2795   -0.3475    1.0886 C   0  0  0  0  0  0  0  0  0  0  0  0
    0.9669   -1.0287    1.0250 C   0  0  0  0  0  0  0  0  0  0  0  0
    0.7066   -2.3335    0.9003 N   0  0  0  0  0  0  0  0  0  0  0  0
   -0.5969   -2.4015    0.8920 N   0  0  0  0  0  0  0  0  0  0  0  0
   -1.2801   -3.6608    0.8243 C   0  0  0  0  0  0  0  0  0  0  0  0
   -1.4517   -4.2448    2.2236 C   0  0  0  0  0  0  0  0  0  0  0  0
   -1.2418   -1.2727    0.9988 N   0  0  0  0  0  0  0  0  0  0  0  0
   -1.5721    1.7553    1.2264 C   0  0  0  0  0  0  0  0  0  0  0  0
   -1.6376    3.1294    1.3256 C   0  0  0  0  0  0  0  0  0  0  0  0
   -0.4069    3.8223    1.4366 C   0  0  0  0  0  0  0  0  0  0  0  0
   -0.1452    5.1272    1.5641 N   0  0  0  0  0  0  0  0  0  0  0  0
    1.1579    5.1884    1.6257 N   0  0  0  0  0  0  0  0  0  0  0  0
    1.8475    6.4420    1.7294 C   0  0  0  0  0  0  0  0  0  0  0  0
    2.0207    7.0689    0.3492 C   0  0  0  0  0  0  0  0  0  0  0  0
    1.8004    4.0564    1.5471 N   0  0  0  0  0  0  0  0  0  0  0  0
    0.8386    3.1346    1.4258 C   0  0  0  0  0  0  0  0  0  0  0  0
   -2.8846    3.8331    1.2923 C   0  0  0  0  0  0  0  0  0  0  0  0
   -4.0521    3.2540    1.2154 N   0  0  0  0  0  0  0  0  0  0  0  0
   -5.0565    4.0711    1.1478 N   0  0  0  0  0  0  0  0  0  0  0  0
   -4.7340    5.3299    1.1700 C   0  0  0  0  0  0  0  0  0  0  0  0
   -2.9897    5.5762    1.3229 S   0  0  0  0  0  0  0  0  0  0  0  0
   -5.6290    6.4387    1.1615 C   0  0  0  0  0  0  0  0  0  0  0  0
   -6.8531    6.4616    0.5815 C   0  0  0  0  0  0  0  0  0  0  0  0
   -7.3679    5.4491   -0.3954 C   0  0  0  0  0  0  0  0  0  0  0  0
   -6.7946    4.4861   -0.8401 O   0  0  0  0  0  0  0  0  0  0  0  0
   -8.6946    5.9512   -0.8051 C   0  0  0  0  0  0  0  0  0  0  0  0
   -9.5886    5.3728   -1.6826 C   0  0  0  0  0  0  0  0  0  0  0  0
  -10.7951    6.0181   -1.9414 C   0  0  0  0  0  0  0  0  0  0  0  0
  -11.7858    5.4301   -2.8937 C   0  0  0  0  0  0  0  0  0  0  0  0
  -11.0571    7.2361   -1.3136 C   0  0  0  0  0  0  0  0  0  0  0  0
  -10.1617    7.8265   -0.4370 C   0  0  0  0  0  0  0  0  0  0  0  0
   -8.9622    7.1782   -0.1730 C   0  0  0  0  0  0  0  0  0  0  0  0
   -7.8407    7.5282    0.6881 C   0  0  0  0  0  0  0  0  0  0  0  0
   -7.7633    8.6379    1.4860 C   0  0  0  0  0  0  0  0  0  0  0  0
   -8.7660    9.6293    1.5633 C   0  0  0  0  0  0  0  0  0  0  0  0
   -9.5373   10.4725    1.6719 N   0  0  0  0  0  0  0  0  0  0  0  0
   -6.6916    8.9623    2.3452 C   0  0  0  0  0  0  0  0  0  0  0  0
   -5.8686    9.3006    3.0709 N   0  0  0  0  0  0  0  0  0  0  0  0
    7.2585   -3.0770    0.5290 H   0  0  0  0  0  0  0  0  0  0  0  0
    3.4561   -7.5719   -1.6569 H   0  0  0  0  0  0  0  0  0  0  0  0
    3.3043   -9.7194   -2.8758 H   0  0  0  0  0  0  0  0  0  0  0  0
    4.4163  -11.6770   -3.9223 H   0  0  0  0  0  0  0  0  0  0  0  0
    8.2396  -10.1573   -2.7904 H   0  0  0  0  0  0  0  0  0  0  0  0
    8.4189   -8.0489   -1.5725 H   0  0  0  0  0  0  0  0  0  0  0  0
    3.0487    1.6064    1.2968 H   0  0  0  0  0  0  0  0  0  0  0  0
   -0.6779   -4.3281    0.2048 H   0  0  0  0  0  0  0  0  0  0  0  0
   -2.2514   -3.4817    0.3602 H   0  0  0  0  0  0  0  0  0  0  0  0
   -0.4793   -4.4079    2.6820 H   0  0  0  0  0  0  0  0  0  0  0  0
   -2.0270   -3.5644    2.8468 H   0  0  0  0  0  0  0  0  0  0  0  0
   -1.9757   -5.1943    2.1652 H   0  0  0  0  0  0  0  0  0  0  0  0
   -2.4847    1.1867    1.1437 H   0  0  0  0  0  0  0  0  0  0  0  0
    2.8178    6.2409    2.1864 H   0  0  0  0  0  0  0  0  0  0  0  0
    1.2539    7.0959    2.3715 H   0  0  0  0  0  0  0  0  0  0  0  0
    2.5387    8.0191    0.4392 H   0  0  0  0  0  0  0  0  0  0  0  0
    2.6024    6.4117   -0.2926 H   0  0  0  0  0  0  0  0  0  0  0  0
    1.0491    7.2404   -0.1079 H   0  0  0  0  0  0  0  0  0  0  0  0
   -5.2603    7.3180    1.6734 H   0  0  0  0  0  0  0  0  0  0  0  0
   -9.3458    4.4298   -2.1490 H   0  0  0  0  0  0  0  0  0  0  0  0
  -11.6533    4.3546   -2.9774 H   0  0  0  0  0  0  0  0  0  0  0  0
  -11.6472    5.8658   -3.8839 H   0  0  0  0  0  0  0  0  0  0  0  0
  -12.8041    5.6419   -2.5761 H   0  0  0  0  0  0  0  0  0  0  0  0
  -11.9921    7.7371   -1.5187 H   0  0  0  0  0  0  0  0  0  0  0  0
  -10.4061    8.7707    0.0213 H   0  0  0  0  0  0  0  0  0  0  0  0
  1  2  2  0  0  0  0
  2  3  1  0  0  0  0
  3  4  2  0  0  0  0
  3  5  1  0  0  0  0
  5  6  2  0  0  0  0
  6  7  1  0  0  0  0
  7  8  2  0  0  0  0
  8  9  1  0  0  0  0
  9 10  2  0  0  0  0
 10 11  1  0  0  0  0
 10 12  1  0  0  0  0
 12 13  2  0  0  0  0
 13 14  1  0  0  0  0
 14 15  2  0  0  0  0
 15 16  1  0  0  0  0
 16 17  2  0  0  0  0
 17 18  1  0  0  0  0
 18 19  3  0  0  0  0
 17 20  1  0  0  0  0
 20 21  3  0  0  0  0
  1 22  1  0  0  0  0
 22 23  2  0  0  0  0
 23 24  1  0  0  0  0
 24 25  2  0  0  0  0
 25 26  1  0  0  0  0
 25 27  1  0  0  0  0
 27 28  2  0  0  0  0
 28 29  1  0  0  0  0
 29 30  2  0  0  0  0
 30 31  1  0  0  0  0
 31 32  1  0  0  0  0
 32 33  2  0  0  0  0
 33 34  1  0  0  0  0
 34 35  1  0  0  0  0
 35 36  1  0  0  0  0
 34 37  1  0  0  0  0
 30 38  1  0  0  0  0
 38 39  2  0  0  0  0
 39 40  1  0  0  0  0
 40 41  2  0  0  0  0
 41 42  1  0  0  0  0
 42 43  1  0  0  0  0
 43 44  1  0  0  0  0
 42 45  1  0  0  0  0
 45 46  2  0  0  0  0
 39 47  1  0  0  0  0
 47 48  2  0  0  0  0
 48 49  1  0  0  0  0
 49 50  2  0  0  0  0
 50 51  1  0  0  0  0
 50 52  1  0  0  0  0
 52 53  2  0  0  0  0
 53 54  1  0  0  0  0
 54 55  2  0  0  0  0
 54 56  1  0  0  0  0
 56 57  2  0  0  0  0
 57 58  1  0  0  0  0
 58 59  1  0  0  0  0
 58 60  2  0  0  0  0
 60 61  1  0  0  0  0
 61 62  2  0  0  0  0
 62 63  1  0  0  0  0
 63 64  2  0  0  0  0
 64 65  1  0  0  0  0
 65 66  3  0  0  0  0
 64 67  1  0  0  0  0
 67 68  3  0  0  0  0
 16  2  1  0  0  0  0
 26 22  1  0  0  0  0
 32 27  1  0  0  0  0
 46 40  1  0  0  0  0
 51 47  1  0  0  0  0
 63 53  1  0  0  0  0
 15  5  1  0  0  0  0
 46 29  1  0  0  0  0
 62 56  1  0  0  0  0
 13  7  1  0  0  0  0
 37 31  2  0  0  0  0
  1 69  1  0  0  0  0
  6 70  1  0  0  0  0
  8 71  1  0  0  0  0
  9 72  1  0  0  0  0
 12 73  1  0  0  0  0
 14 74  1  0  0  0  0
 28 75  1  0  0  0  0
 35 76  1  0  0  0  0
 35 77  1  0  0  0  0
 36 78  1  0  0  0  0
 36 79  1  0  0  0  0
 36 80  1  0  0  0  0
 38 81  1  0  0  0  0
 43 82  1  0  0  0  0
 43 83  1  0  0  0  0
 44 84  1  0  0  0  0
 44 85  1  0  0  0  0
 44 86  1  0  0  0  0
 52 87  1  0  0  0  0
 57 88  1  0  0  0  0
 59 89  1  0  0  0  0
 59 90  1  0  0  0  0
 59 91  1  0  0  0  0
 60 92  1  0  0  0  0
 61 93  1  0  0  0  0
M  END
