213

C          1.56890       -5.54980       -2.53700
C          0.96440       -5.96980       -3.69480
C         -0.17190       -6.90240       -3.78580
O         -0.77190       -7.43890       -2.87400
C         -0.43460       -7.08620       -5.22370
C         -1.36350       -7.88300       -5.82670
C         -1.42750       -7.91820       -7.23770
C         -2.36410       -8.72510       -7.91480
C         -2.41040       -8.75500       -9.28110
C         -1.50860       -7.96600      -10.00760
F         -1.56990       -8.00890      -11.35080
C         -0.58090       -7.16550       -9.40080
C         -0.51880       -7.12300       -7.99450
C          0.43250       -6.30620       -7.33920
C          0.47270       -6.28410       -5.97050
C          1.33830       -5.56950       -5.03530
C          2.28970       -4.64860       -5.40250
C          2.49970       -4.22370       -6.72940
N          2.71600       -3.81010       -7.77930
C          3.18030       -3.97630       -4.54300
N          3.96360       -3.39870       -3.93090
C          1.20510       -5.75620       -1.19530
C          1.92160       -5.18930       -0.15080
C          1.33890       -5.35970        1.10980
C          1.78130       -4.82960        2.35410
C          3.09400       -4.24860        2.51620
C          3.46970       -3.22390        3.34160
C          4.85030       -2.93650        3.37080
C          5.63800       -3.72300        2.58660
C          7.12100       -3.64470        2.43350
C          7.54550       -3.64810        0.96690
Se         4.61000       -4.98950        1.66520
C          0.86120       -4.90260        3.39030
C         -0.38480       -5.57560        3.28520
C         -0.74640       -6.24110        2.09520
C         -1.98330       -6.98910        2.02070
C         -2.50240       -7.79730        2.99440
C         -3.75440       -8.37780        2.70190
C         -4.28990       -8.03890        1.49810
C         -5.57500       -8.52780        0.91290
C         -5.31610       -9.51600       -0.22480
Se        -3.14840       -6.89330        0.54500
C          0.10770       -6.06360        1.01270
S         -0.22050       -6.59300       -0.61040
C         -1.21510       -5.35490        4.40520
C         -0.67300       -4.51460        5.33930
S          0.99120       -4.10930        4.94110
C         -1.34650       -3.73690        6.32380
C         -2.71720       -3.57470        6.47090
C         -3.71090       -4.48800        5.88390
C         -3.99450       -5.70760        6.48600
C         -4.88030       -6.58050        5.87960
C         -5.46290       -6.25320        4.66880
C         -5.18810       -5.03700        4.05490
C         -5.82930       -4.68340        2.74510
C         -7.23590       -4.12490        2.96370
C         -4.32610       -4.15130        4.68340
C         -3.02580       -2.36210        7.11050
S         -4.51170       -1.43760        7.23670
C         -3.57980       -0.01720        7.60990
C         -3.71400        1.38750        7.55070
C         -4.80640        2.26590        7.35800
C         -4.55430        3.64990        7.02850
N         -5.67160        4.33840        6.87330
S         -6.93100        3.35020        7.11900
N         -6.09860        1.99470        7.42290
C         -3.22490        4.06630        6.77150
C         -2.69750        5.10550        5.97910
S         -3.25660        6.39410        4.95270
C         -1.69900        6.41570        4.14180
C         -1.24300        6.98680        2.93170
C         -2.00740        7.93600        2.12330
C         -3.35380        7.71450        1.84970
C         -4.05200        8.61470        1.06800
C         -3.42010        9.73400        0.55460
C         -2.08060        9.97780        0.82870
C         -1.40030       11.21170        0.31010
C         -1.52950       12.35900        1.31360
C         -1.38800        9.07850        1.62460
C         -0.00220        6.48040        2.57430
S          0.67360        5.43470        3.82120
C         -0.78540        5.54500        4.73220
C         -1.34470        4.80940        5.78080
N         -0.99770        3.67910        6.46520
C         -2.14240        3.19040        7.05730
C         -2.39430        1.90750        7.59220
N         -1.49510        0.87750        7.81610
C         -2.21510       -0.29020        7.75430
C         -1.89920       -1.62090        7.47850
S         -0.43440       -2.45930        7.12120
C         -0.27310        0.95150        8.59060
C         -0.49690        0.44620       10.01520
C          0.26430        3.03050        6.19640
C          1.41280        3.69430        6.95230
C          0.63730        6.39500        1.30250
C          1.55340        5.42800        0.98420
C          1.86410        5.34430       -0.38830
C          2.61480        4.34040       -1.03110
C          3.29740        3.29580       -0.29640
C          3.98000        3.41100        0.88450
C          4.49680        2.20840        1.40930
C          4.23580        1.08620        0.67860
C          4.66130       -0.31150        1.00770
C          4.10990       -1.33650        0.02700
Se         3.27110        1.50350       -0.87260
C          2.58990        4.35940       -2.42160
C          1.89710        5.33390       -3.18730
C          1.16000        6.35910       -2.53590
C          0.37240        7.34890       -3.23650
C          0.15580        8.63990       -2.84130
C         -0.74780        9.38590       -3.62940
C         -1.30770        8.72000       -4.67340
C         -2.29740        9.20970       -5.68190
C         -2.70050       10.66470       -5.47950
Se        -0.66740        6.95770       -4.76710
C          1.16600        6.31860       -1.14700
S          0.18170        7.32960       -0.10740
C          2.04120        5.08260       -4.56020
C          2.76710        3.94060       -4.85950
S          3.36840        3.16850       -3.41000
C          2.93430        3.46460       -6.17560
C          3.50040        2.30100       -6.62440
C          4.10700        1.24660       -5.78920
O          4.32560        1.27300       -4.59280
C          4.42550        0.13570       -6.69550
C          4.96430       -1.08000       -6.38680
C          5.19130       -2.00920       -7.42440
C          5.75160       -3.27600       -7.16470
C          5.94940       -4.17600       -8.17410
C          5.58440       -3.82040       -9.47910
F          5.78380       -4.72380      -10.45860
C          5.04580       -2.60270       -9.78630
C          4.83660       -1.66170       -8.76010
C          4.28090       -0.39240       -9.04610
C          4.08380        0.50210       -8.02710
C          3.54510        1.86030       -8.00890
C          3.18220        2.57740       -9.12040
C          2.69100        3.89910       -9.13100
N          2.29030        4.97100       -9.23520
C          3.27480        2.08800      -10.44030
N          3.32500        1.76040      -11.53970
H          2.45080       -4.92860       -2.64500
H         -2.03940       -8.48160       -5.23450
H         -3.04840       -9.32450       -7.33340
H         -3.11960       -9.36780       -9.81460
H          0.09760       -6.57040       -9.99180
H          1.10850       -5.72260       -7.94290
H          2.80880       -4.60510       -0.33450
H          2.75920       -2.63680        3.89720
H          5.25480       -2.14470        3.98000
H          7.58530       -4.49660        2.94120
H          7.47360       -2.73420        2.92410
H          7.11680       -2.79640        0.44340
H          8.62830       -3.60150        0.88270
H          7.19870       -4.56150        0.48060
H         -1.96850       -8.01460        3.90480
H         -4.24750       -9.04570        3.38880
H         -6.16160       -9.01180        1.69730
H         -6.15350       -7.68450        0.52390
H         -4.72100       -9.03690       -1.00150
H         -4.76860      -10.38070        0.14290
H         -6.25440       -9.85310       -0.65870
H         -2.21860       -5.72770        4.45800
H         -3.51560       -5.96880        7.41810
H         -5.10390       -7.52740        6.34860
H         -6.13320       -6.94960        4.18680
H         -5.88500       -5.57610        2.11730
H         -5.22080       -3.94080        2.22550
H         -7.86230       -4.85880        3.46570
H         -7.69500       -3.86860        2.01180
H         -7.19480       -3.23100        3.58190
H         -4.09690       -3.20180        4.22100
H         -3.84220        6.83110        2.23160
H         -5.09520        8.43800        0.85150
H         -3.97180       10.42630       -0.06520
H         -0.34350       11.00170        0.13490
H         -1.85210       11.50930       -0.63820
H         -1.03650       13.25240        0.93720
H         -2.57750       12.58900        1.49210
H         -1.07430       12.08420        2.26240
H         -0.35290        9.26980        1.87080
H          0.05000        1.99020        8.63090
H          0.49650        0.34200        8.10450
H         -0.77690       -0.60400       10.01050
H          0.41770        0.55850       10.59100
H         -1.28790        1.01570       10.49860
H          0.18400        1.97170        6.43090
H          0.45900        3.11760        5.12180
H          2.33920        3.16380        6.75290
H          1.52660        4.72370        6.62240
H          1.23450        3.69850        8.02530
H          1.92610        4.72470        1.70660
H          4.15690        4.36350        1.35690
H          5.06340        2.18330        2.32640
H          4.32680       -0.55730        2.02010
H          5.75510       -0.35780        1.01080
H          4.45020       -1.11690       -0.98540
H          3.01970       -1.31570        0.03580
H          4.43940       -2.33940        0.29530
H          0.67480        9.08090       -2.00730
H         -0.96970       10.41420       -3.40310
H         -3.19020        8.57670       -5.63640
H         -1.87150        9.08590       -6.68350
H         -3.41750       10.95830       -6.24250
H         -1.83370       11.31700       -5.55390
H         -3.16100       10.80260       -4.50400
H          1.62830        5.70440       -5.33780
H          2.49600        4.11850       -6.92050
H          5.20240       -1.33290       -5.36440
H          6.01210       -3.52550       -6.14670
H          6.37130       -5.15240       -7.99410
H          4.77560       -2.36580      -10.80350
H          4.02160       -0.16430      -10.06750
