
  xtb     02112204553D
 energy: -367.993932180179 gnorm: 0.000508219371 xtb: 6.4.1 (unknown)
213238  0     0  0            999 V2000
    1.5689   -5.5498   -2.5370 C   0  0  0  0  0  0  0  0  0  0  0  0
    0.9644   -5.9698   -3.6948 C   0  0  0  0  0  0  0  0  0  0  0  0
   -0.1719   -6.9024   -3.7858 C   0  0  0  0  0  0  0  0  0  0  0  0
   -0.7719   -7.4389   -2.8740 O   0  0  0  0  0  0  0  0  0  0  0  0
   -0.4346   -7.0862   -5.2237 C   0  0  0  0  0  0  0  0  0  0  0  0
   -1.3635   -7.8830   -5.8267 C   0  0  0  0  0  0  0  0  0  0  0  0
   -1.4275   -7.9182   -7.2377 C   0  0  0  0  0  0  0  0  0  0  0  0
   -2.3641   -8.7251   -7.9148 C   0  0  0  0  0  0  0  0  0  0  0  0
   -2.4104   -8.7550   -9.2811 C   0  0  0  0  0  0  0  0  0  0  0  0
   -1.5086   -7.9660  -10.0076 C   0  0  0  0  0  0  0  0  0  0  0  0
   -1.5699   -8.0089  -11.3508 F   0  0  0  0  0  0  0  0  0  0  0  0
   -0.5809   -7.1655   -9.4008 C   0  0  0  0  0  0  0  0  0  0  0  0
   -0.5188   -7.1230   -7.9945 C   0  0  0  0  0  0  0  0  0  0  0  0
    0.4325   -6.3062   -7.3392 C   0  0  0  0  0  0  0  0  0  0  0  0
    0.4727   -6.2841   -5.9705 C   0  0  0  0  0  0  0  0  0  0  0  0
    1.3383   -5.5695   -5.0353 C   0  0  0  0  0  0  0  0  0  0  0  0
    2.2897   -4.6486   -5.4025 C   0  0  0  0  0  0  0  0  0  0  0  0
    2.4997   -4.2237   -6.7294 C   0  0  0  0  0  0  0  0  0  0  0  0
    2.7160   -3.8101   -7.7793 N   0  0  0  0  0  0  0  0  0  0  0  0
    3.1803   -3.9763   -4.5430 C   0  0  0  0  0  0  0  0  0  0  0  0
    3.9636   -3.3987   -3.9309 N   0  0  0  0  0  0  0  0  0  0  0  0
    1.2051   -5.7562   -1.1953 C   0  0  0  0  0  0  0  0  0  0  0  0
    1.9216   -5.1893   -0.1508 C   0  0  0  0  0  0  0  0  0  0  0  0
    1.3389   -5.3597    1.1098 C   0  0  0  0  0  0  0  0  0  0  0  0
    1.7813   -4.8296    2.3541 C   0  0  0  0  0  0  0  0  0  0  0  0
    3.0940   -4.2486    2.5162 C   0  0  0  0  0  0  0  0  0  0  0  0
    3.4697   -3.2239    3.3416 C   0  0  0  0  0  0  0  0  0  0  0  0
    4.8503   -2.9365    3.3708 C   0  0  0  0  0  0  0  0  0  0  0  0
    5.6380   -3.7230    2.5866 C   0  0  0  0  0  0  0  0  0  0  0  0
    7.1210   -3.6447    2.4335 C   0  0  0  0  0  0  0  0  0  0  0  0
    7.5455   -3.6481    0.9669 C   0  0  0  0  0  0  0  0  0  0  0  0
    4.6100   -4.9895    1.6652 Se  0  0  0  0  0  2  0  0  0  0  0  0
    0.8612   -4.9026    3.3903 C   0  0  0  0  0  0  0  0  0  0  0  0
   -0.3848   -5.5756    3.2852 C   0  0  0  0  0  0  0  0  0  0  0  0
   -0.7464   -6.2411    2.0952 C   0  0  0  0  0  0  0  0  0  0  0  0
   -1.9833   -6.9891    2.0207 C   0  0  0  0  0  0  0  0  0  0  0  0
   -2.5024   -7.7973    2.9944 C   0  0  0  0  0  0  0  0  0  0  0  0
   -3.7544   -8.3778    2.7019 C   0  0  0  0  0  0  0  0  0  0  0  0
   -4.2899   -8.0389    1.4981 C   0  0  0  0  0  0  0  0  0  0  0  0
   -5.5750   -8.5278    0.9129 C   0  0  0  0  0  0  0  0  0  0  0  0
   -5.3161   -9.5160   -0.2248 C   0  0  0  0  0  0  0  0  0  0  0  0
   -3.1484   -6.8933    0.5450 Se  0  0  0  0  0  2  0  0  0  0  0  0
    0.1077   -6.0636    1.0127 C   0  0  0  0  0  0  0  0  0  0  0  0
   -0.2205   -6.5930   -0.6104 S   0  0  0  0  0  0  0  0  0  0  0  0
   -1.2151   -5.3549    4.4052 C   0  0  0  0  0  0  0  0  0  0  0  0
   -0.6730   -4.5146    5.3393 C   0  0  0  0  0  0  0  0  0  0  0  0
    0.9912   -4.1093    4.9411 S   0  0  0  0  0  0  0  0  0  0  0  0
   -1.3465   -3.7369    6.3238 C   0  0  0  0  0  0  0  0  0  0  0  0
   -2.7172   -3.5747    6.4709 C   0  0  0  0  0  0  0  0  0  0  0  0
   -3.7109   -4.4880    5.8839 C   0  0  0  0  0  0  0  0  0  0  0  0
   -3.9945   -5.7076    6.4860 C   0  0  0  0  0  0  0  0  0  0  0  0
   -4.8803   -6.5805    5.8796 C   0  0  0  0  0  0  0  0  0  0  0  0
   -5.4629   -6.2532    4.6688 C   0  0  0  0  0  0  0  0  0  0  0  0
   -5.1881   -5.0370    4.0549 C   0  0  0  0  0  0  0  0  0  0  0  0
   -5.8293   -4.6834    2.7451 C   0  0  0  0  0  0  0  0  0  0  0  0
   -7.2359   -4.1249    2.9637 C   0  0  0  0  0  0  0  0  0  0  0  0
   -4.3261   -4.1513    4.6834 C   0  0  0  0  0  0  0  0  0  0  0  0
   -3.0258   -2.3621    7.1105 C   0  0  0  0  0  0  0  0  0  0  0  0
   -4.5117   -1.4376    7.2367 S   0  0  0  0  0  0  0  0  0  0  0  0
   -3.5798   -0.0172    7.6099 C   0  0  0  0  0  0  0  0  0  0  0  0
   -3.7140    1.3875    7.5507 C   0  0  0  0  0  0  0  0  0  0  0  0
   -4.8064    2.2659    7.3580 C   0  0  0  0  0  0  0  0  0  0  0  0
   -4.5543    3.6499    7.0285 C   0  0  0  0  0  0  0  0  0  0  0  0
   -5.6716    4.3384    6.8733 N   0  0  0  0  0  0  0  0  0  0  0  0
   -6.9310    3.3502    7.1190 S   0  0  0  0  0  0  0  0  0  0  0  0
   -6.0986    1.9947    7.4229 N   0  0  0  0  0  0  0  0  0  0  0  0
   -3.2249    4.0663    6.7715 C   0  0  0  0  0  0  0  0  0  0  0  0
   -2.6975    5.1055    5.9791 C   0  0  0  0  0  0  0  0  0  0  0  0
   -3.2566    6.3941    4.9527 S   0  0  0  0  0  0  0  0  0  0  0  0
   -1.6990    6.4157    4.1418 C   0  0  0  0  0  0  0  0  0  0  0  0
   -1.2430    6.9868    2.9317 C   0  0  0  0  0  0  0  0  0  0  0  0
   -2.0074    7.9360    2.1233 C   0  0  0  0  0  0  0  0  0  0  0  0
   -3.3538    7.7145    1.8497 C   0  0  0  0  0  0  0  0  0  0  0  0
   -4.0520    8.6147    1.0680 C   0  0  0  0  0  0  0  0  0  0  0  0
   -3.4201    9.7340    0.5546 C   0  0  0  0  0  0  0  0  0  0  0  0
   -2.0806    9.9778    0.8287 C   0  0  0  0  0  0  0  0  0  0  0  0
   -1.4003   11.2117    0.3101 C   0  0  0  0  0  0  0  0  0  0  0  0
   -1.5295   12.3590    1.3136 C   0  0  0  0  0  0  0  0  0  0  0  0
   -1.3880    9.0785    1.6246 C   0  0  0  0  0  0  0  0  0  0  0  0
   -0.0022    6.4804    2.5743 C   0  0  0  0  0  0  0  0  0  0  0  0
    0.6736    5.4347    3.8212 S   0  0  0  0  0  0  0  0  0  0  0  0
   -0.7854    5.5450    4.7322 C   0  0  0  0  0  0  0  0  0  0  0  0
   -1.3447    4.8094    5.7808 C   0  0  0  0  0  0  0  0  0  0  0  0
   -0.9977    3.6791    6.4652 N   0  0  0  0  0  0  0  0  0  0  0  0
   -2.1424    3.1904    7.0573 C   0  0  0  0  0  0  0  0  0  0  0  0
   -2.3943    1.9075    7.5922 C   0  0  0  0  0  0  0  0  0  0  0  0
   -1.4951    0.8775    7.8161 N   0  0  0  0  0  0  0  0  0  0  0  0
   -2.2151   -0.2902    7.7543 C   0  0  0  0  0  0  0  0  0  0  0  0
   -1.8992   -1.6209    7.4785 C   0  0  0  0  0  0  0  0  0  0  0  0
   -0.4344   -2.4593    7.1212 S   0  0  0  0  0  0  0  0  0  0  0  0
   -0.2731    0.9515    8.5906 C   0  0  0  0  0  0  0  0  0  0  0  0
   -0.4969    0.4462   10.0152 C   0  0  0  0  0  0  0  0  0  0  0  0
    0.2643    3.0305    6.1964 C   0  0  0  0  0  0  0  0  0  0  0  0
    1.4128    3.6943    6.9523 C   0  0  0  0  0  0  0  0  0  0  0  0
    0.6373    6.3950    1.3025 C   0  0  0  0  0  0  0  0  0  0  0  0
    1.5534    5.4280    0.9842 C   0  0  0  0  0  0  0  0  0  0  0  0
    1.8641    5.3443   -0.3883 C   0  0  0  0  0  0  0  0  0  0  0  0
    2.6148    4.3404   -1.0311 C   0  0  0  0  0  0  0  0  0  0  0  0
    3.2974    3.2958   -0.2964 C   0  0  0  0  0  0  0  0  0  0  0  0
    3.9800    3.4110    0.8845 C   0  0  0  0  0  0  0  0  0  0  0  0
    4.4968    2.2084    1.4093 C   0  0  0  0  0  0  0  0  0  0  0  0
    4.2358    1.0862    0.6786 C   0  0  0  0  0  0  0  0  0  0  0  0
    4.6613   -0.3115    1.0077 C   0  0  0  0  0  0  0  0  0  0  0  0
    4.1099   -1.3365    0.0270 C   0  0  0  0  0  0  0  0  0  0  0  0
    3.2711    1.5035   -0.8726 Se  0  0  0  0  0  2  0  0  0  0  0  0
    2.5899    4.3594   -2.4216 C   0  0  0  0  0  0  0  0  0  0  0  0
    1.8971    5.3339   -3.1873 C   0  0  0  0  0  0  0  0  0  0  0  0
    1.1600    6.3591   -2.5359 C   0  0  0  0  0  0  0  0  0  0  0  0
    0.3724    7.3489   -3.2365 C   0  0  0  0  0  0  0  0  0  0  0  0
    0.1558    8.6399   -2.8413 C   0  0  0  0  0  0  0  0  0  0  0  0
   -0.7478    9.3859   -3.6294 C   0  0  0  0  0  0  0  0  0  0  0  0
   -1.3077    8.7200   -4.6734 C   0  0  0  0  0  0  0  0  0  0  0  0
   -2.2974    9.2097   -5.6819 C   0  0  0  0  0  0  0  0  0  0  0  0
   -2.7005   10.6647   -5.4795 C   0  0  0  0  0  0  0  0  0  0  0  0
   -0.6674    6.9577   -4.7671 Se  0  0  0  0  0  2  0  0  0  0  0  0
    1.1660    6.3186   -1.1470 C   0  0  0  0  0  0  0  0  0  0  0  0
    0.1817    7.3296   -0.1074 S   0  0  0  0  0  0  0  0  0  0  0  0
    2.0412    5.0826   -4.5602 C   0  0  0  0  0  0  0  0  0  0  0  0
    2.7671    3.9406   -4.8595 C   0  0  0  0  0  0  0  0  0  0  0  0
    3.3684    3.1685   -3.4100 S   0  0  0  0  0  0  0  0  0  0  0  0
    2.9343    3.4646   -6.1756 C   0  0  0  0  0  0  0  0  0  0  0  0
    3.5004    2.3010   -6.6244 C   0  0  0  0  0  0  0  0  0  0  0  0
    4.1070    1.2466   -5.7892 C   0  0  0  0  0  0  0  0  0  0  0  0
    4.3256    1.2730   -4.5928 O   0  0  0  0  0  0  0  0  0  0  0  0
    4.4255    0.1357   -6.6955 C   0  0  0  0  0  0  0  0  0  0  0  0
    4.9643   -1.0800   -6.3868 C   0  0  0  0  0  0  0  0  0  0  0  0
    5.1913   -2.0092   -7.4244 C   0  0  0  0  0  0  0  0  0  0  0  0
    5.7516   -3.2760   -7.1647 C   0  0  0  0  0  0  0  0  0  0  0  0
    5.9494   -4.1760   -8.1741 C   0  0  0  0  0  0  0  0  0  0  0  0
    5.5844   -3.8204   -9.4791 C   0  0  0  0  0  0  0  0  0  0  0  0
    5.7838   -4.7238  -10.4586 F   0  0  0  0  0  0  0  0  0  0  0  0
    5.0458   -2.6027   -9.7863 C   0  0  0  0  0  0  0  0  0  0  0  0
    4.8366   -1.6617   -8.7601 C   0  0  0  0  0  0  0  0  0  0  0  0
    4.2809   -0.3924   -9.0461 C   0  0  0  0  0  0  0  0  0  0  0  0
    4.0838    0.5021   -8.0271 C   0  0  0  0  0  0  0  0  0  0  0  0
    3.5451    1.8603   -8.0089 C   0  0  0  0  0  0  0  0  0  0  0  0
    3.1822    2.5774   -9.1204 C   0  0  0  0  0  0  0  0  0  0  0  0
    2.6910    3.8991   -9.1310 C   0  0  0  0  0  0  0  0  0  0  0  0
    2.2903    4.9710   -9.2352 N   0  0  0  0  0  0  0  0  0  0  0  0
    3.2748    2.0880  -10.4403 C   0  0  0  0  0  0  0  0  0  0  0  0
    3.3250    1.7604  -11.5397 N   0  0  0  0  0  0  0  0  0  0  0  0
    2.4508   -4.9286   -2.6450 H   0  0  0  0  0  0  0  0  0  0  0  0
   -2.0394   -8.4816   -5.2345 H   0  0  0  0  0  0  0  0  0  0  0  0
   -3.0484   -9.3245   -7.3334 H   0  0  0  0  0  0  0  0  0  0  0  0
   -3.1196   -9.3678   -9.8146 H   0  0  0  0  0  0  0  0  0  0  0  0
    0.0976   -6.5704   -9.9918 H   0  0  0  0  0  0  0  0  0  0  0  0
    1.1085   -5.7226   -7.9429 H   0  0  0  0  0  0  0  0  0  0  0  0
    2.8088   -4.6051   -0.3345 H   0  0  0  0  0  0  0  0  0  0  0  0
    2.7592   -2.6368    3.8972 H   0  0  0  0  0  0  0  0  0  0  0  0
    5.2548   -2.1447    3.9800 H   0  0  0  0  0  0  0  0  0  0  0  0
    7.5853   -4.4966    2.9412 H   0  0  0  0  0  0  0  0  0  0  0  0
    7.4736   -2.7342    2.9241 H   0  0  0  0  0  0  0  0  0  0  0  0
    7.1168   -2.7964    0.4434 H   0  0  0  0  0  0  0  0  0  0  0  0
    8.6283   -3.6015    0.8827 H   0  0  0  0  0  0  0  0  0  0  0  0
    7.1987   -4.5615    0.4806 H   0  0  0  0  0  0  0  0  0  0  0  0
   -1.9685   -8.0146    3.9048 H   0  0  0  0  0  0  0  0  0  0  0  0
   -4.2475   -9.0457    3.3888 H   0  0  0  0  0  0  0  0  0  0  0  0
   -6.1616   -9.0118    1.6973 H   0  0  0  0  0  0  0  0  0  0  0  0
   -6.1535   -7.6845    0.5239 H   0  0  0  0  0  0  0  0  0  0  0  0
   -4.7210   -9.0369   -1.0015 H   0  0  0  0  0  0  0  0  0  0  0  0
   -4.7686  -10.3807    0.1429 H   0  0  0  0  0  0  0  0  0  0  0  0
   -6.2544   -9.8531   -0.6587 H   0  0  0  0  0  0  0  0  0  0  0  0
   -2.2186   -5.7277    4.4580 H   0  0  0  0  0  0  0  0  0  0  0  0
   -3.5156   -5.9688    7.4181 H   0  0  0  0  0  0  0  0  0  0  0  0
   -5.1039   -7.5274    6.3486 H   0  0  0  0  0  0  0  0  0  0  0  0
   -6.1332   -6.9496    4.1868 H   0  0  0  0  0  0  0  0  0  0  0  0
   -5.8850   -5.5761    2.1173 H   0  0  0  0  0  0  0  0  0  0  0  0
   -5.2208   -3.9408    2.2255 H   0  0  0  0  0  0  0  0  0  0  0  0
   -7.8623   -4.8588    3.4657 H   0  0  0  0  0  0  0  0  0  0  0  0
   -7.6950   -3.8686    2.0118 H   0  0  0  0  0  0  0  0  0  0  0  0
   -7.1948   -3.2310    3.5819 H   0  0  0  0  0  0  0  0  0  0  0  0
   -4.0969   -3.2018    4.2210 H   0  0  0  0  0  0  0  0  0  0  0  0
   -3.8422    6.8311    2.2316 H   0  0  0  0  0  0  0  0  0  0  0  0
   -5.0952    8.4380    0.8515 H   0  0  0  0  0  0  0  0  0  0  0  0
   -3.9718   10.4263   -0.0652 H   0  0  0  0  0  0  0  0  0  0  0  0
   -0.3435   11.0017    0.1349 H   0  0  0  0  0  0  0  0  0  0  0  0
   -1.8521   11.5093   -0.6382 H   0  0  0  0  0  0  0  0  0  0  0  0
   -1.0365   13.2524    0.9372 H   0  0  0  0  0  0  0  0  0  0  0  0
   -2.5775   12.5890    1.4921 H   0  0  0  0  0  0  0  0  0  0  0  0
   -1.0743   12.0842    2.2624 H   0  0  0  0  0  0  0  0  0  0  0  0
   -0.3529    9.2698    1.8708 H   0  0  0  0  0  0  0  0  0  0  0  0
    0.0500    1.9902    8.6309 H   0  0  0  0  0  0  0  0  0  0  0  0
    0.4965    0.3420    8.1045 H   0  0  0  0  0  0  0  0  0  0  0  0
   -0.7769   -0.6040   10.0105 H   0  0  0  0  0  0  0  0  0  0  0  0
    0.4177    0.5585   10.5910 H   0  0  0  0  0  0  0  0  0  0  0  0
   -1.2879    1.0157   10.4986 H   0  0  0  0  0  0  0  0  0  0  0  0
    0.1840    1.9717    6.4309 H   0  0  0  0  0  0  0  0  0  0  0  0
    0.4590    3.1176    5.1218 H   0  0  0  0  0  0  0  0  0  0  0  0
    2.3392    3.1638    6.7529 H   0  0  0  0  0  0  0  0  0  0  0  0
    1.5266    4.7237    6.6224 H   0  0  0  0  0  0  0  0  0  0  0  0
    1.2345    3.6985    8.0253 H   0  0  0  0  0  0  0  0  0  0  0  0
    1.9261    4.7247    1.7066 H   0  0  0  0  0  0  0  0  0  0  0  0
    4.1569    4.3635    1.3569 H   0  0  0  0  0  0  0  0  0  0  0  0
    5.0634    2.1833    2.3264 H   0  0  0  0  0  0  0  0  0  0  0  0
    4.3268   -0.5573    2.0201 H   0  0  0  0  0  0  0  0  0  0  0  0
    5.7551   -0.3578    1.0108 H   0  0  0  0  0  0  0  0  0  0  0  0
    4.4502   -1.1169   -0.9854 H   0  0  0  0  0  0  0  0  0  0  0  0
    3.0197   -1.3157    0.0358 H   0  0  0  0  0  0  0  0  0  0  0  0
    4.4394   -2.3394    0.2953 H   0  0  0  0  0  0  0  0  0  0  0  0
    0.6748    9.0809   -2.0073 H   0  0  0  0  0  0  0  0  0  0  0  0
   -0.9697   10.4142   -3.4031 H   0  0  0  0  0  0  0  0  0  0  0  0
   -3.1902    8.5767   -5.6364 H   0  0  0  0  0  0  0  0  0  0  0  0
   -1.8715    9.0859   -6.6835 H   0  0  0  0  0  0  0  0  0  0  0  0
   -3.4175   10.9583   -6.2425 H   0  0  0  0  0  0  0  0  0  0  0  0
   -1.8337   11.3170   -5.5539 H   0  0  0  0  0  0  0  0  0  0  0  0
   -3.1610   10.8026   -4.5040 H   0  0  0  0  0  0  0  0  0  0  0  0
    1.6283    5.7044   -5.3378 H   0  0  0  0  0  0  0  0  0  0  0  0
    2.4960    4.1185   -6.9205 H   0  0  0  0  0  0  0  0  0  0  0  0
    5.2024   -1.3329   -5.3644 H   0  0  0  0  0  0  0  0  0  0  0  0
    6.0121   -3.5255   -6.1467 H   0  0  0  0  0  0  0  0  0  0  0  0
    6.3713   -5.1524   -7.9941 H   0  0  0  0  0  0  0  0  0  0  0  0
    4.7756   -2.3658  -10.8035 H   0  0  0  0  0  0  0  0  0  0  0  0
    4.0216   -0.1643  -10.0675 H   0  0  0  0  0  0  0  0  0  0  0  0
  1  2  2  0  0  0  0
  2  3  1  0  0  0  0
  3  4  2  0  0  0  0
  3  5  1  0  0  0  0
  5  6  2  0  0  0  0
  6  7  1  0  0  0  0
  7  8  2  0  0  0  0
  8  9  1  0  0  0  0
  9 10  2  0  0  0  0
 10 11  1  0  0  0  0
 10 12  1  0  0  0  0
 12 13  2  0  0  0  0
 13 14  1  0  0  0  0
 14 15  2  0  0  0  0
 15 16  1  0  0  0  0
 16 17  2  0  0  0  0
 17 18  1  0  0  0  0
 18 19  3  0  0  0  0
 17 20  1  0  0  0  0
 20 21  3  0  0  0  0
  1 22  1  0  0  0  0
 22 23  2  0  0  0  0
 23 24  1  0  0  0  0
 24 25  2  0  0  0  0
 25 26  1  0  0  0  0
 26 27  2  0  0  0  0
 27 28  1  0  0  0  0
 28 29  2  0  0  0  0
 29 30  1  0  0  0  0
 30 31  1  0  0  0  0
 29 32  1  0  0  0  0
 25 33  1  0  0  0  0
 33 34  2  0  0  0  0
 34 35  1  0  0  0  0
 35 36  1  0  0  0  0
 36 37  2  0  0  0  0
 37 38  1  0  0  0  0
 38 39  2  0  0  0  0
 39 40  1  0  0  0  0
 40 41  1  0  0  0  0
 39 42  1  0  0  0  0
 35 43  2  0  0  0  0
 43 44  1  0  0  0  0
 34 45  1  0  0  0  0
 45 46  2  0  0  0  0
 46 47  1  0  0  0  0
 46 48  1  0  0  0  0
 48 49  2  0  0  0  0
 49 50  1  0  0  0  0
 50 51  2  0  0  0  0
 51 52  1  0  0  0  0
 52 53  2  0  0  0  0
 53 54  1  0  0  0  0
 54 55  1  0  0  0  0
 55 56  1  0  0  0  0
 54 57  2  0  0  0  0
 49 58  1  0  0  0  0
 58 59  1  0  0  0  0
 59 60  1  0  0  0  0
 60 61  1  0  0  0  0
 61 62  1  0  0  0  0
 62 63  1  0  0  0  0
 63 64  2  0  0  0  0
 64 65  1  0  0  0  0
 65 66  1  0  0  0  0
 63 67  1  0  0  0  0
 67 68  1  0  0  0  0
 68 69  1  0  0  0  0
 69 70  1  0  0  0  0
 70 71  1  0  0  0  0
 71 72  1  0  0  0  0
 72 73  2  0  0  0  0
 73 74  1  0  0  0  0
 74 75  2  0  0  0  0
 75 76  1  0  0  0  0
 76 77  1  0  0  0  0
 77 78  1  0  0  0  0
 76 79  2  0  0  0  0
 71 80  2  0  0  0  0
 80 81  1  0  0  0  0
 81 82  1  0  0  0  0
 82 83  1  0  0  0  0
 83 84  1  0  0  0  0
 84 85  1  0  0  0  0
 85 86  1  0  0  0  0
 86 87  1  0  0  0  0
 87 88  1  0  0  0  0
 88 89  1  0  0  0  0
 89 90  1  0  0  0  0
 87 91  1  0  0  0  0
 91 92  1  0  0  0  0
 84 93  1  0  0  0  0
 93 94  1  0  0  0  0
 80 95  1  0  0  0  0
 95 96  2  0  0  0  0
 96 97  1  0  0  0  0
 97 98  2  0  0  0  0
 98 99  1  0  0  0  0
 99100  2  0  0  0  0
100101  1  0  0  0  0
101102  2  0  0  0  0
102103  1  0  0  0  0
103104  1  0  0  0  0
102105  1  0  0  0  0
 98106  1  0  0  0  0
106107  2  0  0  0  0
107108  1  0  0  0  0
108109  1  0  0  0  0
109110  2  0  0  0  0
110111  1  0  0  0  0
111112  2  0  0  0  0
112113  1  0  0  0  0
113114  1  0  0  0  0
112115  1  0  0  0  0
108116  2  0  0  0  0
116117  1  0  0  0  0
107118  1  0  0  0  0
118119  2  0  0  0  0
119120  1  0  0  0  0
119121  1  0  0  0  0
121122  2  0  0  0  0
122123  1  0  0  0  0
123124  2  0  0  0  0
123125  1  0  0  0  0
125126  2  0  0  0  0
126127  1  0  0  0  0
127128  2  0  0  0  0
128129  1  0  0  0  0
129130  2  0  0  0  0
130131  1  0  0  0  0
130132  1  0  0  0  0
132133  2  0  0  0  0
133134  1  0  0  0  0
134135  2  0  0  0  0
135136  1  0  0  0  0
136137  2  0  0  0  0
137138  1  0  0  0  0
138139  3  0  0  0  0
137140  1  0  0  0  0
140141  3  0  0  0  0
 16  2  1  0  0  0  0
 44 22  1  0  0  0  0
 90 48  1  0  0  0  0
117 95  1  0  0  0  0
136122  1  0  0  0  0
 15  5  1  0  0  0  0
 43 24  1  0  0  0  0
 57 50  1  0  0  0  0
 89 58  2  0  0  0  0
116 97  1  0  0  0  0
135125  1  0  0  0  0
 13  7  1  0  0  0  0
 32 26  1  0  0  0  0
 47 33  1  0  0  0  0
 88 60  2  0  0  0  0
105 99  1  0  0  0  0
120106  1  0  0  0  0
133127  1  0  0  0  0
 42 36  1  0  0  0  0
 86 61  2  0  0  0  0
115109  1  0  0  0  0
 66 62  2  0  0  0  0
 85 67  2  0  0  0  0
 83 68  2  0  0  0  0
 82 70  2  0  0  0  0
 79 72  1  0  0  0  0
  1142  1  0  0  0  0
  6143  1  0  0  0  0
  8144  1  0  0  0  0
  9145  1  0  0  0  0
 12146  1  0  0  0  0
 14147  1  0  0  0  0
 23148  1  0  0  0  0
 27149  1  0  0  0  0
 28150  1  0  0  0  0
 30151  1  0  0  0  0
 30152  1  0  0  0  0
 31153  1  0  0  0  0
 31154  1  0  0  0  0
 31155  1  0  0  0  0
 37156  1  0  0  0  0
 38157  1  0  0  0  0
 40158  1  0  0  0  0
 40159  1  0  0  0  0
 41160  1  0  0  0  0
 41161  1  0  0  0  0
 41162  1  0  0  0  0
 45163  1  0  0  0  0
 51164  1  0  0  0  0
 52165  1  0  0  0  0
 53166  1  0  0  0  0
 55167  1  0  0  0  0
 55168  1  0  0  0  0
 56169  1  0  0  0  0
 56170  1  0  0  0  0
 56171  1  0  0  0  0
 57172  1  0  0  0  0
 73173  1  0  0  0  0
 74174  1  0  0  0  0
 75175  1  0  0  0  0
 77176  1  0  0  0  0
 77177  1  0  0  0  0
 78178  1  0  0  0  0
 78179  1  0  0  0  0
 78180  1  0  0  0  0
 79181  1  0  0  0  0
 91182  1  0  0  0  0
 91183  1  0  0  0  0
 92184  1  0  0  0  0
 92185  1  0  0  0  0
 92186  1  0  0  0  0
 93187  1  0  0  0  0
 93188  1  0  0  0  0
 94189  1  0  0  0  0
 94190  1  0  0  0  0
 94191  1  0  0  0  0
 96192  1  0  0  0  0
100193  1  0  0  0  0
101194  1  0  0  0  0
103195  1  0  0  0  0
103196  1  0  0  0  0
104197  1  0  0  0  0
104198  1  0  0  0  0
104199  1  0  0  0  0
110200  1  0  0  0  0
111201  1  0  0  0  0
113202  1  0  0  0  0
113203  1  0  0  0  0
114204  1  0  0  0  0
114205  1  0  0  0  0
114206  1  0  0  0  0
118207  1  0  0  0  0
121208  1  0  0  0  0
126209  1  0  0  0  0
128210  1  0  0  0  0
129211  1  0  0  0  0
132212  1  0  0  0  0
134213  1  0  0  0  0
M  END
