207

C         -3.44100      -10.69070        3.69260
C         -3.52730      -10.75310        5.04660
C         -4.02610      -11.99360        5.70620
O         -4.13330      -13.08960        5.20950
C         -4.41660      -11.57150        7.06730
C         -5.05810      -12.28570        8.03750
C         -5.36600      -11.65840        9.26580
C         -6.03200      -12.34870       10.29940
C         -6.33700      -11.72870       11.47910
C         -5.97400      -10.38640       11.65300
F         -6.28660       -9.79070       12.81850
C         -5.32410       -9.67170       10.68600
C         -5.00300      -10.29400        9.46380
C         -4.33230       -9.58100        8.44420
C         -4.03940      -10.21270        7.26590
C         -3.35190       -9.74200        6.06910
C         -2.51670       -8.65640        6.01810
C         -1.68710       -8.34890        4.92150
N         -0.97310       -8.06010        4.07000
C         -2.38920       -7.70810        7.05060
N         -2.27830       -6.87480        7.83330
C         -3.39240       -9.50700        2.89260
C         -2.85960       -9.50390        1.60700
F         -2.35120      -10.63930        1.10880
C         -2.82940       -8.36160        0.80530
F         -2.34780       -8.48200       -0.44540
C         -3.28780       -7.12590        1.24810
C         -3.74610       -7.07630        2.59470
N         -3.88300       -5.91990        3.23780
C         -4.43740       -5.86890        4.42600
C         -4.21740       -4.68700        5.20620
S         -4.46470       -4.63490        6.92600
C         -3.84700       -3.02790        7.03180
C         -3.76490       -2.29530        8.32480
C         -5.14310       -2.11660        8.96210
C         -3.48370       -2.59020        5.78600
C         -3.66980       -3.51370        4.74880
F         -2.97660       -1.36350        5.57730
C         -5.14390       -7.04500        4.87280
N         -4.76010       -8.20430        4.39040
C         -3.94950       -8.27390        3.33670
C         -6.28070       -7.04570        5.74240
C         -7.11880       -6.01940        6.09520
C         -8.18670       -6.47690        6.88150
F         -9.13800       -5.64860        7.34600
C         -8.19660       -7.82130        7.13660
C         -9.18520       -8.58850        7.94390
C         -8.51750       -9.33700        9.09660
S         -6.84180       -8.56960        6.36840
C         -3.29420       -5.93670        0.44810
C         -4.20600       -4.89020        0.51730
C         -5.42300       -4.89070        1.33010
C         -5.81190       -3.73640        2.00400
C         -6.92900       -3.75290        2.81720
C         -7.66440       -4.91410        2.97240
C         -7.30350       -6.07220        2.29360
C         -8.10970       -7.33120        2.43880
C         -9.15510       -7.43640        1.32750
C         -6.20040       -6.04030        1.45620
C         -3.82970       -3.83850       -0.33580
S         -4.54390       -2.28080       -0.68380
C         -3.23470       -1.95020       -1.76420
C         -2.78150       -0.91720       -2.59650
C         -3.36980        0.32080       -2.93420
C         -2.70300        1.16600       -3.88040
N         -3.37380        2.28090       -4.12560
S         -4.73170        2.26590       -3.24170
N         -4.51130        0.83850       -2.50860
C         -1.43020        0.78180       -4.35380
C         -0.49080        1.49510       -5.11120
S         -0.34280        3.03240       -5.88810
C          1.35310        2.70950       -6.15240
C          2.41440        3.50590       -6.62900
C          2.29570        4.85700       -7.17310
C          1.32040        5.73580       -6.70740
C          1.28370        7.03860       -7.16450
C          2.20800        7.48200       -8.09400
C          3.15910        6.60940       -8.60760
C          4.18720        7.07740       -9.59770
C          5.50250        7.40010       -8.88540
C          3.18400        5.30160       -8.14990
C          3.62220        2.83960       -6.51130
S          3.45200        1.21430       -5.89730
C          1.75100        1.45010       -5.69920
C          0.68760        0.74650       -5.11260
N          0.49350       -0.42880       -4.43970
C         -0.80430       -0.43290       -3.95310
C         -1.54250       -1.34710       -3.15410
N         -1.28760       -2.63250       -2.70400
C         -2.30720       -2.99090       -1.86280
C         -2.65240       -4.08000       -1.05380
S         -2.00550       -5.63830       -0.69880
C         -0.42280       -3.65450       -3.25270
C         -0.68200       -3.86580       -4.74200
C          1.63390       -1.23250       -4.06260
C          1.94840       -1.09600       -2.57510
C          4.92030        3.48160       -6.54320
C          6.05070        3.03620       -7.19370
F          6.01170        1.90190       -7.91220
C          7.25310        3.76570       -7.16300
F          8.30590        3.27470       -7.83230
C          7.39030        4.94260       -6.45490
C          6.24220        5.42810       -5.76260
N          6.29120        6.58320       -5.08820
C          5.23990        7.01190       -4.41720
C          5.46260        8.24320       -3.69530
S          4.66600        8.65420       -2.20640
C          5.63440       10.06900       -1.99990
C          5.53320       10.93240       -0.79240
C          6.29880       10.31280        0.38050
C          6.50450       10.18880       -3.04870
C          6.43350        9.16270       -4.00260
F          7.35580       11.21970       -3.16240
C          4.03980        6.22960       -4.40110
N          3.99770        5.09840       -5.07030
C          5.04230        4.68400       -5.78610
C          2.77760        6.51390       -3.76130
C          2.05910        7.66300       -3.57050
C          0.75450        7.38380       -3.13130
F         -0.13640        8.36070       -2.87860
C          0.44840        6.05660       -2.98840
C         -0.86030        5.45660       -2.60150
C         -0.71550        4.05520       -2.02240
S          1.81900        5.10340       -3.41330
C          8.60330        5.72700       -6.41730
C          9.08300        6.27590       -5.27810
C          8.64600        5.81120       -3.95340
O          8.07320        4.76000       -3.75770
N          9.01340        6.62290       -2.89440
C          8.66040        6.15400       -1.55880
C          7.26970        6.60060       -1.13620
C          9.66770        7.81700       -3.03820
S          9.73870        8.88500       -1.78570
N         10.28980        8.07690       -4.22770
C         11.16490        9.24000       -4.34540
C         10.40190       10.47110       -4.81420
C         10.11760        7.31660       -5.37570
O         10.73290        7.56070       -6.38960
H         -3.48260      -11.63800        3.16540
H         -5.33010      -13.31720        7.87100
H         -6.29970      -13.38280       10.14320
H         -6.84600      -12.24270       12.27880
H         -5.05440       -8.64100       10.85550
H         -4.08040       -8.54610        8.61390
H         -3.30840       -1.32080        8.13910
H         -3.12140       -2.85150        9.01150
H         -5.59790       -3.08570        9.15390
H         -5.79710       -1.55030        8.30340
H         -5.05170       -1.58110        9.90310
H         -3.42040       -3.33990        3.72010
H         -7.00040       -4.99710        5.79110
H         -9.92790       -7.88820        8.33190
H         -9.69820       -9.30860        7.30040
H         -7.79010      -10.04890        8.71290
H         -8.00570       -8.64080        9.75640
H         -9.26320       -9.87650        9.67400
H         -5.22810       -2.83450        1.90770
H         -7.22170       -2.85440        3.34050
H         -8.53030       -4.92590        3.61870
H         -7.44710       -8.19940        2.39780
H         -8.61180       -7.33480        3.40900
H         -9.73050       -8.35290        1.43290
H         -8.67240       -7.43850        0.35300
H         -9.83650       -6.58980        1.36990
H         -5.93080       -6.92920        0.90230
H          0.60450        5.40670       -5.97220
H          0.53250        7.71610       -6.78580
H          2.18320        8.50700       -8.43500
H          4.36520        6.29940      -10.34290
H          3.82770        7.96940      -10.11350
H          5.89870        6.51180       -8.39680
H          5.34530        8.16250       -8.12470
H          6.24130        7.76460       -9.59490
H          3.90460        4.61380       -8.56840
H          0.62440       -3.42180       -3.05570
H         -0.65210       -4.57690       -2.71370
H         -0.52460       -2.94890       -5.30520
H         -0.01780       -4.63450       -5.12730
H         -1.70930       -4.18670       -4.89810
H          2.48130       -0.86150       -4.64400
H          1.48020       -2.27300       -4.34880
H          2.19140       -0.06190       -2.34220
H          1.09960       -1.39170       -1.96320
H          2.80180       -1.71770       -2.31840
H          4.48450       11.06010       -0.51670
H          5.95730       11.91050       -1.02820
H          5.87560        9.34450        0.63910
H          7.34660       10.17980        0.12020
H          6.23730       10.96320        1.24860
H          7.05200        9.10230       -4.87850
H          2.40960        8.65790       -3.76970
H         -1.35220        6.11980       -1.88510
H         -1.49940        5.40570       -3.49030
H         -0.09200        4.06900       -1.13150
H         -1.69200        3.65700       -1.76020
H         -0.25990        3.39160       -2.75410
H          9.10150        5.95730       -7.35170
H          8.70440        5.06330       -1.59520
H          9.40880        6.53260       -0.86060
H          7.04820        6.20790       -0.14810
H          6.52780        6.22460       -1.83630
H          7.21890        7.68520       -1.10100
H         11.93360        8.97570       -5.07440
H         11.62430        9.42140       -3.37280
H          9.93700       10.27980       -5.77850
H          9.63730       10.74750       -4.09370
H         11.09180       11.30290       -4.92060
