173

C        -10.73560       -5.65970       -7.14640
C        -10.76390       -5.24600       -8.43960
C        -12.06670       -5.22250       -9.16630
O        -13.09320       -5.76830       -8.83610
C        -11.84160       -4.33800      -10.32690
C        -12.74750       -3.84800      -11.22310
C        -12.30520       -2.98210      -12.24860
C        -13.20240       -2.41980      -13.17900
C        -12.76340       -1.57190      -14.15760
C        -11.39670       -1.27280      -14.23250
F        -10.98060       -0.43500      -15.20140
C        -10.48300       -1.79800      -13.36290
C        -10.91970       -2.66310      -12.34150
C        -10.00330       -3.19190      -11.40460
C        -10.45900       -4.00350      -10.40030
C         -9.75970       -4.65080       -9.29630
C         -8.40020       -4.80380       -9.20690
C         -7.74930       -5.59090       -8.23790
N         -7.15500       -6.22220       -7.48500
C         -7.47990       -4.17110      -10.06380
N         -6.68290       -3.63820      -10.69660
C         -9.74640       -5.38940       -6.14810
C         -9.51840       -6.26640       -5.09500
F        -10.23710       -7.39340       -5.01360
C         -8.51820       -6.05870       -4.15170
F         -8.36980       -7.01390       -3.21790
C         -7.67810       -4.94130       -4.14860
C         -7.96820       -3.95620       -5.15620
N         -7.32300       -2.78700       -5.17630
C         -7.57900       -1.88360       -6.10390
C         -6.87870       -0.62800       -5.97440
S         -5.33840       -0.61540       -5.17180
C         -5.18590        1.09630       -5.34070
C         -4.00210        1.85300       -4.84420
C         -2.68720        1.18100       -5.23100
C         -6.29420        1.59130       -5.96770
C         -7.26080        0.63700       -6.32890
F         -6.45210        2.90130       -6.22460
C         -8.54290       -2.15230       -7.11710
N         -9.23530       -3.26930       -7.06790
C         -8.98070       -4.18880       -6.13080
C         -8.83360       -1.31470       -8.26410
C        -10.06360       -1.15340       -8.83970
C         -9.99150       -0.38450      -10.01440
F        -11.08280       -0.07280      -10.73710
C         -8.73470        0.01230      -10.37410
C         -8.32400        0.82950      -11.54880
C         -7.82000        2.20920      -11.12200
S         -7.59000       -0.55320       -9.20880
C         -6.61530       -4.79560       -3.21000
S         -6.34500       -5.99930       -1.93840
C         -5.02310       -5.08910       -1.33600
C         -4.05770       -5.09010       -0.33540
S         -3.59880       -6.13320        0.97410
C         -2.33610       -5.01570        1.32970
C         -1.29040       -4.94960        2.25510
C         -0.90380       -5.88620        3.23600
C          0.27410       -5.62300        4.00020
N          0.54920       -6.59100        4.86170
S         -0.58640       -7.73620        4.71810
N         -1.46920       -7.04060        3.55400
C          0.95850       -4.40780        3.79000
C          2.06980       -3.89100        4.46850
S          3.15520       -4.33980        5.73780
C          3.92490       -2.77660        5.59210
C          4.98250       -2.18500        6.30480
C          5.70990       -2.92620        7.37810
C          6.94230       -3.63540        6.81400
C          5.23380       -0.90200        5.85600
S          4.14950       -0.43700        4.54000
C          3.35980       -1.97240        4.60130
C          2.30000       -2.61700        3.95160
N          1.38300       -2.33350        2.97580
C          0.54180       -3.43100        2.83370
C         -0.57600       -3.74620        2.00240
N         -1.17990       -3.13130        0.91520
C         -2.25810       -3.88840        0.50000
C         -3.26920       -3.91610       -0.48880
N         -3.73820       -3.21570       -1.58540
C         -4.80450       -3.91920       -2.09310
C         -5.69210       -3.76170       -3.14800
C         -3.45860       -1.89460       -2.09230
C         -4.52010       -0.88880       -1.64550
C         -0.76300       -1.95490        0.20200
C         -1.57920       -0.72970        0.61880
C          1.43970       -1.01330        2.39220
C          2.51270       -0.91950        1.30570
C          6.16750        0.07850        6.28860
S          7.39260       -0.26300        7.50370
C          7.96810        1.36000        7.40310
C          8.91570        2.21500        7.95420
C          8.73350        3.47750        7.32270
N          7.72100        3.38870        6.39970
C          7.17740        4.48580        5.64090
C          6.13510        5.26030        6.44470
C          7.23450        2.11310        6.45660
C          6.22460        1.38190        5.83080
C          9.59340        4.46310        7.77500
C         10.45270        3.98710        8.75970
S         10.18150        2.26420        9.10910
C         11.47480        4.59950        9.49590
C         11.90540        5.90460        9.56000
C         11.31090        7.10450        8.93950
O         10.39490        7.18500        8.14110
C         12.04910        8.25420        9.49540
C         11.84640        9.58350        9.26290
C         12.67040       10.52940        9.91220
C         12.50860       11.91470        9.70770
C         13.31240       12.81940       10.34370
C         14.30810       12.34870       11.21020
F         15.09000       13.25460       11.82760
C         14.50710       11.01670       11.44450
C         13.68920       10.07080       10.79650
C         13.87490        8.68550       11.01530
C         13.06780        7.78750       10.36960
C         13.02410        6.32740       10.38340
C         13.93730        5.52860       11.02530
C         15.00620        6.02210       11.80200
N         15.89420        6.35300       12.45090
C         13.99160        4.11940       10.99340
N         14.13630        2.97940       11.01470
H        -11.60600       -6.21910       -6.81600
H        -13.79200       -4.11080      -11.14690
H        -14.25090       -2.66510      -13.10190
H        -13.43830       -1.12640      -14.87110
H         -9.43670       -1.55030      -13.45150
H         -8.96250       -2.92430      -11.49400
H         -4.04610        2.86300       -5.25770
H         -4.05800        1.93840       -3.75390
H         -2.63110        0.18360       -4.80030
H         -2.60960        1.09400       -6.31180
H         -1.84610        1.76690       -4.86960
H         -8.19250        0.89240       -6.79720
H        -10.97370       -1.55050       -8.43130
H         -9.18520        0.93840      -12.21140
H         -7.52910        0.31090      -12.09070
H         -7.51920        2.78140      -11.99520
H         -6.96490        2.11010      -10.45740
H         -8.60300        2.75590      -10.60220
H          6.00860       -2.24680        8.17760
H          5.02880       -3.67150        7.79490
H          6.64870       -4.33580        6.03550
H          7.63970       -2.91640        6.39140
H          7.44800       -4.18430        7.60330
H         -5.69720       -2.95580       -3.85410
H         -3.46160       -1.95450       -3.18560
H         -2.47150       -1.57080       -1.77270
H         -4.24810        0.10870       -1.97870
H         -5.48490       -1.14790       -2.07130
H         -4.61850       -0.88280       -0.56210
H          0.30060       -1.80200        0.36030
H         -0.89320       -2.15330       -0.86660
H         -1.49760       -0.55090        1.68880
H         -2.63070       -0.88860        0.40340
H         -1.23870        0.15420        0.08540
H          1.70690       -0.32190        3.19890
H          0.46350       -0.71610        2.02530
H          2.48050        0.06050        0.83780
H          2.37710       -1.68190        0.54060
H          3.49700       -1.05870        1.74500
H          6.73010        4.07990        4.72990
H          8.00110        5.14840        5.36280
H          6.58740        5.67650        7.34140
H          5.31850        4.60420        6.73790
H          5.73420        6.07390        5.84700
H          5.54960        1.76440        5.08650
H          9.61790        5.48380        7.44190
H         11.99810        3.90390       10.14150
H         11.06600        9.90960        8.59150
H         11.73410       12.25240        9.03530
H         13.20250       13.88230       10.19810
H         15.28480       10.69100       12.11750
H         14.65240        8.37420       11.69370
