189

C          8.99570        2.29460       -5.60000
C          9.14360        3.63220       -5.75730
C         10.23700        4.15480       -6.62970
O         10.87350        3.53250       -7.44640
C         10.40790        5.56320       -6.22370
C         11.37460        6.45280       -6.59660
C         11.35370        7.76010       -6.06150
C         12.34300        8.70890       -6.39070
C         12.31620        9.96840       -5.85980
C         11.27770       10.31270       -4.98450
F         11.26370       11.55740       -4.47120
C         10.28960        9.43480       -4.63830
C         10.31020        8.12880       -5.16400
C          9.32260        7.18770       -4.79590
C          9.37680        5.91830       -5.30690
C          8.51560        4.76090       -5.09620
C          7.26170        4.80210       -4.54470
C          6.36170        3.71910       -4.53030
N          5.57490        2.88310       -4.50130
C          6.72760        5.93400       -3.89900
N          6.26730        6.81130       -3.31790
C          8.31990        1.61480       -4.53070
C          7.68670        0.39650       -4.72380
F          7.69970       -0.16480       -5.93990
C          6.98790       -0.25220       -3.70360
F          6.39910       -1.42420       -3.99750
C          6.90690        0.25560       -2.41420
C          7.57210        1.49450       -2.17330
N          7.49340        2.05870       -0.96400
C          8.13040        3.18240       -0.71980
C          8.05760        3.64580        0.64930
S          9.45800        4.22370        1.49750
C          8.58160        4.36360        2.97970
C          9.21230        4.88670        4.22290
C          9.66480        6.33670        4.04700
C          7.28890        3.96840        2.78590
C          6.98140        3.53810        1.48340
F          6.37960        3.97680        3.77450
C          8.88720        3.82060       -1.74910
N          8.95610        3.27730       -2.94640
C          8.29950        2.14020       -3.20560
C          9.54390        5.10510       -1.63370
C         10.65640        5.49870       -2.32800
C         10.94410        6.85660       -2.12060
F         12.00160        7.46500       -2.68980
C         10.06380        7.52220       -1.31260
C         10.08540        8.95870       -0.91840
C          8.68340        9.55790       -0.85970
S          8.84380        6.43350       -0.76220
C          6.14440       -0.38730       -1.37720
C          6.42480       -0.48250       -0.02190
C          7.68770       -0.09820        0.60590
C          7.69570        0.45450        1.88390
C          8.89000        0.82820        2.46980
C         10.08340        0.66720        1.79000
C         10.09850        0.09970        0.52100
C         11.39640       -0.12480       -0.20100
C         11.98530       -1.48830        0.16530
C          8.90070       -0.29680       -0.04960
C          5.34980       -1.07130        0.67280
S          5.08240       -1.44670        2.36080
C          3.50600       -2.03580        1.95970
C          2.34660       -2.49570        2.60340
C          2.03280       -2.60010        3.97600
C          0.68230       -2.89880        4.35580
N          0.51240       -2.89170        5.66880
S          1.93190       -2.54700        6.36690
N          2.81730       -2.38850        5.02120
C         -0.25810       -3.20010        3.34720
C         -1.60170       -3.59730        3.42560
S         -2.83160       -3.81260        4.62270
C         -3.93560       -4.29940        3.36090
C         -5.29510       -4.66910        3.38440
C         -6.07450       -4.79560        4.61700
C         -6.81870       -5.94650        4.86530
C         -7.51900       -6.07010        6.04910
C         -7.48100       -5.05640        6.99080
C         -6.73280       -3.90810        6.76510
C         -6.71800       -2.79010        7.76690
C         -7.83620       -1.79090        7.46400
C         -6.03200       -3.78890        5.57450
C         -5.76210       -4.94680        2.11350
S         -4.50060       -4.80370        0.89220
C         -3.35580       -4.31000        2.09030
C         -2.01840       -3.89480        2.12520
N         -0.98940       -3.68110        1.24530
C          0.09740       -3.21930        1.96900
C          1.37850       -2.74100        1.58790
N          1.93980       -2.42010        0.36090
C          3.21540       -1.97500        0.59520
C          4.26960       -1.42450       -0.14290
S          4.58080       -1.05800       -1.79670
C          1.29430       -2.01390       -0.86880
C          0.58850       -0.67060       -0.69580
C         -1.03590       -4.27500       -0.07220
C         -1.87700       -3.45900       -1.05260
C         -7.09380       -5.17040        1.66350
S         -8.46450       -4.59700        2.60760
C         -9.53630       -5.06740        1.33820
C        -10.88270       -5.05940        0.99260
C        -10.97690       -5.64610       -0.29630
N         -9.72410       -5.99550       -0.73360
C         -9.41860       -6.71920       -1.94070
C         -9.50800       -8.22840       -1.72450
C         -8.84320       -5.65770        0.25580
C         -7.45970       -5.70270        0.44490
C        -12.26880       -5.66260       -0.80160
C        -13.18690       -5.12450        0.09210
S        -12.41590       -4.55210        1.57630
C        -14.54970       -4.90880       -0.18450
C        -15.55520       -4.52420        0.65630
C        -16.74180       -3.82000        0.11060
O        -17.07770       -3.74690       -1.05100
C        -17.37450       -3.17400        1.28000
C        -18.41710       -2.29480        1.31790
C        -18.82830       -1.76620        2.56280
C        -19.89550       -0.84970        2.65620
C        -20.27960       -0.33500        3.86330
C        -19.59420       -0.73410        5.01830
F        -19.98540       -0.21560        6.19810
C        -18.55430       -1.62060        4.98460
C        -18.14580       -2.16130        3.75000
C        -17.07600       -3.08480        3.68230
C        -16.70000       -3.58460        2.46630
C        -15.66980       -4.55020        2.09450
C        -15.13380       -5.50250        2.92420
C        -14.39380       -6.60030        2.44000
N        -13.84140       -7.53340        2.06210
C        -15.35520       -5.54380        4.31330
N        -15.49990       -5.60530        5.45080
H          9.49820        1.66990       -6.33190
H         12.15010        6.16150       -7.28910
H         13.13190        8.42120       -7.06910
H         13.07000       10.70290       -6.09460
H          9.50040        9.73700       -3.96790
H          8.55420        7.48950       -4.10230
H          8.48350        4.81800        5.03300
H         10.07630        4.26980        4.48350
H          8.81730        6.96990        3.79560
H         10.11220        6.70340        4.96680
H         10.39900        6.40620        3.24750
H          6.01590        3.18950        1.17070
H         11.24140        4.84300       -2.94490
H         10.55750        9.05510        0.06500
H         10.70810        9.50070       -1.63450
H          8.16750        9.43200       -1.80870
H          8.73820       10.61870       -0.63060
H          8.09450        9.06460       -0.08980
H          6.76720        0.61310        2.40900
H          8.88690        1.25850        3.46070
H         11.01250        0.97980        2.24460
H         11.23230       -0.08020       -1.28020
H         12.10730        0.65960        0.06780
H         11.29520       -2.28320       -0.10800
H         12.16590       -1.54590        1.23620
H         12.92590       -1.64920       -0.35600
H          8.90780       -0.76470       -1.02450
H         -6.83190       -6.74370        4.13620
H         -8.09450       -6.96350        6.24090
H         -8.03190       -5.16050        7.91440
H         -5.75520       -2.27670        7.73280
H         -6.85660       -3.19220        8.77230
H         -7.82700       -0.97900        8.18740
H         -8.80520       -2.28320        7.50550
H         -7.70950       -1.37160        6.46830
H         -5.45300       -2.89710        5.38250
H          2.08190       -1.92070       -1.62080
H          0.59590       -2.76950       -1.21380
H          1.30430        0.09470       -0.40490
H         -0.17590       -0.73570        0.07610
H          0.12490       -0.37070       -1.63160
H         -1.48900       -5.26820        0.02910
H         -0.01420       -4.42020       -0.42630
H         -2.92080       -3.47890       -0.75180
H         -1.80010       -3.88880       -2.04770
H         -1.55660       -2.42220       -1.08880
H        -10.12540       -6.40680       -2.71390
H         -8.41010       -6.44140       -2.25850
H         -8.79730       -8.54300       -0.96400
H        -10.50770       -8.50330       -1.39690
H         -9.28550       -8.75180       -2.65010
H         -6.74400       -6.09800       -0.25350
H        -12.56410       -6.05700       -1.75700
H        -14.82070       -4.94540       -1.23570
H        -18.92200       -2.00170        0.40960
H        -20.40780       -0.55710        1.75200
H        -21.09280        0.36790        3.95110
H        -18.05150       -1.90810        5.89470
H        -16.57000       -3.36440        4.59320
