112
FNIC1.sdf
C     -6.18651   -2.73168    2.33558
C     -5.85049   -3.91861    1.56460
C     -6.70472   -4.57521    0.61897
C     -5.92568   -5.69301    0.16867
C     -4.66714   -5.80067    0.81960
C     -4.58330   -4.63162    1.72548
O     -3.67282   -4.39043    2.49053
C     -8.05578   -4.20763    0.23656
C     -9.16495   -5.02483    0.62542
N    -10.01676   -5.71421    0.95010
C     -8.23976   -3.23422   -0.79615
N     -8.33997   -2.45866   -1.62929
C     -6.43346   -6.73540   -0.67184
C     -5.59581   -7.84546   -0.83468
C     -4.33684   -7.92601   -0.20405
C     -3.85756   -6.91274    0.63865
C      6.05589    2.88105    2.14646
C      5.86553    4.04146    1.29079
C      6.83001    4.58589    0.37809
C      6.17307    5.74101   -0.16636
C      4.88870    5.97518    0.39370
C      4.64919    4.85180    1.33078
C      6.82337    6.71204   -0.99543
C      6.09694    7.88425   -1.23991
C      4.81221    8.08947   -0.70072
C      4.19181    7.14407    0.13177
O      3.67379    4.71269    2.04035
C      8.17033    4.09940    0.09999
C      9.37743    4.80959    0.39731
C      8.24930    2.89467   -0.66999
N      8.26573    1.92311   -1.27152
N     10.31390    5.41822    0.63957
C     -5.68340   -1.41930    1.97287
S     -4.01796   -1.06373    1.71578
C     -4.37283   -0.47192    0.81618
C     -5.07731    0.38575    1.03075
C     -6.25648   -0.30728    1.46788
C     -4.16945   -0.63182   -0.71193
C     -4.35312    0.44203   -1.06109
C     -5.12078    1.33895   -0.12687
S     -3.79092   -1.62050   -1.15289
C     -2.57479   -0.52465   -1.66495
C     -3.09987    0.73081   -1.71090
C     -1.15311   -0.48237   -1.44422
C     -0.71517    0.87301   -1.44851
S     -2.01391    2.05615   -1.69081
C     -0.34267   -1.26962   -1.21461
C      0.77977   -1.06062   -1.36725
C      1.16628    0.37173   -1.41499
C      0.37178    1.18231   -1.25960
S      2.06524   -2.26809   -1.48639
C      3.11770   -0.90270   -1.54992
C      2.59272    0.35868   -1.58718
C      4.38291   -0.55383   -0.94890
C      4.18409    0.53380   -0.65881
S      3.81942    1.48622   -1.18322
C      5.18097   -1.37426    0.02525
C      5.05940   -0.39986    1.16404
C      4.35509    0.44098    0.88149
C      6.19542    0.38641    1.56275
C      5.58720    1.51932    1.96677
S      3.93952    1.09498    1.71151
F     -6.02030   -8.85796   -1.61230
F     -3.57093   -9.01675   -0.38680
F      4.15715    9.23681   -0.95764
F      6.65957    8.83577   -2.00871
C     -4.41850    2.66056    0.21006
C     -6.57059    1.56986   -0.57605
C     -7.31129    2.58709    0.03211
C     -8.62889    2.83398   -0.33796
C     -9.24340    2.03956   -1.30376
C     -8.51848    1.00916   -1.90257
C     -7.18984    0.77618   -1.54457
C     -4.51740    3.73386   -0.68088
C     -4.00500    4.98575   -0.35130
C     -3.40322    5.19238    0.88719
C     -3.30169    4.12766    1.78396
C     -3.80341    2.87136    1.44699
C    -10.67505    2.30822   -1.73076
C    -11.54439    2.94602   -0.63298
C     -2.93772    6.58849    1.25858
C     -1.83196    6.62397    2.32520
C      4.55232   -2.73566    0.32137
C      6.64295   -1.54559   -0.40522
C      4.82755   -3.79574   -0.54539
C      4.24986   -5.04554   -0.35344
C      3.39239   -5.25461    0.72414
C      3.12429   -4.20760    1.60806
C      3.70311   -2.95441    1.41062
C      7.06647   -1.27637   -1.70813
C      8.37517   -1.56327   -2.09691
C      9.26994   -2.13317   -1.19075
C      8.85369   -2.40053    0.11020
C      7.54537   -2.12284    0.49295
C      2.74115   -6.60793    0.91651
C      3.76034   -7.72817    1.17443
C     10.68346   -2.46944   -1.61930
C     11.01928   -3.95807   -1.43233
C      0.68956    2.37768   -0.36167
C      0.50082    2.18130    0.73084
C      0.34342    3.43279    1.40154
C      0.50139    4.31549    0.39087
S      1.00736    3.31137   -0.91149
C      0.90686    5.74446    0.59617
C      0.40995    6.65597   -0.53534
C     -0.73049   -2.52108   -0.42286
C     -1.00802   -3.29712   -1.19220
C     -0.91182   -4.60234   -0.62637
C     -0.52459   -4.31784    0.63654
S     -0.67124   -2.59854    0.70187
C     -0.66647   -5.25836    1.80045
C     -0.53772   -6.74034    1.41107
