110
IDTT2OT.sdf
C      6.76561   -0.25178    0.59769
C      5.44540    0.12601   -0.13671
C      4.93781    1.14150   -0.02211
C      3.92641    0.74347    0.91701
C      3.84749   -0.53221    0.48447
S      4.94369   -0.60509   -0.85006
C      2.42067   -0.75659    0.48795
C      1.78775   -1.86703   -0.35348
C      2.85626   -2.89623   -0.77611
C      3.71634   -3.36438    0.22995
C      4.47921   -4.51177    0.08650
C      4.36366   -5.26919   -1.07052
C      5.11320   -6.58385   -1.19260
C      6.48410   -6.58492   -0.49198
C      3.50128   -4.83716   -2.08121
C      2.74353   -3.66766   -1.93510
C      0.76126   -2.73058    0.40328
C      1.07233   -3.25582    1.66161
C      0.53369   -4.47628    2.07884
C     -0.32980   -5.19536    1.25042
C     -0.80038   -6.58479    1.64894
C     -1.83831   -7.20420    0.69359
C     -0.71666   -4.63705    0.03714
C     -0.15832   -3.43660   -0.37821
C      1.14350   -0.86319   -1.30178
C      1.40425    0.40307   -0.76604
C      2.22201    0.37514    0.51384
S      2.34797    1.35675    1.07042
C      0.57482    1.49296   -1.12452
C     -0.75198    1.26883   -1.50040
C     -1.86111    1.83406   -0.62343
C     -3.13012    2.47032   -1.21266
C     -4.10099    2.78459   -0.26875
C     -5.03348    3.79195   -0.43401
C     -5.00479    4.54404   -1.59444
C     -5.93287    5.74114   -1.71754
C     -6.10135    6.50082   -0.38544
C     -4.09051    4.21201   -2.60215
C     -3.14334    3.19618   -2.41070
C     -1.28515    2.88917    0.34173
C     -1.26147    4.18891   -0.17752
C     -0.51970    5.20736    0.39087
C      0.26304    4.93341    1.49900
C      1.23912    5.98853    1.98516
C      1.97794    6.68745    0.82651
C      0.19129    3.66713    2.09407
C     -0.58396    2.64277    1.52641
C     -2.21440    0.41063   -0.20300
C     -2.36043   -0.41842   -0.98143
C     -1.10058   -0.06305   -1.72821
C     -0.10334   -1.05086   -1.89378
S     -2.99424   -1.24062   -1.42725
C     -3.67173   -1.07452    0.14284
C     -3.07121   -0.07496    0.84261
S     -4.27005    0.71110    1.78950
C     -5.11055    0.14300    1.24964
C     -4.99841   -0.62512    0.41382
C     -8.09173   -2.48885    1.47013
C     -7.74069   -3.73372    0.81200
C     -8.67931   -4.65706    0.24235
C    -10.12697   -4.49319    0.13313
C    -10.65457   -4.93947   -1.12328
N    -11.07293   -5.33953   -2.10428
C    -10.88534   -3.48340    0.80661
N    -11.44638   -2.63815    1.33748
C     -7.85405   -5.77698   -0.13172
C     -8.37109   -7.05870   -0.51441
C     -7.43472   -8.09395   -0.61361
C     -6.07134   -7.88944   -0.33794
C     -5.57112   -6.65027    0.08550
C     -6.47787   -5.60353    0.18979
C     -6.37270   -4.24799    0.77809
O     -5.36351   -3.74598    1.23125
C      6.54755    4.14894    0.82722
O      5.68211    3.66922    1.53105
C      6.47136    5.45351    0.12809
C      5.53230    6.47591    0.15987
C      5.88730    7.68998   -0.44378
C      7.15139    7.90015   -1.02344
C      8.12260    6.89337   -1.06197
C      7.73939    5.63444   -0.49477
C      8.68220    4.60094   -0.16327
C     10.10481    4.52901   -0.46621
C     10.63380    5.41821    0.52485
N     11.00901    6.13709    1.33004
C     10.94126    3.43760   -0.86106
N     11.65257    2.58559   -1.13844
C      7.91189    3.66992    0.60595
C      8.43406    2.45499    1.20577
C     -7.81904   -1.09333    1.23202
C     -8.09691   -0.20491    0.26702
C     -7.27419    0.92884    0.57438
C     -6.63046    0.42239    1.37551
S     -7.02575   -0.04325    2.33714
O     -9.03068   -0.30132   -0.73652
C    -10.31352    0.29493   -0.44498
C    -11.18274    0.29370   -1.70918
O     -7.42052    2.01712   -0.25582
C     -8.35066    3.04511    0.13337
C     -8.79898    3.80151   -1.12600
C      7.54537   -0.88833    0.06226
C      8.39939    0.24586   -0.15042
C      8.00855    1.13845    0.77628
S      6.93248    0.13175    1.65472
O      7.82704   -2.06744   -0.59020
O      9.47476    0.33712   -1.00353
C      8.05061   -3.22833    0.23128
C      9.00502   -4.17248   -0.51253
C     10.41804   -0.75406   -1.08857
C     11.17124   -0.88882    0.24417
