97
BTP-FCl-FCl.sdf
C          0.25966       -2.70915        0.22389
O         -0.93059       -2.45742        0.12194
C          0.61320       -3.87893        0.89773
C          0.26497       -5.17015        0.54438
C          0.57099       -6.17276        1.44733
Cl         0.12322       -7.82184        1.04401
C          1.18118       -5.83349        2.67885
F          1.41599       -6.80594        3.58497
C          1.53012       -4.48652        2.97911
C          1.25123       -3.50104        2.03667
C          1.45521       -2.00924        1.94968
C          1.57206       -1.08837        2.91817
C          1.75328        0.31951        2.63348
N          1.89769        1.45340        2.45009
C          1.39467       -1.49691        4.28032
N          1.24611       -1.87156        5.36177
C          1.23998       -1.71970        0.53869
C          1.86835       -0.80798       -0.27679
C          1.76947       -0.56506       -1.80559
S          0.78029       -1.45480       -2.95636
C          1.12457       -0.55863       -4.37899
C          2.05110        0.37760       -3.92811
C          2.40142        0.46117       -2.56744
C          3.25861        1.63520       -2.07890
C          2.51173        2.88967       -1.66873
S          2.54626        1.38887       -5.12702
C          1.49932        0.75478       -6.15466
C          0.76318       -0.27612       -5.77981
N         -0.09748       -0.57758       -6.85013
C         -1.05042       -1.67941       -6.88016
C         -0.01038        0.54499       -7.71363
C          1.08365        1.27768       -7.23651
C          1.57574        2.42353       -7.80055
N          2.78414        3.01013       -7.61024
S          2.69355        4.30952       -8.62481
N          1.14226        4.22347       -9.16525
C          0.69103        3.08352       -8.57415
C         -0.59419        2.55818       -8.67273
C         -0.65774        1.21159       -8.90917
N         -1.38223        1.19187      -10.13423
C         -1.71952        0.02670      -10.97788
C         -2.50886        0.44282      -12.21107
C         -1.55049        2.57316      -10.48130
C         -1.35486        3.19568       -9.40826
S         -2.82159        3.95458       -9.08985
C         -3.03225        4.36161      -10.72939
C         -1.95135        3.68475      -11.34935
S         -0.73688        5.04088      -11.25440
C         -1.74029        6.24002      -10.45790
C         -3.01577        5.79464      -10.86658
C         -3.30154        6.30686      -12.29905
C         -2.63329        7.65928      -12.63029
C         -1.51445        6.78081       -8.95489
C         -2.56901        7.23759       -8.10996
C         -2.86844        7.59371       -6.60836
C         -2.29585        8.35159       -5.58248
C         -3.13333        8.73026       -4.44961
N         -3.84641        8.99686       -3.57459
C         -1.03557        9.05031       -5.46871
N         -0.08531        9.66910       -5.22341
C         -4.31090        7.14269       -6.44312
C         -5.10018        6.75979       -5.32344
C         -6.46946        6.46183       -5.51497
F         -7.23499        6.05186       -4.47098
C         -7.04953        6.59164       -6.78992
Cl        -8.75626        6.27033       -7.05208
C         -6.25536        6.95004       -7.87831
C         -4.89987        7.17242       -7.67380
C         -3.90963        7.42043       -8.67402
O         -4.17763        7.78678       -9.79945
C         -2.44871       -1.15870       -7.05675
H         -0.24098       -5.38417       -0.39489
H          1.99611       -4.22589        3.91053
H          2.59851       -0.25825        0.28493
H          4.05485        1.40834       -1.43062
H          3.85138        1.96265       -2.87758
H          1.73610        2.90764       -0.89215
H          3.05857        3.84477       -1.67615
H          1.97117        3.00892       -2.54131
H         -0.77602       -2.38769       -7.68480
H         -1.04603       -2.22013       -5.92220
H         -0.79912       -0.45830      -11.34996
H         -2.31737       -0.71314      -10.40223
H         -1.92939        1.19547      -12.78672
H         -2.79231       -0.39871      -12.87184
H         -3.46193        0.84896      -11.86833
H         -2.94675        5.56910      -13.04502
H         -4.39282        6.43760      -12.46775
H         -1.53333        7.59942      -12.48958
H         -2.81645        7.94570      -13.67662
H         -3.04229        8.46919      -11.99755
H         -0.52697        6.61841       -8.51668
H         -4.69131        6.65829       -4.32611
H         -6.67722        7.01897       -8.87035
H         -2.68754       -0.56163       -6.15478
H         -2.48050       -0.52228       -7.95144
H         -3.17701       -1.98404       -7.20283
