97
BTP-S2.sdf
C         -1.91941       -1.18106        1.53989
O         -2.59779       -2.03538        2.06575
C         -0.48819       -0.96613        1.75774
C          0.47484       -1.81929        2.31502
C          1.80305       -1.36580        2.40482
Cl         3.04467       -2.41686        3.09829
C          2.14360       -0.07930        1.92994
Cl         3.82515        0.45883        2.03781
C          1.15374        0.76754        1.36749
C         -0.18295        0.29787        1.29608
C         -1.48871        0.90288        0.85759
C         -1.92544        2.13721        1.14857
C         -3.33902        2.51764        0.98998
N         -4.44915        2.84678        0.87787
C         -1.04215        3.02606        1.86272
N         -0.34842        3.75435        2.43624
C         -2.36796       -0.20785        0.54621
C         -3.30787       -0.26490       -0.44835
C         -4.06337       -1.48208       -0.86766
S         -3.53411       -3.16225       -0.80369
C         -4.99391       -3.86921       -1.31397
C         -5.79000       -2.74738       -1.51953
C         -5.36196       -1.45629       -1.36192
C         -6.29731       -0.26972       -1.64442
C         -6.82785       -0.20335       -3.10729
S         -7.27850       -3.11716       -1.88478
C         -6.97303       -4.65949       -1.82027
C         -5.76120       -5.09632       -1.61193
N         -5.86259       -6.50121       -1.73585
C         -4.79436       -7.44607       -1.48716
C         -7.19199       -6.78290       -2.14300
C         -7.82680       -5.54715       -2.01004
C         -9.17635       -5.30515       -2.03078
N         -9.84347       -4.22796       -1.53524
S        -11.41568       -4.64921       -1.78973
N        -11.25505       -6.06411       -2.61119
C         -9.90580       -6.24002       -2.60261
C         -9.25981       -7.32547       -3.07875
C         -8.12269       -7.89470       -2.61765
N         -8.42754       -9.27331       -2.87760
C         -7.66290      -10.49857       -2.55791
C         -8.03657      -11.05093       -1.19720
C         -9.71413       -9.24916       -3.53052
C         -9.87985       -8.06124       -3.79892
S         -9.68040       -8.09102       -5.49060
C        -10.62873       -9.49227       -5.63600
C        -10.86429       -9.80203       -4.27287
S        -12.39747       -8.81403       -4.06945
C        -12.54005       -8.19901       -5.71811
C        -11.80218       -9.18305       -6.42878
C        -12.73549      -10.40022       -6.58060
C        -12.11546      -11.56703       -7.32250
C        -12.42563       -6.66602       -6.17581
C        -12.54890       -6.24581       -7.51373
C        -12.38843       -4.98996       -8.39301
C        -12.91578       -3.74124       -8.24043
C        -13.01187       -2.84342       -9.37684
N        -13.06220       -2.16145      -10.31200
C        -13.64773       -3.30109       -7.09318
N        -14.25661       -2.86816       -6.21183
C        -11.99382       -5.50299       -9.75678
C        -11.42719       -4.92941      -10.93255
C        -11.28508       -5.74357      -12.08602
Cl       -10.55607       -5.08994      -13.55247
C        -11.74095       -7.08131      -12.06688
Cl       -11.59365       -8.13809      -13.46432
C        -12.32810       -7.60242      -10.91311
C        -12.41864       -6.80842       -9.78696
C        -12.97643       -7.18428       -8.50672
O        -13.99069       -7.84763       -8.37985
C         -3.65308       -7.11952       -2.40821
Cl         1.65907        2.32778        0.71866
Cl         0.04315       -3.43197        2.87159
H         -3.45433        0.62308       -1.05698
H         -7.15448       -0.27485       -0.96728
H         -5.86691        0.66648       -1.36993
H         -7.38806       -1.08748       -3.42505
H         -7.46870        0.65988       -3.27929
H         -6.09690       -0.05063       -3.89017
H         -4.49420       -7.42741       -0.49648
H         -5.11755       -8.48330       -1.64900
H         -7.85214      -11.27567       -3.31987
H         -6.57001      -10.34251       -2.60393
H         -9.10952      -11.30843       -1.16364
H         -7.43806      -11.94090       -0.93776
H         -7.75262      -10.30208       -0.50589
H        -13.10956      -10.77526       -5.59939
H        -13.64108      -10.10721       -7.15729
H        -11.27152      -11.99077       -6.74881
H        -12.88023      -12.35827       -7.43332
H        -11.78011      -11.24476       -8.32859
H        -12.09779       -5.92506       -5.44156
H        -11.08764       -3.89998      -10.98595
H        -12.68838       -8.61855      -10.87473
H         -4.09565       -7.27806       -3.40056
H         -3.33391       -6.05641       -2.33754
H         -2.77183       -7.78235       -2.27022
