103
BTP-S9.sdf
C          3.68996       -2.47486       -3.58191
O          4.70054       -3.06539       -3.95069
C          2.93358       -1.96357       -4.66431
C          2.10145       -2.69731       -5.47934
C          1.35455       -1.99955       -6.41852
C          1.55607       -0.59214       -6.57641
C          2.48119        0.11081       -5.75975
C          3.13743       -0.60926       -4.76851
C          3.99996       -0.20769       -3.62821
C          4.95201        0.73856       -3.55557
C          5.72266        0.99559       -2.36503
N          6.36239        1.22641       -1.42790
C          5.39120        1.33037       -4.80486
N          5.69942        1.77287       -5.82918
C          3.77910       -1.31749       -2.67640
C          3.43781       -1.29389       -1.34848
C          2.92631       -2.49874       -0.54030
S          3.27249       -4.19831       -0.75879
C          2.22760       -4.82961        0.45995
C          1.73238       -3.70342        1.07278
C          1.96585       -2.44671        0.50956
C          1.09207       -1.26858        0.96817
C          0.76542       -0.13312       -0.00828
S          0.74004       -4.03602        2.34521
C          0.61247       -5.55199        1.85749
C          1.46499       -5.98246        0.95242
N          1.16077       -7.29478        0.61335
C          1.96625       -7.99848       -0.37810
C          1.39473       -7.74534       -1.72917
C         -0.17218       -7.46870        1.08927
C         -0.44098       -6.30496        1.85329
C         -1.68286       -5.82395        2.25127
N         -1.95817       -4.66768        2.91538
S         -3.60216       -4.56571        2.79867
N         -3.97583       -5.89457        1.90338
C         -2.75087       -6.45386        1.70334
C         -2.52747       -7.61451        1.03155
C         -1.36665       -8.36406        0.85069
N         -1.87559       -9.62259        0.39915
C         -1.22505      -10.92628        0.05672
C          0.29463      -10.98622        0.24083
C         -3.28303       -9.42276        0.34302
C         -3.49474       -8.17892        0.45410
S         -3.99527       -7.79149       -1.14615
C         -4.71993       -9.34132       -1.43188
C         -4.54364       -9.92130       -0.18307
S         -6.02696       -9.24617        0.59522
C         -6.79355       -8.59870       -0.84496
C         -6.10228       -9.32372       -1.85206
C         -6.69252      -10.77276       -1.97302
C         -6.03947      -11.68048       -3.02774
C         -6.97421       -7.04671       -1.14085
C         -7.59226       -6.61830       -2.31423
C         -7.81503       -5.36643       -3.17745
C         -8.13924       -4.05655       -2.92573
C         -8.63947       -3.23045       -4.01671
N         -9.02876       -2.61736       -4.92211
C         -8.25460       -3.39751       -1.65575
N         -8.39239       -2.75484       -0.70316
C         -7.94337       -5.91860       -4.56831
C         -7.81058       -5.33635       -5.84634
C         -8.12282       -6.10685       -6.98098
C         -8.56632       -7.44089       -6.82859
C         -8.66707       -8.00241       -5.55113
C         -8.32951       -7.22286       -4.46066
C         -8.32517       -7.59065       -3.08024
O         -9.10336       -8.37678       -2.57748
C          0.79538        0.09168       -7.51767
C         -0.16632       -0.58404       -8.27349
C         -0.38290       -1.95573       -8.09314
C          0.38223       -2.66961       -7.17273
F         -0.90234        0.10447       -9.17533
F         -1.34174       -2.59293       -8.80859
Cl        -8.99353       -8.43291       -8.21051
Cl        -7.97955       -5.37521       -8.57299
H          1.99394       -3.76706       -5.32738
H          2.60629        1.18192       -5.82693
H          3.42476       -0.32255       -0.85215
H          0.15242       -1.58684        1.48265
H          1.66085       -0.76823        1.71617
H          0.02273       -0.42890       -0.76528
H          0.41001        0.74997        0.55650
H          1.63403        0.25506       -0.52921
H          2.98330       -7.56997       -0.42844
H          2.06514       -9.06423       -0.14249
H          1.21247       -6.66412       -1.88657
H          1.95502       -8.23633       -2.55056
H          0.41969       -8.17234       -1.68999
H         -1.66423      -11.74105        0.68301
H         -1.41499      -11.17522       -1.00998
H          0.66747      -10.65449        1.22565
H          0.75148      -11.98958        0.07617
H          0.68888      -10.37870       -0.55758
H         -6.61790      -11.32077       -1.00654
H         -7.77721      -10.74281       -2.22961
H         -4.97016      -11.86250       -2.81929
H         -6.51671      -12.67763       -3.08175
H         -6.18833      -11.28920       -4.03498
H         -6.42860       -6.32204       -0.53593
H         -7.47310       -4.31848       -5.98560
H         -8.98374       -9.02438       -5.40055
H          0.94003        1.15358       -7.64767
H          0.19632       -3.73243       -7.03207
