79
BTPT-4F.sdf
C         -0.41312        0.35022        0.65121
O         -1.07735        1.18104        0.05351
C         -0.99070       -0.49082        1.62417
C         -2.20116       -0.28900        2.27680
C         -2.56295       -1.20038        3.26540
F         -3.71220       -1.01641        3.95939
C         -1.71904       -2.28738        3.55894
F         -2.05458       -3.14659        4.55011
C         -0.52536       -2.48533        2.83711
C         -0.16889       -1.56482        1.84540
C          0.98917       -1.50522        0.90545
C          1.72930       -2.56027        0.47502
C          2.76408       -2.43950       -0.56949
N          3.58412       -2.36638       -1.39418
C          1.31546       -3.90260        0.89019
N          0.94347       -4.94395        1.25507
C          0.98112       -0.12210        0.37624
C          1.98777        0.51315       -0.25174
C          2.57663        2.46068       -1.71581
C          1.92231        1.91263       -0.62500
S          1.06674        3.10797        0.22356
C          1.58140        4.25933       -0.84863
C          2.36543        3.79336       -1.79927
N          2.78886        4.72753       -2.67206
C          3.63988        4.37484       -3.82067
C          2.22672        5.89064       -2.17874
C          1.44916        5.56731       -1.03717
C          0.74283        6.47605       -0.25812
N          0.01530        6.17547        0.84706
S         -0.49080        7.67174        1.34538
N          0.17817        8.69586        0.23197
C          0.82624        7.83096       -0.58948
C          1.61438        8.18129       -1.67145
C          2.31656        7.27795       -2.50793
N          3.05076        8.00460       -3.42142
C          4.03276        7.66227       -4.45188
C          5.45306        7.67560       -3.87516
C          2.84721        9.28086       -3.03850
C          1.97952        9.40030       -2.04345
S          1.78007       10.93439       -1.47350
C          2.96636       11.47449       -2.56460
C          3.43383       10.45671       -3.40468
C          3.56392       12.78663       -2.60386
C          3.02021       13.96180       -2.24527
C          3.64364       15.25220       -2.62477
C          4.95118       15.45905       -2.93948
C          5.36514       16.57408       -3.74294
N          5.72601       17.46493       -4.38989
C          5.99360       14.53149       -2.52814
N          6.77325       13.75237       -2.16595
C          2.51007       16.19471       -2.71836
C          2.47920       17.52182       -3.13919
C          1.25822       18.20688       -3.12953
F          1.21690       19.48900       -3.55909
C          0.08318       17.57229       -2.68413
F         -1.09636       18.23678       -2.70110
C          0.12851       16.25413       -2.21905
C          1.35388       15.59600       -2.24018
C          1.63225       14.24417       -1.82996
O          0.79111       13.48397       -1.38492
C          2.76387        4.03123       -5.02701
H         -2.83060        0.56827        2.04862
H          0.10261       -3.32085        3.08938
H          2.93453        0.02806       -0.43790
H          3.14202        1.95486       -2.43972
H          4.46091        5.08232       -3.96842
H          4.21150        3.44647       -3.60946
H          3.77438        6.72822       -4.95319
H          3.96110        8.40066       -5.28331
H          5.54555        6.90728       -3.08186
H          6.18513        7.45860       -4.68005
H          5.71254        8.66169       -3.42914
H          4.19706       10.55329       -4.16531
H          4.51541       12.76704       -3.10672
H          3.36341       18.03124       -3.47038
H         -0.76625       15.75342       -1.86655
H          2.08218        4.86623       -5.28561
H          3.39531        3.77415       -5.90279
H          2.14149        3.13851       -4.78353
