88
BTSe-4F.sdf
C          0.48412        0.35793        1.99203
C          0.91541        1.51559        1.26172
C          2.39381        1.81844        1.22166
C          3.12545        0.90748        2.01968
C          2.62913       -0.15591        2.78881
C          1.27783       -0.43361        2.75221
N          3.37551       -1.02486        3.52113
S          2.24462       -2.08370        4.09679
N          0.84596       -1.51642        3.44556
N          3.35888        2.65773        0.53979
C          4.57783        2.06112        0.84267
C          4.40168        1.10402        1.77188
C         -0.81848        0.09512        1.76537
C         -1.22957        1.04714        0.96690
N         -0.24345        1.99969        0.67415
Se        -2.00698       -1.24554        2.20632
C         -3.12923       -0.39426        1.03254
C         -2.54605        0.78604        0.58094
C          5.92923        1.97658        0.32880
C          6.48900        0.87635        0.88175
S          5.66395        0.13342        2.14378
S          7.01310        2.43958       -0.93393
C          7.96658        1.04446       -0.96756
C          7.44689        0.28252        0.10509
C         -0.42288        3.22068       -0.12589
C          3.27842        3.74880       -0.48940
C         -4.50172       -0.88402        0.54968
C         -5.35418       -1.61559        1.33879
C          8.93105        0.66178       -2.08868
C          9.20049        1.35526       -3.27363
C         -5.50647       -2.99176        0.86703
C         -4.82814       -3.78886        1.90113
C         -4.65889       -3.03884        3.05200
C         -5.24900       -1.72025        2.81753
C         10.60968        1.41823       -3.58100
C         10.91116        2.82316       -3.27724
C          9.76278        3.58110       -3.39795
C          8.68603        2.66242       -3.78437
C         -4.27731       -5.06145        1.79476
C         -3.53375       -5.56810        2.87097
C         -3.38412       -4.82703        4.04728
C         -3.96560       -3.55442        4.15372
C         12.07465        3.36214       -2.75687
C         12.02985        4.67403       -2.25335
C         10.86232        5.45368       -2.37996
C          9.73097        4.93329       -3.02650
O         -5.67748       -3.35262       -0.28670
C         -5.66144       -0.80504        3.73133
C         -6.47795        0.31089        3.34381
C         -5.42653       -0.98644        5.15059
F         -2.91859       -6.76733        2.76754
F         -2.63887       -5.34298        5.05793
O         11.40334        0.49685       -3.52424
C          7.53861        2.97157       -4.43725
C          6.54397        1.99177       -4.82546
C          7.23421        4.36697       -4.73135
F         10.80096        6.68289       -1.80614
F         13.09810        5.16562       -1.58294
N         -5.27212       -1.07990        6.29381
N         -7.13137        1.20001        2.99378
N          7.03864        5.49198       -4.94239
N          5.67684        1.31174       -5.18459
C          7.30282       -1.17681        0.11493
C          7.99337       -1.91921        1.19551
C          3.19081        5.13837        0.15464
C         -1.46214        4.05739        0.51700
H         -3.12577        1.35401       -0.04477
H          0.49623        3.83131       -0.13556
H         -0.81125        3.03361       -1.13986
H          4.19280        3.75595       -1.14284
H          2.37113        3.68603       -1.08675
H         -4.54234       -1.04657       -0.54076
H          9.63560       -0.13793       -1.82837
H         -4.36723       -5.62250        0.88171
H         -3.80743       -2.97668        5.04273
H         12.94776        2.74367       -2.63930
H          8.84046        5.53975       -3.09600
H          6.24964       -1.47321        0.24303
H          7.27791       -1.46546       -0.91866
H          7.72260       -2.97796        1.06737
H          8.99214       -1.57753        1.18131
H          7.82679       -1.68342        2.23854
H          3.10460        6.07705       -0.43183
H          4.12980        5.34130        0.63050
H          2.33145        5.13062        0.83157
H         -1.09155        4.23855        1.51008
H         -1.56889        5.04391        0.06397
H         -2.40887        3.50168        0.50096
