123
BTTBo-4F.sdf
C          7.17732       -6.07746        7.64437
O          7.50668       -5.33217        6.73737
C          6.41501       -7.37349        7.56412
C          5.68669       -8.01296        6.57031
C          4.80899       -9.05438        6.97572
C          4.69095       -9.42484        8.33964
C          5.54568       -8.87070        9.28327
C          6.40548       -7.89166        8.83911
C          7.36031       -7.14487        9.57963
C          8.60828       -7.64711        9.81450
C          9.65054       -6.82708       10.37223
N         10.49850       -6.18049       10.81946
C          8.96276       -9.01859        9.44591
N          9.21374      -10.11084        9.14440
C          7.19183       -5.78490        9.10294
C          5.98284       -5.19322        9.43367
C          2.49376        1.16508        8.58574
S          1.97616       -0.37622        8.04166
C          3.57705       -0.80416        7.76797
C          4.47806        0.20083        7.82852
C          3.85189        1.29438        8.36674
C          4.29747       -1.95159        8.16880
C          5.63349       -1.67086        8.28633
C          5.95433       -0.22528        7.90785
S          3.88771       -3.46374        8.74433
C          5.51982       -3.87463        8.97167
C          6.35348       -2.79351        8.66334
C          6.76084        0.74270        8.90138
C          6.17514        1.04373       10.29287
C          6.74830       -0.24965        6.55687
C          6.03849       -0.87456        5.34970
F          4.01894       -9.66044        6.06416
F          3.75066      -10.31178        8.74764
C         -8.38149        4.37882       -2.03955
O         -8.08774        4.41433       -0.86023
C         -9.55570        5.12039       -2.31246
C        -10.82833        4.77567       -2.85638
C        -11.76483        5.83881       -2.93372
C        -11.31298        7.06150       -2.45769
C         -9.93102        7.26377       -2.53058
C         -9.07792        6.19294       -2.92175
C         -8.27191        5.45936       -4.01550
C         -8.36573        5.07744       -5.35207
C         -7.35590        4.21919       -5.95624
N         -6.53983        3.53642       -6.41614
C         -9.42622        5.29867       -6.30222
N        -10.18700        5.38485       -7.17208
C         -7.42144        4.66739       -3.16021
C         -6.08294        4.45614       -3.35623
C         -5.17124        3.90524       -2.35868
S         -3.49321        4.21291       -2.16587
C         -3.41603        3.30754       -0.75198
C         -4.62602        2.77420       -0.48736
C         -5.59759        3.11646       -1.34961
C         -2.62761        3.16071        0.44616
C         -3.43814        2.56858        1.36543
C         -4.68077        1.98588        0.75298
S         -1.28922        3.87915        1.17748
C         -1.84454        3.47165        2.76646
C         -3.02880        2.74924        2.66911
C         -4.33018        0.51815        0.31559
C         -5.47628       -0.26038       -0.33786
C         -6.01268        2.20010        1.54631
C         -6.44322        3.65471        1.79270
F        -12.14965        7.93612       -1.83384
F        -13.06376        5.64632       -3.23672
C         -1.27498        3.83928        4.09940
S         -1.41142        2.86199        5.49438
C         -0.32351        3.73303        6.43786
C          0.02479        4.87983        5.74561
C         -0.52616        4.97200        4.43876
C          0.30490        3.41708        7.66225
C          1.36770        4.17755        8.13514
C          1.56045        5.41380        7.55856
C          0.86063        5.78564        6.41118
S          0.10201        2.09369        8.63570
C          1.65814        2.22388        9.22027
C          2.13465        3.54312        9.11564
S          2.48257        6.66781        8.14413
C          1.80501        7.76589        7.04821
C          1.02379        7.10032        6.08676
C          1.93603        9.21876        7.24928
O          2.66556        9.62309        8.14356
C          1.11059       10.20808        6.46967
C         -0.23507       10.59422        7.10892
H          5.72684       -7.67704        5.54705
H          5.50220       -9.13037       10.33824
H          5.15858       -5.84205        9.76416
H          4.39382        2.09662        8.75523
H          7.41514       -2.83152        8.73440
H          7.82137        0.44382        9.08247
H          6.84323        1.75415        8.41855
H          6.42977        0.25372       10.96467
H          6.45049        2.07020       10.64852
H          5.14419        0.81434       10.54332
H          7.00498        0.78824        6.26645
H          7.69248       -0.82345        6.70827
H          5.18302       -0.25949        5.06885
H          6.57948       -0.73027        4.40662
H          5.83306       -1.96575        5.49518
H        -11.08562        3.76548       -3.12069
H         -9.68911        7.73083       -1.54938
H         -5.60119        4.78182       -4.26290
H         -6.57533        2.81183       -1.22441
H         -3.61323        2.45389        3.51647
H         -3.45730        0.55166       -0.39107
H         -4.00222       -0.08348        1.17821
H         -5.95719        0.26363       -1.20055
H         -5.22904       -1.29808       -0.59831
H         -6.17196       -0.51629        0.45313
H         -6.84226        1.70681        0.99055
H         -5.93117        1.76272        2.55371
H         -6.51773        4.31371        0.94559
H         -7.46282        3.71529        2.18803
H         -5.76149        4.18049        2.45040
H         -0.34267        5.78471        3.74426
H          3.12215        3.93914        9.38695
H          0.44514        7.49146        5.26788
H          1.71562       11.12553        6.34518
H          0.90305        9.76929        5.47816
H         -0.11201       11.09044        8.09915
H         -0.76814       11.31928        6.46107
H         -0.90902        9.71575        7.16228
