98
C8-ITIC.sdf
C         -1.62761        1.12830       -0.27733
O         -2.15933        2.15947       -0.61927
C         -0.22960        1.05448       -0.21947
C          0.62420        2.11463       -0.49522
C          1.98616        1.90449       -0.37165
C          2.45709        0.64353        0.01934
C          1.56270       -0.41366        0.28697
C          0.17709       -0.19542        0.16484
C         -1.03871       -1.06426        0.38852
C         -1.01392       -2.37543        0.76719
C         -2.19660       -3.17436        0.96897
N         -3.15073       -3.81041        1.12929
C          0.21821       -3.07660        1.00749
N          1.18764       -3.67484        1.20940
C         -2.23450       -0.16059        0.12065
C         -3.57100       -0.42939        0.18985
C         -4.68080        0.54586       -0.10672
C         -4.77405        1.95248        0.01978
C         -6.01064        2.46863       -0.35589
C         -6.91721        1.52778       -0.68848
S         -6.18797        0.02754       -0.65442
C         -8.20218        2.02304       -0.81970
C         -9.58519        1.39829       -0.84712
C        -10.39423        2.77052       -0.52215
C         -9.55149        3.89233       -0.69919
C         -8.21663        3.38234       -0.72650
S         -6.68848        4.02944       -0.37529
C         -9.99417        5.24469       -0.78004
C        -11.36718        5.50142       -0.64197
C        -12.23728        6.79085       -0.78034
C        -13.65436        6.08711       -0.81397
C        -13.44469        5.02109       -0.01738
C        -12.15445        4.46175       -0.21146
C        -11.74210        3.08949       -0.16575
S        -14.41561        5.18298        1.34231
C        -15.58148        6.01701        0.46857
C        -15.06105        6.34825       -0.78954
S        -15.91888        5.19898       -1.76266
C        -16.84882        4.39483       -0.58731
C        -16.68526        5.19430        0.56492
C        -17.24493        2.86492       -0.56180
C        -18.40071        2.39243        0.00886
C        -19.21641        1.11966        0.36778
C        -18.97904       -0.22566        0.30868
C        -19.79620       -1.15848        1.08650
N        -20.46634       -1.86860        1.71671
C        -17.88793       -0.82634       -0.39317
N        -17.02852       -1.37563       -0.93642
C        -20.47892        1.68345        0.93471
C        -21.61720        1.14664        1.52617
C        -22.56433        2.02414        2.07137
C        -22.46439        3.42395        1.84924
C        -21.37836        3.92948        1.18549
C        -20.42168        3.03086        0.82810
C        -19.15187        3.41955        0.61820
O        -18.71490        3.86833        1.65785
C        -12.00899        7.63419        0.54638
C        -10.58592        8.11653        0.91169
C         -9.87440        0.95905       -2.32498
C        -11.24800        0.30632       -2.52571
C        -11.95240        7.62799       -2.07845
C        -12.78333        8.91213       -2.26841
C         -9.53800        0.07933        0.10347
C        -10.69781       -0.92691        0.41082
H          0.23161        3.08432       -0.78849
H          2.66708        2.71854       -0.57367
H          3.51898        0.49062        0.11934
H          1.98733       -1.34740        0.58759
H         -3.91160       -1.43344        0.45083
H         -4.05405        2.60711        0.41424
H         -9.29912        6.04348       -0.98554
H        -12.48130        2.33826        0.07098
H        -16.89324        4.89152        1.56712
H        -16.53796        2.15498       -0.98093
H        -21.78450        0.10629        1.64422
H        -23.34534        1.57554        2.65707
H        -23.15703        4.16226        2.20096
H        -21.20766        4.99409        1.02292
H        -12.63043        8.54525        0.52797
H        -12.32805        7.03381        1.42482
H        -10.10401        8.73353        0.14006
H        -10.64330        8.75281        1.80974
H         -9.89813        7.32347        1.23294
H         -9.79419        1.85934       -2.99427
H         -9.15728        0.22474       -2.74098
H        -11.97937        0.77384       -1.91028
H        -11.50775        0.40544       -3.58995
H        -11.51259       -0.68693       -2.12878
H        -10.88672        7.94163       -2.08705
H        -12.14062        7.00962       -2.97874
H        -12.59827        9.66815       -1.51020
H        -12.51455        9.43925       -3.19680
H        -13.86126        8.71679       -2.32659
H         -8.81889       -0.62714       -0.34511
H         -9.10402        0.32381        1.08843
H        -11.64405       -0.54491        0.80894
H        -10.82468       -1.70324       -0.35443
H        -10.43520       -1.64351        1.20921
