63
CDTBM.sdf
C         -1.25443       -0.55186       -0.16718
C          5.60328        2.15184       -0.16249
C          6.23922        1.28298       -1.08906
C          7.65568        1.22558       -1.17496
C          8.45285        2.03591       -0.34924
C          7.79556        2.91879        0.53760
C          6.39968        2.97732        0.62589
N          5.57623        0.47604       -1.96549
S          6.79298       -0.26300       -2.79474
N          8.15537        0.37177       -2.11078
C          9.94172        1.92227       -0.41855
C         10.84139        2.90551       -0.17772
C         -2.00568       -1.89450       -0.16739
C         -1.53407       -2.98647       -0.97495
C         -2.22193       -4.25092       -1.04901
C         -3.39945       -4.49479       -0.29963
C         -3.82961       -3.41805        0.51039
C         -3.16262       -2.16389        0.58619
N         -0.40655       -2.92232       -1.73850
S         -0.32573       -4.39140       -2.46724
N         -1.65454       -5.17366       -1.87795
C         -4.13512       -5.84560       -0.37373
C         12.25310        2.64334       -0.29754
C         10.49154        4.26474        0.15007
C         -5.27870       -6.26403        0.27078
C         -5.83432       -7.59362        0.07005
C         -6.05865       -5.48520        1.19945
N         -6.32590       -8.63867       -0.04852
N         -6.70899       -4.88874        1.94961
N         10.23358        5.36148        0.41414
N         13.39262        2.46310       -0.38522
C         -1.53465        0.87750        0.03208
C         -0.31263        1.67065        0.11624
C          0.70473        0.84698       -0.11597
S          0.37993       -0.69095       -0.39871
C          0.35094        3.08811        0.48277
C          1.87474        2.69592        0.32457
C          1.91814        1.40816       -0.01343
C          3.21787        3.17531        0.36994
C          4.13910        2.14665       -0.00013
S          3.35471        0.70169       -0.25331
C         -0.02106        3.36513        1.97225
C          0.11395        4.34205       -0.46051
C         -1.51832        3.45302        2.33317
C          0.80062        5.68751       -0.02546
H          8.34408        3.54649        1.21347
H          5.94349        3.63766        1.35090
H         10.32810        0.94458       -0.70538
H         -4.70685       -3.52162        1.09743
H         -3.57676       -1.40268        1.22990
H         -3.68826       -6.59035       -1.03242
H         -2.52219        1.28714        0.20329
H          3.53631        4.18591        0.57482
H          0.37629        2.52802        2.58784
H          0.45714        4.30187        2.30186
H          0.54516        4.10491       -1.45873
H         -0.96228        4.56098       -0.59316
H         -2.02672        2.46443        2.27726
H         -1.59954        3.76027        3.39941
H         -2.06071        4.19729        1.71520
H          1.88155        5.59114        0.19314
H          0.73268        6.44996       -0.83669
H          0.32993        6.15999        0.86366
