97
CH1007.sdf
C          0.35774       -2.31620       -1.42930
O          0.84677       -3.29851       -1.97897
C         -0.84946       -1.86433       -2.02135
C         -2.05310       -2.55403       -2.02114
C         -3.11074       -2.02570       -2.73027
F         -4.28867       -2.70170       -2.73275
C         -2.92845       -0.83475       -3.46083
F         -3.96285       -0.36336       -4.19029
C         -1.67578       -0.15444       -3.45519
C         -0.62310       -0.68738       -2.69279
C          0.80985       -0.29686       -2.42034
C          1.63461        0.46835       -3.17629
C          3.02995        0.64628       -2.86236
N          4.15553        0.81437       -2.65135
C          1.18855        0.91082       -4.47481
N          0.78810        1.24736       -5.50728
C          1.17671       -1.12521       -1.22685
C          1.98813       -0.87328       -0.12894
C          2.11066       -1.77053        1.13783
Se         1.84829       -3.60064        1.08181
C          2.17640       -3.73614        2.92049
C          2.54717       -2.49342        3.36646
C          2.45589       -1.40908        2.47221
C          2.63554       -0.00490        2.98161
C          4.08040        0.43100        2.92250
S          2.94572       -2.50278        5.01932
C          2.37281       -4.02684        5.22369
C          2.00861       -4.62005        4.08512
N          1.51321       -5.86536        4.38447
C          1.31350       -6.82478        3.28276
C          2.14527       -8.04066        3.46393
C          1.33604       -5.87847        5.80712
C          2.01809       -4.73782        6.29978
C          2.13810       -4.31786        7.63099
N          2.74835       -3.16999        8.04330
S          2.44537       -3.16675        9.66970
N          1.55591       -4.54477        9.88590
C          1.50111       -5.06089        8.62535
C          0.71459       -6.13961        8.22143
C          0.54879       -6.59951        6.86125
N         -0.56763       -7.47132        6.86422
C         -1.41650       -8.18272        5.85330
C         -0.94315       -9.53140        5.50614
C         -1.06586       -7.31495        8.13317
C         -0.25153       -6.69575        8.97855
S         -0.90655       -6.32784       10.48565
C         -2.44498       -6.81199        9.95018
C         -2.36508       -7.31876        8.66357
Se        -3.91538       -7.08591        7.76753
C         -4.11196       -5.63386        8.91670
C         -3.58401       -6.02913       10.17515
C         -4.66285       -6.81778       10.93338
C         -5.94622       -6.01585       11.20025
C         -3.59569       -4.39839        8.18048
C         -4.45639       -3.65442        7.41949
C         -4.20056       -2.67981        6.31669
C         -3.49125       -1.51438        6.27432
C         -3.59837       -0.61219        5.14607
N         -3.65951        0.14021        4.26632
C         -2.72099       -0.95936        7.36112
N         -2.08568       -0.42683        8.17033
C         -5.17167       -3.10493        5.28196
C         -5.13099       -3.04758        3.88276
C         -6.21034       -3.59991        3.16186
F         -6.15730       -3.67588        1.80872
C         -7.34029       -4.10311        3.83952
F         -8.37764       -4.62475        3.13908
C         -7.37112       -4.13351        5.23992
C         -6.24437       -3.69133        5.92595
C         -5.90641       -3.87905        7.32717
O         -6.61950       -4.38866        8.17407
H         -2.17914       -3.48910       -1.49037
H         -1.54271        0.74998       -4.02183
H          2.52792        0.06406       -0.12287
H          2.04359        0.72413        2.42059
H          2.26166        0.02737        4.02978
H          4.58769        0.47464        1.93705
H          4.27824        1.37646        3.43763
H          4.57012       -0.33769        3.47512
H          0.48233       -7.37142        3.28834
H          1.39950       -6.39428        2.28260
H          2.04736       -8.29009        4.51145
H          1.89653       -8.95646        2.85781
H          3.16091       -7.77075        3.32815
H         -2.42314       -8.38598        6.21898
H         -1.48847       -7.69082        4.89012
H         -0.85256      -10.16190        6.39814
H         -1.53046      -10.06433        4.74101
H         -0.10310       -9.17851        4.97014
H         -4.95546       -7.71160       10.34455
H         -4.28991       -7.18209       11.91379
H         -6.37151       -5.63752       10.24646
H         -6.70271       -6.65219       11.69625
H         -5.75172       -5.17337       11.89269
H         -2.51951       -4.25389        8.05375
H         -4.26071       -2.66734        3.36321
H         -8.21559       -4.56236        5.76250
