134
COi6FIC.sdf
C          0.17827        0.42861       -1.40836
C         -0.37523       -0.19235       -2.50195
C         -1.69675        0.10346       -3.08730
C         -1.87444       -0.59828       -4.29320
C         -0.83372       -1.45733       -4.52004
C          0.17341       -1.29533       -3.40061
O         -2.62878        0.69419       -2.58113
C          1.30789       -2.03003       -3.25214
C          2.21975       -1.87833       -2.13877
C          1.69262       -3.03292       -4.22329
N          2.98472       -1.80445       -1.27142
N          2.03616       -3.84510       -4.97581
C         -2.99779       -0.48237       -5.09420
C         -3.10221       -1.29984       -6.19956
C         -2.07752       -2.21888       -6.47534
C         -0.93343       -2.30405       -5.64374
C         -1.68145       11.42263        7.89264
C         -2.22566       12.45557        7.17292
C         -2.82226       12.41593        5.80633
C         -3.00188       13.73984        5.33956
C         -2.71671       14.65347        6.32756
C         -2.29783       13.91750        7.57628
O         -3.17508       11.45822        5.14087
C         -2.09027       14.48009        8.80861
C         -1.83530       13.70904       10.01018
C         -2.18020       15.89949        9.01464
N         -1.63127       13.05535       10.94570
N         -2.24152       17.03482        9.22759
C         -3.42639       14.07261        4.06303
C         -3.58990       15.40916        3.75299
C         -3.33329       16.38254        4.73179
C         -2.89648       16.01470        6.02474
C         -2.05951        1.15459        3.56275
C         -3.66898        3.15256        2.64336
C         -2.88138        1.03337        4.67192
C         -2.97143       -0.03710        5.54472
C         -2.18310       -1.15392        5.38532
C         -1.33787       -1.14706        4.28328
C         -1.27853       -0.03627        3.41192
C         -3.90343        4.26978        1.88660
C         -5.03134        5.02332        1.65232
C         -6.21065        4.56509        2.15458
C         -6.16706        3.38516        2.88959
C         -4.95211        2.71420        3.15132
C         -2.24068       -2.30857        6.37203
C         -3.23342       -2.05847        7.51020
C         -7.48885        5.29504        1.88924
C         -8.49331        4.41858        1.14479
C         -4.84255        6.79875        7.37770
C         -2.61203        5.27596        7.20278
C         -5.21755        6.14745        8.60895
C         -6.46971        6.29874        9.23257
C         -7.45666        7.10939        8.69243
C         -7.16693        7.74774        7.48980
C         -5.90883        7.60372        6.86291
C         -1.43705        5.24868        8.02792
C         -0.75026        4.11046        8.46709
C         -1.22821        2.86237        8.17851
C         -2.39549        2.78913        7.45089
C         -3.04878        3.93852        6.95413
C         -8.79094        7.27729        9.39539
C         -8.78129        8.44827       10.38272
C         -0.51282        1.61423        8.62907
C         -1.37147        0.74559        9.53820
C         -0.46306        1.55640       -0.62349
S         -0.30528        3.22664       -0.81228
C         -1.15699        3.66790        0.58771
C         -1.54850        2.49565        1.25780
C         -1.19754        1.38437        0.52704
C         -1.01230        4.93156        1.35252
C         -0.69325        4.69067        2.64597
O         -1.11429        3.48473        3.27577
C         -2.09923        2.55503        2.71348
S         -1.97761        6.41039        1.44214
C         -1.73536        6.54620        3.12832
C         -0.55950        5.90575        3.28271
C         -2.19387        6.79486        4.46646
C         -1.05728        7.10200        5.15755
S          0.31114        6.36962        4.59837
O         -3.41278        6.77678        5.19668
C         -3.36230        6.66282        6.67123
C         -2.40472        7.86911        6.96848
C         -1.21427        7.92391        6.28156
C         -2.55852        9.05167        7.66985
C         -1.57609       10.01285        7.44272
S         -0.38846        9.37851        6.44631
F         -2.20662       -3.03682       -7.54290
F         -3.51481       17.68505        4.42366
H          1.17319        0.13787       -1.06902
H         -3.78201        0.22311       -4.84132
H         -3.98812       -1.21939       -6.81436
H         -0.18935       -3.03322       -5.88871
H         -1.24380       11.61019        8.85475
H         -3.62420       13.29865        3.33036
H         -3.92305       15.66998        2.75820
H         -2.71862       16.79287        6.73738
H         -3.49208        1.80138        4.90501
H         -3.66858        0.06157        6.36188
H         -0.69988       -1.99226        4.08852
H         -0.57477       -0.22950        2.68036
H         -3.19411        4.53605        1.37141
H         -4.96110        5.92773        1.04566
H         -7.07027        2.95160        3.26857
H         -5.18821        1.86443        3.73243
H         -2.52814       -3.23864        5.84654
H         -1.24464       -2.46184        6.84371
H         -4.25677       -1.86121        7.11289
H         -3.28435       -2.90916        8.20635
H         -2.87557       -1.18533        8.06810
H         -7.91574        5.61151        2.86081
H         -7.28477        6.20101        1.27955
H         -8.73180        3.50696        1.73211
H         -9.43497        4.98405        0.99383
H         -8.09088        4.12117        0.15281
H         -4.59289        5.51504        9.18787
H         -6.65106        5.77191       10.16016
H         -7.90798        8.37497        7.01418
H         -5.84601        8.16881        5.96881
H         -0.96775        6.07079        8.41454
H          0.15317        4.20666        9.05841
H         -2.79666        1.81815        7.26414
H         -3.89186        3.66700        6.38820
H         -9.59184        7.43850        8.64432
H         -9.03594        6.34846        9.95821
H         -8.60440        9.40601        9.85385
H         -9.76391        8.53034       10.89560
H         -7.99568        8.29665       11.15291
H         -0.23762        1.01803        7.73778
H          0.43140        1.85509        9.16136
H         -2.32026        0.45724        9.05812
H         -0.77989       -0.16046        9.78612
H         -1.64185        1.27789       10.46825
H         -1.42842        0.46538        0.86143
H         -3.39990        9.27302        8.23156
