96
CPIC-2.sdf
C          6.58633       -4.54661       -0.02797
O          5.51510       -4.08065        0.31322
C          7.39202       -3.92307       -1.01231
C          7.19857       -2.66804       -1.56424
C          8.17636       -2.18756       -2.43128
C          9.31342       -2.97129       -2.71382
C          9.45110       -4.25793       -2.16616
C          8.45573       -4.72974       -1.31667
C          8.31810       -6.01551       -0.59736
C          8.86761       -7.20335       -0.96204
C          8.63847       -8.43775       -0.25945
N          8.47689       -9.44940        0.27755
C          9.60578       -7.31953       -2.19596
N         10.19416       -7.38117       -3.19078
C          7.32198       -5.74758        0.47336
C          7.16467       -6.44922        1.62204
C          0.34048        2.35451       15.36324
O          0.94492        3.02550       14.54866
C         -0.22474        2.87768       16.59101
C         -0.21167        4.19596       17.03949
C         -0.74851        4.46784       18.30300
C         -1.28208        3.42482       19.08782
C         -1.32181        2.10564       18.59795
C         -0.78942        1.84756       17.33501
C         -0.74183        0.60940       16.53035
C         -1.54838       -0.49928       16.60321
C         -1.53595       -1.46602       15.51418
N         -1.47053       -2.19338       14.61272
C         -2.53485       -0.73160       17.64006
N         -3.33557       -0.95414       18.44853
C          0.23843        0.89202       15.44931
C          0.90709       -0.06994       14.80062
C          3.82295       -3.35210        7.48690
S          4.16551       -2.83400        5.91992
C          4.29761       -4.40669        5.45790
C          4.02562       -5.35100        6.40029
C          3.74231       -4.75760        7.61496
C          4.88435       -5.00569        4.35849
C          4.93674       -6.32043        4.57723
C          4.26304       -6.76414        5.85646
S          5.73774       -4.50175        3.03390
C          6.21732       -6.09166        2.68823
C          5.67536       -6.97094        3.63799
C          2.93099       -7.52077        5.48691
C          2.08647       -8.05919        6.65376
C          5.25363       -7.62969        6.71028
C          6.56442       -6.95589        7.15465
F         -1.77029        3.69713       20.32169
F         -0.74070        5.73928       18.77399
F          8.03777       -0.95476       -2.97086
F         10.28776       -2.48169       -3.51144
C          1.81247       -0.01285       13.66111
S          2.42894       -1.49475       13.17371
C          3.01577       -0.80339       11.81848
C          2.86175        0.52699       11.66941
C          2.12807        1.02977       12.74893
C          3.42205       -1.37623       10.64678
C          3.64750       -0.43906        9.71841
C          3.43984        0.95741       10.29948
S          3.40336       -2.93644       10.13619
C          3.74359       -2.41275        8.57591
C          3.90319       -1.01298        8.48282
C          4.81237        1.70599       10.43496
C          5.86386        1.03661       11.34381
C          2.39631        1.70409        9.39784
C          1.00260        1.07146        9.27418
H          6.32951       -2.07370       -1.29863
H         10.33016       -4.84246       -2.37116
H          7.83111       -7.27969        1.84294
H          0.21201        4.98946       16.43320
H         -1.74054        1.31420       19.19946
H          0.79366       -1.08519       15.17937
H          3.58986       -5.29100        8.54506
H          5.80217       -8.01255        3.73620
H          2.26652       -6.82051        4.93317
H          3.14050       -8.38310        4.81206
H          1.84626       -7.27053        7.38555
H          1.11460       -8.43122        6.26700
H          2.56042       -8.91251        7.17926
H          4.75821       -7.96974        7.64076
H          5.54106       -8.53459        6.12686
H          6.38934       -6.17422        7.91254
H          7.22038       -7.69123        7.65618
H          7.14253       -6.53973        6.31141
H          1.76101        2.03029       12.78853
H          4.10591       -0.47513        7.56645
H          5.27806        1.77470        9.43447
H          4.66998        2.73226       10.82648
H          6.05717        0.00064       11.07538
H          6.83929        1.52761       11.23372
H          5.62048        1.07894       12.41548
H          2.21897        2.72682        9.78442
H          2.80394        1.78534        8.36786
H          0.41716        1.15164       10.19768
H          0.41050        1.58853        8.50845
H          1.01619        0.03489        8.94917
