150
CRIC-4F.sdf
C         -0.19431        2.54948        0.80819
C         -0.12059        4.07593        1.34813
C         -1.21724        4.95459        1.54663
C         -1.49894        6.13652        2.47710
C         -2.46178        5.56664        3.39630
C         -3.09175        4.54682        2.69923
C         -2.53716        4.44516        1.36607
C         -2.80295        5.85480        4.71884
C         -3.74816        5.03066        5.34310
C         -4.34764        3.96660        4.63506
C         -4.03463        3.73796        3.28958
O         -2.98839        3.83880        0.40753
C         -1.40103        7.54586        2.40877
C         -2.08766        8.43923        3.32846
C         -0.62047        8.30587        1.44077
N         -2.69461        9.08863        4.13242
N         -0.28509        9.09169        0.65670
C         -2.01438      -10.10459       -7.19682
C         -1.36920      -11.19843       -7.72785
C          0.04163      -11.53668       -7.56787
C          0.50539      -11.77347       -8.92364
C         -0.58736      -12.22210       -9.64226
C         -1.80899      -12.05403       -8.82965
C          1.76959      -11.64364       -9.48589
C          1.92272      -12.00495      -10.82548
C          0.83220      -12.53160      -11.55091
C         -0.43858      -12.64983      -10.95470
O         -2.95221      -12.27271       -9.19439
C          0.73477      -11.71758       -6.38736
C          2.12896      -11.89925       -6.44928
C         -0.02418      -11.68223       -5.16831
N          3.31153      -12.05485       -6.49065
N         -0.63428      -11.65312       -4.19944
S          1.02406        1.51034        0.04312
C          0.09126        0.03316       -0.24473
C         -1.16235        0.37206        0.33626
C         -1.31451        1.67212        0.89929
C          0.12208       -1.31640       -1.18274
C         -1.05556       -1.37697       -1.96275
C         -2.17034       -0.72658       -1.42856
C         -2.24041       -0.67262        0.19475
C         -1.65848       -2.05730        1.04230
C         -3.77822       -0.43451        0.62609
C         -1.25848       -2.16800       -3.12935
C         -2.28595       -1.79190       -4.00918
C         -3.03201       -0.65822       -3.71263
C         -3.02098       -0.15477       -2.40530
C          1.01280       -2.42580       -1.45463
C          0.61735       -3.51028       -2.39522
C         -0.48521       -3.31652       -3.30563
C          1.19230       -4.82574       -2.44231
C          0.90783       -5.67521       -3.54020
C         -0.20009       -5.52596       -4.38031
C         -0.92097       -4.34741       -4.23581
C          1.90773       -5.43210       -1.36776
C          2.13411       -6.83737       -1.39458
C          2.01601       -7.53725       -2.59807
C          1.65623       -6.81184       -3.75673
C          1.93309       -7.22451       -5.25561
C          0.48063       -7.74594       -5.42658
C         -0.58540       -6.84890       -5.12067
C          3.52142       -7.58853       -4.99580
C          1.91187       -6.10744       -6.53178
C          0.07364       -8.84303       -6.14767
C         -1.31922       -8.99296       -6.38493
S         -2.03213       -7.54617       -5.77803
C          4.15142       -8.85133       -4.72494
C          5.53760       -8.92388       -4.37580
C          6.35551       -7.78360       -4.36038
C          5.80929       -6.57767       -4.65421
C          4.44605       -6.48474       -4.84898
C          3.02426       -5.35942       -7.05759
C          2.98362       -4.44414       -8.06331
C          1.85297       -4.23609       -8.79052
C          0.74102       -4.98322       -8.46874
C          0.76354       -5.87362       -7.39575
C         -1.13138       -3.22049        0.37760
C         -0.49461       -4.32020        1.01138
C         -0.41095       -4.44071        2.38602
C         -1.02076       -3.42640        3.13013
C         -1.60699       -2.26420        2.50291
C         -4.43629       -1.46594        1.36065
C         -5.80345       -1.47119        1.62466
C         -6.62529       -0.43590        1.21811
C         -6.03106        0.66020        0.56450
C         -4.63446        0.66335        0.25241
C          0.27222       -5.66741        2.99492
C          1.45733       -5.29073        3.88357
C         -8.10434       -0.55400        1.51325
C         -8.44242        0.01292        2.88484
C          1.84687       -3.28326       -9.93775
C          3.19755       -2.58834      -10.15799
C          7.78945       -7.76361       -3.98501
C          8.56754       -7.93277       -5.26683
F         -4.06027        5.24331        6.64340
F         -5.21458        3.13804        5.25815
F          1.00057      -12.88576      -12.84603
F          3.12796      -11.84083      -11.42126
H          0.82292        4.43017        1.75987
H         -2.33349        6.65686        5.27635
H         -4.46004        2.92153        2.72711
H         -3.04860       -9.94655       -7.52070
H          2.60376      -11.23706       -8.93038
H         -1.28501      -13.02163      -11.51295
H         -2.25868        1.92078        1.35474
H         -2.47034       -2.29471       -4.95165
H         -3.70577       -0.25798       -4.45401
H         -3.67016        0.66930       -2.20280
H          1.94380       -2.48889       -0.91246
H         -1.83652       -4.28303       -4.80748
H          2.11925       -4.90660       -0.44413
H          2.48195       -7.37466       -0.51651
H          2.27659       -8.59605       -2.63547
H          0.87598       -9.42090       -6.49300
H          3.61361       -9.78331       -4.67207
H          5.98365       -9.86359       -4.10917
H          6.42197       -5.67762       -4.68893
H          4.20625       -5.42447       -4.88301
H          4.03874       -5.39537       -6.81296
H          3.91701       -3.93782       -8.24671
H         -0.15846       -4.89628       -9.05163
H         -0.17782       -6.37261       -7.35168
H         -1.13818       -3.31029       -0.69634
H         -0.06348       -5.09599        0.38668
H         -1.03282       -3.55143        4.20616
H         -2.03605       -1.57438        3.22154
H         -3.93970       -2.35551        1.72782
H         -6.21439       -2.32168        2.15244
H         -6.65539        1.50345        0.28993
H         -4.26033        1.52547       -0.29200
H         -0.46959       -6.23812        3.58762
H          0.65849       -6.35609        2.19939
H          1.12187       -4.64777        4.72209
H          1.91703       -6.20694        4.31790
H          2.23120       -4.75483        3.29203
H         -8.68579       -0.05444        0.71806
H         -8.40608       -1.63377        1.50505
H         -8.17816        1.08835        2.91722
H         -9.53221       -0.09960        3.07435
H         -7.88779       -0.53399        3.68113
H          1.58020       -3.84999      -10.85472
H          1.07302       -2.52122       -9.73363
H          3.98217       -3.34307      -10.40791
H          3.12818       -1.86049      -10.97857
H          3.49610       -2.04356       -9.23218
H          8.05451       -6.77548       -3.51541
H          7.98469       -8.54077       -3.22114
H          8.32424       -7.10541       -5.97580
H          9.64454       -7.91557       -5.03946
H          8.27589       -8.89574       -5.73640
