83
CTIC-4F.sdf
C          3.03837        3.39794        2.43007
O          2.65217        4.48545        2.04501
C          4.23541        3.19237        3.19977
C          5.27646        4.07168        3.44609
C          6.46298        3.53825        3.97205
C          6.56757        2.15506        4.24128
C          5.45730        1.31391        4.07180
C          4.28905        1.87381        3.56561
C          3.03346        1.23007        3.19727
C          2.38180        0.25903        3.87405
C          1.13320       -0.32939        3.43966
N          0.13282       -0.81834        3.12009
C          2.86625       -0.10040        5.18587
N          3.28145       -0.36613        6.23270
C          2.57947        2.02702        2.06528
C          2.04006        1.52918        0.93813
C          1.79790        2.31481       -0.28582
C          1.24385        1.80831       -1.44837
C          1.11003        2.72462       -2.46603
C          1.57320        3.98673       -2.11840
S          2.15472        3.94139       -0.54868
C          1.47837        6.46799       -4.92724
C          1.96830        7.23425       -3.94975
C          2.43124        8.60236       -4.54174
C          3.95947        8.71518       -4.21433
C          4.92260        7.64126       -4.75138
C          1.63806        9.89342       -4.06409
C          1.65453       10.20894       -2.54599
C          2.09403        8.31680       -6.03902
C          1.54121        7.08991       -6.12004
C          1.43504        8.08807       -9.65365
C          1.45579        7.04733      -10.55684
C          1.21074        7.49846      -11.81525
C          1.01572        8.83872      -11.89180
S          1.13050        9.55278      -10.39845
C          0.73657        9.54007      -13.09087
C          0.08503        8.97607      -14.12135
C         -1.41316        9.22615      -13.99868
C         -2.36570        8.44418      -13.34510
C         -3.70771        8.95252      -13.25943
N         -4.77571        9.39442      -13.20956
C         -2.18904        7.10577      -12.72670
N         -2.09754        6.05494      -12.22832
C         -1.67136       10.53029      -14.72980
C         -2.77391       11.41314      -14.79411
C         -2.68543       12.58893      -15.55860
C         -1.51347       12.89721      -16.25925
C         -0.43183       12.01818      -16.21817
C         -0.54876       10.85183      -15.46072
C          0.45761        9.85208      -15.25323
O          1.58800        9.93185      -15.71850
S          1.10183        6.49814       -7.56907
C          1.60393        7.93232       -8.24976
C          2.13469        8.86436       -7.32803
C          2.01001        6.47234       -2.76489
C          1.55757        5.14304       -3.00932
S          1.05127        4.92444       -4.58873
F         -3.73762       13.44256      -15.60228
F         -1.42455       14.05246      -16.96417
F          7.53214        4.34690        4.15555
F          7.75131        1.62848        4.63613
H          5.19891        5.11341        3.16687
H          5.53197        0.24704        4.24424
H          1.89436        0.45172        0.87983
H          0.91491        0.82131       -1.59697
H          0.67829        2.44541       -3.42056
H          4.35464        9.66628       -4.59568
H          4.06654        8.69991       -3.10534
H          5.08356        7.75389       -5.83742
H          5.92164        7.79705       -4.29615
H          4.61807        6.61205       -4.50581
H          2.07490       10.78686       -4.56743
H          0.56493        9.84120       -4.37682
H          2.66871       10.25861       -2.13621
H          1.20991       11.20306       -2.34172
H          1.07619        9.50627       -1.91946
H          1.63255        6.00428      -10.34041
H          1.16444        6.87422      -12.65568
H          0.39225       10.52935      -12.80017
H         -3.69513       11.27546      -14.27289
H          0.48461       12.25395      -16.74318
H          2.50466        9.84043       -7.61312
H          2.42260        6.79480       -1.82169
