111
DBS-2DPP.sdf
C          0.32075       -2.25440        0.28292
C         -0.42920       -1.27649       -0.36432
C          0.23594       -0.04881       -0.48924
C          1.53312       -0.06579        0.01711
S          1.82931       -1.59885        0.64070
C          2.50376        1.05069        0.00135
C          3.88757        0.77897        0.07510
C          4.82439        1.81724        0.02610
C          4.37721        3.13961       -0.06868
C          3.01576        3.41379       -0.11286
C          2.06851        2.38880       -0.09271
Si         2.72503        5.22109       -0.17577
C          1.84215        5.81423       -1.71267
C          0.41904        5.27897       -1.77408
C          1.91516        5.83464        1.40850
C          1.80932        7.35345        1.44619
C          4.52372        5.54410       -0.22753
C          5.22719        4.34301       -0.13689
C          6.61934        4.34840       -0.12707
C          7.29485        5.56352       -0.20929
C          6.59528        6.78942       -0.32441
C          5.18543        6.77414       -0.33806
C          7.37299        8.04588       -0.45062
C          8.68655        8.19314       -0.06213
C          9.22980        9.43983       -0.33948
C          8.38438       10.34704       -0.99139
S          6.90136        9.51539       -1.12424
C         -0.11598       -3.64002        0.57343
N          0.29200       -4.42118        1.62543
C         -0.32885       -5.64331        1.50395
C         -1.12544       -5.65020        0.38522
C         -0.98118       -4.39178       -0.20102
C          1.17428       -4.05243        2.73815
C          2.55747       -4.66292        2.55099
O         -0.18317       -6.56708        2.28461
C         -1.98557       -6.40482       -0.39880
N         -2.36119       -5.62815       -1.47433
C         -1.74067       -4.40498       -1.33873
O         -1.85991       -3.47934       -2.12146
C         -3.28318       -5.94249       -2.57522
C         -2.53854       -6.01122       -3.90799
C         -2.39341       -7.80579       -0.08727
C         -2.81781       -8.81072       -0.96053
C         -3.12673      -10.01910       -0.32214
C         -2.94998       -9.98788        1.05123
S         -2.38923       -8.46318        1.46608
C          8.64099       11.74348       -1.55307
N          9.81188       12.51015       -1.65353
C          9.46978       13.67338       -2.31314
C          8.14784       13.69664       -2.64345
C          7.61951       12.49877       -2.16229
C         11.25620       12.42864       -1.29574
C         11.80985       11.23161       -0.58361
O         10.26840       14.55686       -2.57146
C          7.15401       14.44842       -3.27588
N          5.98532       13.71582       -3.16962
C          6.28362       12.54886       -2.49415
O          5.45665       11.69667       -2.22703
C          4.61816       14.01643       -3.62498
C          4.14518       13.02161       -4.68583
C          7.39991       15.79089       -3.94010
C          6.54756       16.65746       -4.65152
C          7.16671       17.82285       -5.13362
C          8.50951       17.91619       -4.83137
S          8.91010       16.54980       -3.96521
H         -1.43964       -1.42535       -0.71614
H         -0.21573        0.81221       -0.96260
H          4.25086       -0.23867        0.14062
H          5.87868        1.57968        0.05969
H          1.01580        2.63171       -0.12659
H          1.82651        6.92421       -1.69675
H          2.40632        5.47401       -2.60518
H         -0.15938        5.59767       -0.88093
H         -0.08271        5.67059       -2.68252
H          0.42849        4.17103       -1.83137
H          0.89959        5.39476        1.49123
H          2.52379        5.48611        2.27054
H          1.17463        7.71553        0.61052
H          1.34114        7.66797        2.40323
H          2.81460        7.81868        1.37625
H          7.18779        3.43128       -0.06396
H          8.37421        5.52580       -0.21519
H          4.61729        7.69188       -0.41876
H          9.26959        7.42118        0.41993
H         10.22392        9.54599       -0.04218
H          1.27475       -2.95688        2.82171
H          0.71938       -4.38694        3.69667
H          3.00929       -4.27389        1.61334
H          3.20815       -4.37580        3.40330
H          2.49618       -5.76846        2.49342
H         -3.81096       -6.89168       -2.40978
H         -4.07576       -5.16634       -2.62230
H         -1.75709       -6.79948       -3.86637
H         -3.25097       -6.25565       -4.72348
H         -2.05748       -5.04029       -4.14566
H         -2.88614       -8.72009       -2.03165
H         -3.46578      -10.89910       -0.85237
H         -3.13110      -10.80811        1.73291
H         11.84756       12.52075       -2.23481
H         11.50242       13.30387       -0.65237
H         11.70664       10.33808       -1.23456
H         12.89925       11.37383       -0.42729
H         11.36242       11.17647        0.43058
H          3.92815       13.99701       -2.75551
H          4.52923       15.00864       -4.05153
H          4.11139       11.98851       -4.28558
H          3.11979       13.29109       -5.01649
H          4.82286       13.04676       -5.56493
H          5.51099       16.52867       -4.86644
H          6.64226       18.58292       -5.69722
H          9.17699       18.72218       -5.10655
