99
DBT-4F.sdf
C          1.72427        1.77415        5.92367
O          2.45964        1.33734        6.78029
C          0.94190        2.79016        6.42470
C          0.10700        2.69758        7.53145
C         -0.63187        3.82039        7.85371
C         -0.49484        4.98014        7.07135
C          0.40762        5.02498        5.99386
C          1.16044        3.90102        5.68444
C          2.13115        3.60705        4.57946
C          2.76232        4.53894        3.82793
C          3.50073        4.21753        2.61787
N          4.09565        3.98349        1.64886
C          2.68042        5.91998        4.29195
N          2.53789        6.96916        4.77109
C          2.15182        2.12681        4.53892
F         -1.26074        6.05677        7.33175
C          2.38239        1.31267        3.45470
F         -1.50804        3.77139        8.88377
C         -1.66586      -11.28547       13.67813
O         -1.91850      -10.29468       13.03396
C         -1.80340      -11.28952       15.09126
C         -1.99509      -10.17897       15.90599
C         -2.06262      -10.37694       17.28411
C         -1.95112      -11.67506       17.81444
C         -1.78646      -12.78526       16.96210
C         -1.71238      -12.57653       15.57233
C         -1.55856      -13.52105       14.41498
C         -1.69916      -14.87122       14.45853
C         -1.65413      -15.70349       13.27592
N         -1.62705      -16.40924       12.35731
C         -2.02718      -15.57103       15.68005
N         -2.29142      -16.19588       16.61875
C         -1.32128      -12.64460       13.20776
F         -1.99975      -11.85556       19.15673
C         -0.85371      -12.99996       11.97594
F         -2.22199       -9.30969       18.10378
C         -0.52172      -12.05352       10.87771
S         -1.25405      -10.53749       10.60907
C         -0.31659      -10.15912        9.34195
C          0.52796      -11.15927        9.04115
C          0.43936      -12.27223        9.86033
C         -0.06420       -9.16214        8.47117
C          0.91581       -9.59784        7.64536
N          1.31188      -10.85202        7.97756
S         -0.52212       -7.61871        8.13174
C          0.60706       -7.47432        6.84771
C          1.32815       -8.68467        6.68041
C          0.79172       -6.21272        6.09360
C          0.07170       -5.02402        6.36680
C          0.39219       -3.87077        5.62485
C          1.37212       -3.88513        4.61646
C          2.05160       -5.08430        4.31679
C          1.74957       -6.21929        5.07743
C          1.69524       -2.61103        3.94281
O         -0.86888       -5.00618        7.35913
C          2.38270      -11.65503        7.39002
C          1.85648      -12.49349        6.23182
O          3.02051       -5.10817        3.35059
C          3.77718       -6.20424        2.94957
C          5.04934       -6.30303        3.78720
C         -1.24622       -3.91310        8.12593
C         -0.39057       -3.81808        9.38943
C          2.13435       -2.42711        2.64543
C          2.39705       -1.08253        2.33638
C          2.18655       -0.18218        3.40479
S          1.62655       -1.10157        4.68763
C          2.84689       -0.74094        0.96595
C          4.16532       -1.45444        0.60793
H          0.00425        1.76767        8.09121
H          0.44568        5.90348        5.39559
H          2.62789        1.80099        2.52418
H         -2.06855       -9.18576       15.47844
H         -1.70217      -13.76165       17.40532
H         -0.63548      -14.02772       11.75122
H          1.05699      -13.13980        9.70959
H          2.11411       -8.86785        5.95876
H         -0.11850       -2.94285        5.82027
H          2.26416       -7.13544        4.88016
H          3.19755      -10.98862        7.03298
H          2.81198      -12.32881        8.16497
H          1.44282      -11.84201        5.43357
H          2.68409      -13.09811        5.80352
H          1.06177      -13.18373        6.58655
H          3.21331       -7.13618        3.07387
H          4.02473       -6.14945        1.86341
H          4.77692       -6.45324        4.85400
H          5.65455       -7.17339        3.45362
H          5.66651       -5.38324        3.69720
H         -1.11305       -2.98523        7.55524
H         -2.32986       -3.96998        8.38852
H          0.67343       -3.68809        9.10208
H         -0.70136       -2.93498        9.98939
H         -0.48930       -4.72922       10.01569
H          2.26604       -3.21602        1.91193
H          1.90189       -0.81248        0.44142
H          3.01567        0.28864        0.74390
H          4.16990       -2.44723        0.94442
H          4.46550       -1.43344       -0.45757
H          4.99736       -1.20601        1.27537
