106
DF-PCIC.sdf
C         -3.41083        2.40777       -3.11977
O         -4.46864        1.81618       -3.24286
C         -2.32189        2.24919       -4.04027
C         -2.28014        1.38495       -5.13094
C         -1.12740        1.35700       -5.91387
C         -0.04497        2.19126       -5.59515
C         -0.11082        3.06244       -4.49281
C         -1.27711        3.08823       -3.70326
C         -1.65129        3.89307       -2.48908
C         -0.88118        4.86457       -1.90197
C         -1.26882        5.63179       -0.74701
N         -1.53161        6.27525        0.17843
C          0.42876        5.23704       -2.37596
N          1.48346        5.56583       -2.72442
C         -3.03303        3.40198       -2.08697
C         -3.79580        3.81631       -1.03633
C        -12.73810       -2.97166       14.99832
O        -13.11185       -2.87791       13.85120
C        -12.98470       -4.16825       15.66352
C        -13.67549       -5.24689       15.11839
C        -13.85170       -6.36830       15.91051
C        -13.33561       -6.38183       17.21265
C        -12.64175       -5.27192       17.72529
C        -12.46263       -4.13337       16.92607
C        -11.80284       -2.79854       17.17161
C        -11.13982       -2.43092       18.31415
C        -10.50175       -1.15063       18.52257
N         -9.97625       -0.14036       18.73238
C        -10.95397       -3.36479       19.39877
N        -10.82398       -4.13941       20.25064
C        -12.03278       -2.00758       15.90441
C        -11.70158       -0.70576       15.67505
C        -11.96962        0.02551       14.42665
S        -12.03244       -0.71598       12.91682
C        -12.16227        0.72556       12.15491
C        -12.18611        1.79904       12.95592
C        -12.07409        1.42005       14.26723
C        -11.97809        1.12875       10.85136
C        -11.84831        2.47064       10.81834
C        -12.14576        3.11068       12.17015
S        -11.66510        0.34878        9.43932
C        -11.29635        1.82772        8.68758
C        -11.44986        2.91165        9.57531
C        -10.84274        1.90719        7.29857
C        -10.68856        0.72594        6.56263
C        -10.25853        0.76364        5.24968
C         -9.96108        1.99586        4.63707
C        -10.10324        3.17981        5.37795
C        -10.54188        3.14039        6.69469
C         -9.48175        2.05441        3.24876
S         -9.10120        3.51860        2.47030
C         -8.40238        2.70423        1.21351
C         -8.50519        1.34658        1.28761
C         -9.11895        0.94292        2.46028
C         -7.35256        3.02331        0.32964
C         -6.85678        1.86623       -0.16403
C         -7.67679        0.64467        0.21990
S         -6.31241        4.31683        0.12323
C         -5.15407        3.34406       -0.66862
C         -5.61668        2.02931       -0.74431
C         -8.56662        0.20213       -1.00004
C         -9.57635        1.24810       -1.50662
C         -6.78366       -0.52352        0.79438
C         -5.94785       -0.25646        2.07045
C        -10.99616        4.04658       12.67085
C         -9.60202        3.42375       12.89340
C        -13.53745        3.83310       12.07975
C        -14.02958        4.54891       13.34416
F        -10.64740        4.31389        7.36331
F        -10.11749       -0.42301        4.61254
H         -3.12292        0.74607       -5.36256
H         -1.07544        0.68822       -6.76256
H          0.84613        2.16156       -6.20577
H          0.74556        3.67742       -4.29439
H         -3.42846        4.57047       -0.36439
H        -14.07095       -5.20980       14.10491
H        -14.38748       -7.21868       15.51798
H        -13.47637       -7.25364       17.82970
H        -12.28472       -5.34798       18.72469
H        -11.21977       -0.11491       16.43706
H        -12.00618        2.15264       14.99641
H        -11.25281        3.94509        9.35697
H        -10.88523       -0.24351        6.99933
H         -9.86225        4.14228        4.94795
H         -9.17761       -0.08592        2.76764
H         -5.03403        1.21382       -1.08482
H         -7.90686       -0.04934       -1.85793
H         -9.16611       -0.70192       -0.75581
H         -9.12957        2.21556       -1.72242
H        -10.03669        0.93158       -2.45107
H        -10.40986        1.39936       -0.82590
H         -7.42689       -1.39450        1.04163
H         -6.06058       -0.84529        0.01477
H         -6.51363       -0.18162        2.98959
H         -5.31846       -1.11674        2.31557
H         -5.25455        0.58390        2.00874
H        -10.86553        4.87705       11.94691
H        -11.28074        4.48555       13.65077
H         -9.14265        2.96170       12.04547
H         -8.86972        4.19139       13.15747
H         -9.54599        2.72601       13.71939
H        -13.52628        4.60673       11.27824
H        -14.31120        3.07942       11.82039
H        -13.45071        5.42680       13.61021
H        -15.04408        4.93505       13.20447
H        -14.10631        3.92337       14.20621
