102
di-PBI.sdf
C          3.27588       -2.02285       -3.73604
C          2.56130       -1.00577       -2.83980
N          2.44910        0.36767       -3.40435
C          3.57428        1.04265       -3.84373
C          3.49196        2.38262       -4.25136
C          2.27504        3.08590       -4.13643
C          1.12651        2.38405       -3.76931
C          1.21736        1.01642       -3.42570
O          0.20612        0.42508       -3.07813
O          4.66153        0.48819       -3.85452
C          4.61559        3.03809       -4.73989
C          4.54337        4.36580       -5.08952
C          3.36438        5.12523       -4.87042
C          2.21916        4.49805       -4.36380
C          1.03516        5.24897       -4.05339
C         -0.12533        4.46101       -3.93276
C         -0.08671        3.07272       -3.77468
C          3.30219        6.48618       -5.16953
C          2.23821        7.28778       -4.64158
C          1.08854        6.71755       -3.91470
C          4.32524        7.07147       -5.95204
C          4.33118        8.40354       -6.24137
C          3.37429        9.23332       -5.68573
C          2.36321        8.68351       -4.84950
C          1.52090        9.54377       -4.19643
C          0.60428        9.01303       -3.27700
C          0.19723        7.67433       -3.08884
C          3.42282       10.60717       -5.95933
N          2.51599       11.46725       -5.37177
C          1.61665       10.94854       -4.44591
C          2.42432       12.92868       -5.68160
C          3.34220       13.48911       -6.78404
O          0.84996       11.70715       -3.88013
O          4.27688       11.02337       -6.72469
C         -5.56830        2.21036       -0.40228
C         -4.06703        2.27707       -0.05473
N         -3.59053        3.68089        0.05155
C         -2.62584        4.19198       -0.80783
C         -2.26922        5.57631       -0.78119
C         -2.86368        6.41109        0.12946
C         -3.74699        5.84531        1.09135
C         -4.10977        4.49313        1.03076
O         -4.89319        4.03568        1.85228
O         -2.11968        3.45777       -1.63470
C         -1.30137        6.10872       -1.64241
C         -1.00012        7.45441       -1.93048
C         -1.77380        8.39769       -0.98167
C         -2.56068        7.79777        0.11215
C         -3.06261        8.55808        1.22078
C         -3.89217        7.94455        2.19397
C         -4.25701        6.63327        2.10544
C         -1.81269        9.86824       -0.93425
C         -2.12354       10.56600        0.28360
C         -2.70537        9.89780        1.37254
C         -1.59917       10.71245       -2.04038
C         -1.35367       12.08016       -1.91123
C         -1.37263       12.69902       -0.66208
C         -1.83959       11.96024        0.42719
C         -2.00744       12.61325        1.66652
C         -2.56834       11.92046        2.73218
C         -2.94209       10.60462        2.58144
C         -0.96498       14.03985       -0.48241
N         -1.02532       14.63255        0.77234
C         -1.59416       13.94486        1.82683
C         -0.48484       15.99331        1.00171
C          0.70349       15.95944        1.97928
O         -1.72306       14.48801        2.91425
O         -0.51950       14.66287       -1.43418
H          2.80304       -2.07761       -4.73505
H          3.22957       -3.01933       -3.24683
H          4.35599       -1.80086       -3.84337
H          1.56126       -1.42198       -2.60046
H          3.12172       -0.95140       -1.88051
H          5.56259        2.52455       -4.86661
H          5.46747        4.77428       -5.45965
H         -1.10108        4.92925       -3.93170
H         -1.01365        2.54427       -3.60396
H          5.12929        6.52442       -6.41048
H          5.12298        8.78538       -6.87716
H          0.25024        9.72615       -2.66417
H          1.38892       13.13689       -6.03350
H          2.60332       13.51564       -4.75643
H          3.16200       12.97169       -7.75341
H          3.12090       14.56546       -6.94573
H          4.41184       13.41427       -6.49742
H         -5.76968        2.72739       -1.36446
H         -5.88912        1.15121       -0.49726
H         -6.20903        2.67131        0.37726
H         -3.53504        1.72348       -0.85601
H         -3.88478        1.74160        0.90156
H         -0.74566        5.38625       -2.05483
H         -4.32978        8.45676        3.03127
H         -4.92450        6.23286        2.86167
H         -1.58870       10.30280       -3.04003
H         -1.11100       12.64999       -2.79729
H         -2.72608       12.39268        3.69571
H         -3.36183       10.16729        3.46938
H         -0.10463       16.44471        0.06219
H         -1.28335       16.65735        1.39499
H          1.50708       15.29953        1.58717
H          1.11555       16.98137        2.11046
H          0.41565       15.58999        2.98476
