102
di-PDI-2F.sdf
C          1.12154        1.64691        0.29942
C          0.08462        1.02324       -0.63491
N          0.55152        1.11152       -2.03497
C          1.20385        0.04007       -2.61408
C          1.72035        0.14130       -3.92045
C          1.58209        1.33875       -4.65006
C          0.86368        2.39719       -4.06937
C          0.35797        2.27522       -2.75765
O         -0.24427        3.21168       -2.25205
O          1.36244       -0.99336       -1.98018
C          2.38897       -0.93033       -4.49979
C          2.91566       -0.82931       -5.77335
C          2.84170        0.36911       -6.53189
C          2.17826        1.48050       -5.94801
C          2.11062        2.73464       -6.62957
C          1.22175        3.70368       -6.07490
C          0.64459        3.54559       -4.82260
C          3.40093        0.48770       -7.83922
C          3.48667        1.78258       -8.44720
C          2.91776        2.95066       -7.81851
C          3.91491       -0.63293       -8.56371
C          4.47820       -0.48774       -9.81543
C          4.61993        0.76316      -10.39882
C          4.15622        1.90086       -9.70732
C          4.38545        3.15248      -10.28001
C          4.01611        4.28806       -9.57999
C          3.24714        4.26094       -8.40391
C          5.21128        0.88685      -11.67323
N          5.36744        2.12975      -12.25272
C          5.00067        3.26186      -11.54892
C          5.91760        2.25928      -13.62264
C          4.83660        2.74274      -14.59719
O          5.18637        4.36670      -12.03945
O          5.56884       -0.11667      -12.27299
C          4.34376        7.78855       -1.36172
C          2.95148        7.78503       -1.97396
N          3.01778        7.88645       -3.44765
C          3.14606        6.74589       -4.21548
C          3.11161        6.82415       -5.62865
C          2.97862        8.05799       -6.26817
C          2.93750        9.21835       -5.46726
C          2.93579        9.11947       -4.06067
O          2.86211       10.13280       -3.38031
O          3.24874        5.65725       -3.66793
C          3.22228        5.67890       -6.39767
C          3.02430        5.65142       -7.78989
C          2.81496        6.93216       -8.48661
C          2.90292        8.13910       -7.69630
C          2.91462        9.43608       -8.30594
C          2.90852       10.58364       -7.45245
C          2.89001       10.46165       -6.07794
C          2.57490        7.09487       -9.91297
C          2.76660        8.37264      -10.52133
C          2.96278        9.53520       -9.72827
C          2.14049        6.04780      -10.78054
C          2.13659        6.18606      -12.16239
C          2.50810        7.38275      -12.76894
C          2.77123        8.49336      -11.95295
C          3.05110        9.72728      -12.57323
C          3.25716       10.85005      -11.78021
C          3.19477       10.76355      -10.40213
C          2.58912        7.49489      -14.17435
N          2.93331        8.69977      -14.76724
C          3.13182        9.81772      -13.97651
C          3.07865        8.80562      -16.23977
C          4.52487        9.12652      -16.64318
O          3.38350       10.89512      -14.49607
O          2.37439        6.51181      -14.86800
F          1.65290        4.87195      -10.32117
F          2.86083       11.86334       -7.88435
F          0.84152        4.81636       -6.74540
F          3.85457       -1.91500       -8.14020
H          2.08664        1.10175        0.20386
H          0.77946        1.56965        1.35272
H          1.28950        2.71509        0.05033
H         -0.05402       -0.03306       -0.31929
H         -0.90652        1.51222       -0.51865
H          2.51275       -1.86599       -3.96519
H          3.41339       -1.72090       -6.08317
H          0.02426        4.34684       -4.43953
H          4.82526       -1.38012      -10.32382
H          4.32698        5.23772       -9.98561
H          6.78669        2.95061      -13.62091
H          6.27708        1.28502      -14.01753
H          4.44018        3.74033      -14.31940
H          5.25628        2.81078      -15.62277
H          3.99194        2.01989      -14.61000
H          4.86310        8.73590       -1.61875
H          4.25917        7.71549       -0.25671
H          4.93398        6.92847       -1.73861
H          2.36886        8.63014       -1.54560
H          2.39381        6.87042       -1.67262
H          3.44865        4.76109       -5.87862
H          2.85762       11.36921       -5.48537
H          1.84525        5.33093      -12.76171
H          3.47139       11.81558      -12.22460
H          3.38660       11.69771       -9.92350
H          2.81745        7.85350      -16.74737
H          2.39090        9.58511      -16.63134
H          5.21061        8.33689      -16.26889
H          4.60316        9.16854      -17.75015
H          4.86413       10.10469      -16.24782
