SCF done       -367.489927363328          0.000515412457
 OpenBabel12282109573D

206229  0  0  0  0  0  0  0  0999 V2000
    2.9363    1.9284   -8.1729 C   0  0  0  0  0  0  0  0  0  0  0  0
    1.6980    1.5181   -8.7000 C   0  0  0  0  0  0  0  0  0  0  0  0
    0.7172    0.9491   -7.8538 C   0  0  0  0  0  0  0  0  0  0  0  0
    0.8922    0.7780   -6.4848 C   0  0  0  0  0  0  0  0  0  0  0  0
    2.1428    1.1578   -5.9628 C   0  0  0  0  0  0  0  0  0  0  0  0
    3.1275    1.7175   -6.8108 C   0  0  0  0  0  0  0  0  0  0  0  0
    1.2511    1.5696  -10.0531 C   0  0  0  0  0  0  0  0  0  0  0  0
    0.0001    1.0929  -10.2135 C   0  0  0  0  0  0  0  0  0  0  0  0
   -0.7243    0.5403   -8.7453 S   0  0  0  0  0  0  0  0  0  0  0  0
    2.5958    1.0324   -4.6260 C   0  0  0  0  0  0  0  0  0  0  0  0
    3.8683    1.4808   -4.4342 C   0  0  0  0  0  0  0  0  0  0  0  0
    4.5681    2.1171   -5.9154 S   0  0  0  0  0  0  0  0  0  0  0  0
    3.9715    2.5452   -8.9796 C   0  0  0  0  0  0  0  0  0  0  0  0
   -0.1443    0.2400   -5.6268 C   0  0  0  0  0  0  0  0  0  0  0  0
    5.3206    2.3389   -8.9132 C   0  0  0  0  0  0  0  0  0  0  0  0
    6.0539    3.1382   -9.8123 C   0  0  0  0  0  0  0  0  0  0  0  0
    5.2772    3.9710  -10.5565 C   0  0  0  0  0  0  0  0  0  0  0  0
    3.6013    3.7668  -10.1653 S   0  0  0  0  0  0  0  0  0  0  0  0
   -0.5484    0.6934   -4.4027 C   0  0  0  0  0  0  0  0  0  0  0  0
   -1.5869   -0.0743   -3.8397 C   0  0  0  0  0  0  0  0  0  0  0  0
   -1.9706   -1.1207   -4.6206 C   0  0  0  0  0  0  0  0  0  0  0  0
   -1.0574   -1.1667   -6.0923 S   0  0  0  0  0  0  0  0  0  0  0  0
    5.6922    4.9238  -11.6238 C   0  0  0  0  0  0  0  0  0  0  0  0
    5.3476    4.3834  -13.0134 C   0  0  0  0  0  0  0  0  0  0  0  0
   -3.0492   -2.1182   -4.3751 C   0  0  0  0  0  0  0  0  0  0  0  0
   -4.2599   -1.8507   -5.2716 C   0  0  0  0  0  0  0  0  0  0  0  0
    6.3146    2.2805   -1.4856 C   0  0  0  0  0  0  0  0  0  0  0  0
    5.8156    2.8067   -3.0714 S   0  0  0  0  0  0  0  0  0  0  0  0
    4.6465    1.5241   -3.2401 C   0  0  0  0  0  0  0  0  0  0  0  0
    4.6574    0.7115   -2.1132 C   0  0  0  0  0  0  0  0  0  0  0  0
    5.5994    1.1598   -1.1399 C   0  0  0  0  0  0  0  0  0  0  0  0
    4.0190   -0.4859   -1.6766 C   0  0  0  0  0  0  0  0  0  0  0  0
    4.4136   -0.9027   -0.4306 C   0  0  0  0  0  0  0  0  0  0  0  0
    5.6325    0.1602    0.2746 S   0  0  0  0  0  0  0  0  0  0  0  0
    2.9070   -1.3970   -2.6115 Cl  0  0  0  0  0  0  0  0  0  0  0  0
    3.9786   -2.0259    0.3302 C   0  0  0  0  0  0  0  0  0  0  0  0
    2.7654   -3.1386   -0.2236 S   0  0  0  0  0  0  0  0  0  0  0  0
    2.8812   -4.0393    1.2449 C   0  0  0  0  0  0  0  0  0  0  0  0
    3.8105   -3.5060    2.1055 C   0  0  0  0  0  0  0  0  0  0  0  0
    4.4306   -2.3685    1.5901 C   0  0  0  0  0  0  0  0  0  0  0  0
    2.0472   -5.2133    1.4690 C   0  0  0  0  0  0  0  0  0  0  0  0
    2.0759   -5.8918    2.4680 O   0  0  0  0  0  0  0  0  0  0  0  0
    1.2309   -5.4309    0.4250 O   0  0  0  0  0  0  0  0  0  0  0  0
    0.3634   -6.5591    0.5086 C   0  0  0  0  0  0  0  0  0  0  0  0
    1.0784   -7.8444    0.1169 C   0  0  0  0  0  0  0  0  0  0  0  0
    9.5850    5.8318   -0.2101 C   0  0  0  0  0  0  0  0  0  0  0  0
    8.8484    4.6308   -0.1752 C   0  0  0  0  0  0  0  0  0  0  0  0
    9.0291    3.7147    0.8905 C   0  0  0  0  0  0  0  0  0  0  0  0
    9.9295    3.9134    1.9325 C   0  0  0  0  0  0  0  0  0  0  0  0
   10.6825    5.1050    1.8857 C   0  0  0  0  0  0  0  0  0  0  0  0
   10.4869    6.0286    0.8297 C   0  0  0  0  0  0  0  0  0  0  0  0
    7.8894    4.1716   -1.1070 C   0  0  0  0  0  0  0  0  0  0  0  0
    7.3115    2.9843   -0.7601 C   0  0  0  0  0  0  0  0  0  0  0  0
    7.9523    2.3479    0.7387 S   0  0  0  0  0  0  0  0  0  0  0  0
   11.6707    5.5486    2.7985 C   0  0  0  0  0  0  0  0  0  0  0  0
   12.1968    6.7670    2.4889 C   0  0  0  0  0  0  0  0  0  0  0  0
   11.4849    7.4410    1.0344 S   0  0  0  0  0  0  0  0  0  0  0  0
    9.4134    6.8254   -1.2500 C   0  0  0  0  0  0  0  0  0  0  0  0
   10.0654    2.9379    2.9946 C   0  0  0  0  0  0  0  0  0  0  0  0
   10.3767    7.5872   -1.8510 C   0  0  0  0  0  0  0  0  0  0  0  0
    9.8640    8.4883   -2.8042 C   0  0  0  0  0  0  0  0  0  0  0  0
    8.5097    8.4377   -2.9265 C   0  0  0  0  0  0  0  0  0  0  0  0
    7.8370    7.2489   -1.8614 S   0  0  0  0  0  0  0  0  0  0  0  0
   10.0240    1.5751    2.8870 C   0  0  0  0  0  0  0  0  0  0  0  0
   10.1533    0.9109    4.1217 C   0  0  0  0  0  0  0  0  0  0  0  0
   10.2834    1.7541    5.1819 C   0  0  0  0  0  0  0  0  0  0  0  0
   10.2531    3.4061    4.6630 S   0  0  0  0  0  0  0  0  0  0  0  0
    7.6288    9.2028   -3.8525 C   0  0  0  0  0  0  0  0  0  0  0  0
    7.1244    8.3163   -4.9933 C   0  0  0  0  0  0  0  0  0  0  0  0
   10.4090    1.4195    6.6279 C   0  0  0  0  0  0  0  0  0  0  0  0
    9.1247    1.7515    7.3903 C   0  0  0  0  0  0  0  0  0  0  0  0
   14.4328    9.4677    4.2339 C   0  0  0  0  0  0  0  0  0  0  0  0
   13.0090    9.2614    3.2470 S   0  0  0  0  0  0  0  0  0  0  0  0
   13.1768    7.5275    3.1937 C   0  0  0  0  0  0  0  0  0  0  0  0
   14.3023    7.1308    3.9011 C   0  0  0  0  0  0  0  0  0  0  0  0
   14.9930    8.2373    4.4776 C   0  0  0  0  0  0  0  0  0  0  0  0
   14.9983    5.9134    4.1520 C   0  0  0  0  0  0  0  0  0  0  0  0
   16.1346    6.0710    4.9036 C   0  0  0  0  0  0  0  0  0  0  0  0
   16.4155    7.7579    5.3432 S   0  0  0  0  0  0  0  0  0  0  0  0
   14.5249    4.3870    3.5316 Cl  0  0  0  0  0  0  0  0  0  0  0  0
   17.0766    5.0961    5.3412 C   0  0  0  0  0  0  0  0  0  0  0  0
   16.9499    3.4086    4.9497 S   0  0  0  0  0  0  0  0  0  0  0  0
   18.3978    3.0682    5.8269 C   0  0  0  0  0  0  0  0  0  0  0  0
   18.9399    4.1999    6.3870 C   0  0  0  0  0  0  0  0  0  0  0  0
   18.1948    5.3460    6.1131 C   0  0  0  0  0  0  0  0  0  0  0  0
   18.9252    1.7119    5.9089 C   0  0  0  0  0  0  0  0  0  0  0  0
   19.9317    1.4060    6.5029 O   0  0  0  0  0  0  0  0  0  0  0  0
   18.1408    0.8467    5.2461 O   0  0  0  0  0  0  0  0  0  0  0  0
   18.5595   -0.5161    5.2243 C   0  0  0  0  0  0  0  0  0  0  0  0
   19.6003   -0.7613    4.1410 C   0  0  0  0  0  0  0  0  0  0  0  0
   14.4182   14.3983    5.0364 C   0  0  0  0  0  0  0  0  0  0  0  0
   14.8484   13.0554    5.0256 C   0  0  0  0  0  0  0  0  0  0  0  0
   16.1104   12.7034    5.5656 C   0  0  0  0  0  0  0  0  0  0  0  0
   16.9879   13.6224    6.1309 C   0  0  0  0  0  0  0  0  0  0  0  0
   16.5528   14.9642    6.1453 C   0  0  0  0  0  0  0  0  0  0  0  0
   15.3029   15.3211    5.5832 C   0  0  0  0  0  0  0  0  0  0  0  0
   14.1722   11.9317    4.4969 C   0  0  0  0  0  0  0  0  0  0  0  0
   14.8498   10.7572    4.6572 C   0  0  0  0  0  0  0  0  0  0  0  0
   16.3887   10.9828    5.4589 S   0  0  0  0  0  0  0  0  0  0  0  0
   17.2390   16.0896    6.6564 C   0  0  0  0  0  0  0  0  0  0  0  0
   16.5803   17.2700    6.4841 C   0  0  0  0  0  0  0  0  0  0  0  0
   15.0259   17.0388    5.7039 S   0  0  0  0  0  0  0  0  0  0  0  0
   13.1197   14.8059    4.5410 C   0  0  0  0  0  0  0  0  0  0  0  0
   18.2963   13.2207    6.6075 C   0  0  0  0  0  0  0  0  0  0  0  0
   12.7958   15.9398    3.8496 C   0  0  0  0  0  0  0  0  0  0  0  0
   11.4195   16.0508    3.5707 C   0  0  0  0  0  0  0  0  0  0  0  0
   10.6804   15.0187    4.0607 C   0  0  0  0  0  0  0  0  0  0  0  0
   11.6886   13.8666    4.8709 S   0  0  0  0  0  0  0  0  0  0  0  0
   19.1433   12.3158    6.0278 C   0  0  0  0  0  0  0  0  0  0  0  0
   20.3738   12.1869    6.6997 C   0  0  0  0  0  0  0  0  0  0  0  0
   20.4746   12.9736    7.8057 C   0  0  0  0  0  0  0  0  0  0  0  0
   19.0279   13.8950    8.0379 S   0  0  0  0  0  0  0  0  0  0  0  0
    9.2151   14.7801    3.9387 C   0  0  0  0  0  0  0  0  0  0  0  0
    8.9181   13.6167    2.9903 C   0  0  0  0  0  0  0  0  0  0  0  0
   21.6387   13.1629    8.7153 C   0  0  0  0  0  0  0  0  0  0  0  0
   22.3127   14.5155    8.4683 C   0  0  0  0  0  0  0  0  0  0  0  0
   16.9473   20.9162    7.7935 C   0  0  0  0  0  0  0  0  0  0  0  0
   15.7833   19.7691    7.2599 S   0  0  0  0  0  0  0  0  0  0  0  0
   16.9947   18.5694    6.8991 C   0  0  0  0  0  0  0  0  0  0  0  0
   18.2624   19.0746    7.1588 C   0  0  0  0  0  0  0  0  0  0  0  0
   18.2003   20.4049    7.6874 C   0  0  0  0  0  0  0  0  0  0  0  0
   19.6182   18.6611    7.0107 C   0  0  0  0  0  0  0  0  0  0  0  0
   20.5351   19.5770    7.4624 C   0  0  0  0  0  0  0  0  0  0  0  0
   19.7700   21.0501    8.0620 S   0  0  0  0  0  0  0  0  0  0  0  0
   20.1324   17.2138    6.2462 Cl  0  0  0  0  0  0  0  0  0  0  0  0
   21.9549   19.4764    7.5166 C   0  0  0  0  0  0  0  0  0  0  0  0
   22.8217   18.0491    7.0361 S   0  0  0  0  0  0  0  0  0  0  0  0
   24.3236   18.7799    7.4699 C   0  0  0  0  0  0  0  0  0  0  0  0
   24.1574   20.0568    7.9495 C   0  0  0  0  0  0  0  0  0  0  0  0
   22.8197   20.4501    7.9786 C   0  0  0  0  0  0  0  0  0  0  0  0
   25.5725   18.0472    7.3079 C   0  0  0  0  0  0  0  0  0  0  0  0
   26.6670   18.4879    7.5659 O   0  0  0  0  0  0  0  0  0  0  0  0
   25.3410   16.8070    6.8444 O   0  0  0  0  0  0  0  0  0  0  0  0
   26.4791   15.9809    6.6115 C   0  0  0  0  0  0  0  0  0  0  0  0
   27.1057   16.2668    5.2542 C   0  0  0  0  0  0  0  0  0  0  0  0
    1.8498    1.9393  -10.8645 H   0  0  0  0  0  0  0  0  0  0  0  0
   -0.5637    1.0175  -11.1226 H   0  0  0  0  0  0  0  0  0  0  0  0
    1.9879    0.6331   -3.8384 H   0  0  0  0  0  0  0  0  0  0  0  0
    5.7747    1.6103   -8.2664 H   0  0  0  0  0  0  0  0  0  0  0  0
    7.1253    3.0981   -9.8994 H   0  0  0  0  0  0  0  0  0  0  0  0
   -0.1451    1.5771   -3.9406 H   0  0  0  0  0  0  0  0  0  0  0  0
   -2.0320    0.1428   -2.8846 H   0  0  0  0  0  0  0  0  0  0  0  0
    6.7695    5.0862  -11.5491 H   0  0  0  0  0  0  0  0  0  0  0  0
    5.1896    5.8832  -11.4783 H   0  0  0  0  0  0  0  0  0  0  0  0
    5.8538    3.4364  -13.1872 H   0  0  0  0  0  0  0  0  0  0  0  0
    5.6560    5.0893  -13.7805 H   0  0  0  0  0  0  0  0  0  0  0  0
    4.2750    4.2231  -13.0990 H   0  0  0  0  0  0  0  0  0  0  0  0
   -3.3470   -2.0641   -3.3258 H   0  0  0  0  0  0  0  0  0  0  0  0
   -2.6726   -3.1247   -4.5734 H   0  0  0  0  0  0  0  0  0  0  0  0
   -4.6585   -0.8567   -5.0816 H   0  0  0  0  0  0  0  0  0  0  0  0
   -5.0411   -2.5821   -5.0805 H   0  0  0  0  0  0  0  0  0  0  0  0
   -3.9721   -1.9122   -6.3187 H   0  0  0  0  0  0  0  0  0  0  0  0
    4.0175   -3.9364    3.0682 H   0  0  0  0  0  0  0  0  0  0  0  0
    5.1838   -1.8014    2.1078 H   0  0  0  0  0  0  0  0  0  0  0  0
   -0.4549   -6.3365   -0.1794 H   0  0  0  0  0  0  0  0  0  0  0  0
   -0.0179   -6.6364    1.5325 H   0  0  0  0  0  0  0  0  0  0  0  0
    1.5010   -7.7505   -0.8807 H   0  0  0  0  0  0  0  0  0  0  0  0
    0.3739   -8.6711    0.1296 H   0  0  0  0  0  0  0  0  0  0  0  0
    1.8787   -8.0525    0.8230 H   0  0  0  0  0  0  0  0  0  0  0  0
    7.6254    4.6899   -2.0105 H   0  0  0  0  0  0  0  0  0  0  0  0
   11.9623    5.0005    3.6730 H   0  0  0  0  0  0  0  0  0  0  0  0
   11.4265    7.4796   -1.6470 H   0  0  0  0  0  0  0  0  0  0  0  0
   10.4824    9.1553   -3.3784 H   0  0  0  0  0  0  0  0  0  0  0  0
    9.9428    1.0594    1.9474 H   0  0  0  0  0  0  0  0  0  0  0  0
   10.1542   -0.1604    4.2184 H   0  0  0  0  0  0  0  0  0  0  0  0
    8.1946   10.0429   -4.2608 H   0  0  0  0  0  0  0  0  0  0  0  0
    6.7721    9.6007   -3.3030 H   0  0  0  0  0  0  0  0  0  0  0  0
    7.9622    7.9123   -5.5572 H   0  0  0  0  0  0  0  0  0  0  0  0
    6.4954    8.8911   -5.6682 H   0  0  0  0  0  0  0  0  0  0  0  0
    6.5429    7.4865   -4.5976 H   0  0  0  0  0  0  0  0  0  0  0  0
   11.2394    1.9802    7.0645 H   0  0  0  0  0  0  0  0  0  0  0  0
   10.6285    0.3539    6.7224 H   0  0  0  0  0  0  0  0  0  0  0  0
    8.9065    2.8145    7.3150 H   0  0  0  0  0  0  0  0  0  0  0  0
    9.2318    1.4915    8.4404 H   0  0  0  0  0  0  0  0  0  0  0  0
    8.2856    1.1963    6.9773 H   0  0  0  0  0  0  0  0  0  0  0  0
   19.8433    4.1779    6.9688 H   0  0  0  0  0  0  0  0  0  0  0  0
   18.4494    6.3320    6.4594 H   0  0  0  0  0  0  0  0  0  0  0  0
   17.6490   -1.0882    5.0344 H   0  0  0  0  0  0  0  0  0  0  0  0
   18.9682   -0.7762    6.2065 H   0  0  0  0  0  0  0  0  0  0  0  0
   19.2154   -0.4494    3.1729 H   0  0  0  0  0  0  0  0  0  0  0  0
   19.8451   -1.8189    4.1035 H   0  0  0  0  0  0  0  0  0  0  0  0
   20.5040   -0.1980    4.3613 H   0  0  0  0  0  0  0  0  0  0  0  0
   13.2177   11.9752    4.0053 H   0  0  0  0  0  0  0  0  0  0  0  0
   18.1763   16.0258    7.1687 H   0  0  0  0  0  0  0  0  0  0  0  0
   13.5244   16.6563    3.5163 H   0  0  0  0  0  0  0  0  0  0  0  0
   10.9921   16.8745    3.0268 H   0  0  0  0  0  0  0  0  0  0  0  0
   18.9126   11.7906    5.1187 H   0  0  0  0  0  0  0  0  0  0  0  0
   21.1617   11.5340    6.3681 H   0  0  0  0  0  0  0  0  0  0  0  0
    8.7419   15.6910    3.5660 H   0  0  0  0  0  0  0  0  0  0  0  0
    8.7956   14.5545    4.9226 H   0  0  0  0  0  0  0  0  0  0  0  0
    9.3166   13.8243    1.9997 H   0  0  0  0  0  0  0  0  0  0  0  0
    7.8453   13.4611    2.9085 H   0  0  0  0  0  0  0  0  0  0  0  0
    9.3749   12.7019    3.3613 H   0  0  0  0  0  0  0  0  0  0  0  0
   22.3545   12.3562    8.5430 H   0  0  0  0  0  0  0  0  0  0  0  0
   21.3086   13.1128    9.7559 H   0  0  0  0  0  0  0  0  0  0  0  0
   22.6530   14.5919    7.4381 H   0  0  0  0  0  0  0  0  0  0  0  0
   23.1695   14.6374    9.1260 H   0  0  0  0  0  0  0  0  0  0  0  0
   21.6124   15.3260    8.6573 H   0  0  0  0  0  0  0  0  0  0  0  0
   16.6396   21.8776    8.1485 H   0  0  0  0  0  0  0  0  0  0  0  0
   24.9838   20.6669    8.2651 H   0  0  0  0  0  0  0  0  0  0  0  0
   22.4781   21.4096    8.3245 H   0  0  0  0  0  0  0  0  0  0  0  0
   26.1011   14.9577    6.6650 H   0  0  0  0  0  0  0  0  0  0  0  0
   27.2099   16.1528    7.4089 H   0  0  0  0  0  0  0  0  0  0  0  0
   26.3678   16.1409    4.4652 H   0  0  0  0  0  0  0  0  0  0  0  0
   27.9317   15.5826    5.0825 H   0  0  0  0  0  0  0  0  0  0  0  0
   27.4819   17.2866    5.2278 H   0  0  0  0  0  0  0  0  0  0  0  0
  1  6  1  0  0  0  0
  2  1  2  0  0  0  0
  2  3  1  0  0  0  0
  3  4  2  0  0  0  0
  4  5  1  0  0  0  0
  4 14  1  0  0  0  0
  5 10  1  0  0  0  0
  6  5  2  0  0  0  0
  6 12  1  0  0  0  0
  7  2  1  0  0  0  0
  8  7  2  0  0  0  0
  8  9  1  0  0  0  0
  9  3  1  0  0  0  0
 10 11  2  0  0  0  0
 10138  1  0  0  0  0
 11 29  1  0  0  0  0
 12 11  1  0  0  0  0
 13 15  2  0  0  0  0
 13  1  1  0  0  0  0
 14 19  2  0  0  0  0
 15139  1  0  0  0  0
 16 15  1  0  0  0  0
 17 18  1  0  0  0  0
 17 16  2  0  0  0  0
 18 13  1  0  0  0  0
 19141  1  0  0  0  0
 19 20  1  0  0  0  0
 20142  1  0  0  0  0
 21 25  1  0  0  0  0
 21 20  2  0  0  0  0
 22 14  1  0  0  0  0
 22 21  1  0  0  0  0
 23143  1  0  0  0  0
 23144  1  0  0  0  0
 23 17  1  0  0  0  0
 24 23  1  0  0  0  0
 25148  1  0  0  0  0
 26150  1  0  0  0  0
 26151  1  0  0  0  0
 26 25  1  0  0  0  0
 27 31  2  0  0  0  0
 27 53  1  0  0  0  0
 28 27  1  0  0  0  0
 29 28  1  0  0  0  0
 29 30  2  0  0  0  0
 30 32  1  0  0  0  0
 30 31  1  0  0  0  0
 31 34  1  0  0  0  0
 32 33  2  0  0  0  0
 33 34  1  0  0  0  0
 33 36  1  0  0  0  0
 35 32  1  0  0  0  0
 36 40  2  0  0  0  0
 37 36  1  0  0  0  0
 37 38  1  0  0  0  0
 38 41  1  0  0  0  0
 38 39  2  0  0  0  0
 39153  1  0  0  0  0
 40 39  1  0  0  0  0
 40154  1  0  0  0  0
 41 42  2  0  0  0  0
 43 44  1  0  0  0  0
 43 41  1  0  0  0  0
 44156  1  0  0  0  0
 45158  1  0  0  0  0
 45 44  1  0  0  0  0
 45159  1  0  0  0  0
 46 47  2  0  0  0  0
 46 51  1  0  0  0  0
 47 48  1  0  0  0  0
 48 49  2  0  0  0  0
 49 59  1  0  0  0  0
 50 49  1  0  0  0  0
 50 55  1  0  0  0  0
 51 57  1  0  0  0  0
 51 50  2  0  0  0  0
 52 53  2  0  0  0  0
 52 47  1  0  0  0  0
 53 54  1  0  0  0  0
 54 48  1  0  0  0  0
 55161  1  0  0  0  0
 56 55  2  0  0  0  0
 56 74  1  0  0  0  0
 57 56  1  0  0  0  0
 58 46  1  0  0  0  0
 59 67  1  0  0  0  0
 60162  1  0  0  0  0
 60 58  2  0  0  0  0
 61 60  1  0  0  0  0
 62 61  2  0  0  0  0
 62 63  1  0  0  0  0
 63 58  1  0  0  0  0
 64 59  2  0  0  0  0
 64 65  1  0  0  0  0
 65165  1  0  0  0  0
 65 66  2  0  0  0  0
 66 70  1  0  0  0  0
 67 66  1  0  0  0  0
 68167  1  0  0  0  0
 68 62  1  0  0  0  0
 69170  1  0  0  0  0
 69 68  1  0  0  0  0
 70172  1  0  0  0  0
 70171  1  0  0  0  0
 70 71  1  0  0  0  0
 71174  1  0  0  0  0
 72 76  2  0  0  0  0
 72 98  1  0  0  0  0
 73 72  1  0  0  0  0
 74 73  1  0  0  0  0
 74 75  2  0  0  0  0
 75 77  1  0  0  0  0
 75 76  1  0  0  0  0
 76 79  1  0  0  0  0
 77 78  2  0  0  0  0
 78 81  1  0  0  0  0
 78 79  1  0  0  0  0
 80 77  1  0  0  0  0
 81 85  2  0  0  0  0
 82 81  1  0  0  0  0
 82 83  1  0  0  0  0
 83 86  1  0  0  0  0
 83 84  2  0  0  0  0
 84176  1  0  0  0  0
 85 84  1  0  0  0  0
 85177  1  0  0  0  0
 86 87  2  0  0  0  0
 88 86  1  0  0  0  0
 89 88  1  0  0  0  0
 89179  1  0  0  0  0
 90182  1  0  0  0  0
 90 89  1  0  0  0  0
 91 96  1  0  0  0  0
 92 91  2  0  0  0  0
 92 93  1  0  0  0  0
 93 94  2  0  0  0  0
 94 95  1  0  0  0  0
 94104  1  0  0  0  0
 95100  1  0  0  0  0
 96102  1  0  0  0  0
 96 95  2  0  0  0  0
 97 98  2  0  0  0  0
 97 92  1  0  0  0  0
 98 99  1  0  0  0  0
 99 93  1  0  0  0  0
100184  1  0  0  0  0
101100  2  0  0  0  0
101119  1  0  0  0  0
102101  1  0  0  0  0
103108  1  0  0  0  0
103 91  1  0  0  0  0
104112  1  0  0  0  0
105103  2  0  0  0  0
106105  1  0  0  0  0
106107  2  0  0  0  0
107108  1  0  0  0  0
109104  2  0  0  0  0
109110  1  0  0  0  0
110111  2  0  0  0  0
111112  1  0  0  0  0
111115  1  0  0  0  0
113107  1  0  0  0  0
113190  1  0  0  0  0
114193  1  0  0  0  0
114113  1  0  0  0  0
115195  1  0  0  0  0
116198  1  0  0  0  0
116115  1  0  0  0  0
116197  1  0  0  0  0
117199  1  0  0  0  0
118117  1  0  0  0  0
119120  2  0  0  0  0
119118  1  0  0  0  0
120121  1  0  0  0  0
121117  2  0  0  0  0
121124  1  0  0  0  0
122120  1  0  0  0  0
122123  2  0  0  0  0
123126  1  0  0  0  0
123124  1  0  0  0  0
125122  1  0  0  0  0
126130  2  0  0  0  0
127128  1  0  0  0  0
127126  1  0  0  0  0
128129  2  0  0  0  0
129130  1  0  0  0  0
129200  1  0  0  0  0
130201  1  0  0  0  0
131128  1  0  0  0  0
131132  2  0  0  0  0
133131  1  0  0  0  0
134202  1  0  0  0  0
134133  1  0  0  0  0
134203  1  0  0  0  0
135134  1  0  0  0  0
136  7  1  0  0  0  0
137  8  1  0  0  0  0
140 16  1  0  0  0  0
145 24  1  0  0  0  0
146 24  1  0  0  0  0
147 24  1  0  0  0  0
149 25  1  0  0  0  0
152 26  1  0  0  0  0
155 44  1  0  0  0  0
157 45  1  0  0  0  0
160 52  1  0  0  0  0
163 61  1  0  0  0  0
164 64  1  0  0  0  0
166 68  1  0  0  0  0
168 69  1  0  0  0  0
169 69  1  0  0  0  0
173 71  1  0  0  0  0
175 71  1  0  0  0  0
178 89  1  0  0  0  0
180 90  1  0  0  0  0
181 90  1  0  0  0  0
183 97  1  0  0  0  0
185105  1  0  0  0  0
186106  1  0  0  0  0
187109  1  0  0  0  0
188110  1  0  0  0  0
189113  1  0  0  0  0
191114  1  0  0  0  0
192114  1  0  0  0  0
194115  1  0  0  0  0
196116  1  0  0  0  0
204135  1  0  0  0  0
205135  1  0  0  0  0
206135  1  0  0  0  0
M  END
