SCF done       -201.750048278286          0.000301501678
 OpenBabel12282109573D

120132  0  0  0  0  0  0  0  0999 V2000
    1.1515    0.4517    0.2956 C   0  0  0  0  0  0  0  0  0  0  0  0
    1.4218   -0.9365    0.2026 C   0  0  0  0  0  0  0  0  0  0  0  0
    0.4339   -1.8998    0.0416 C   0  0  0  0  0  0  0  0  0  0  0  0
   -0.8967   -1.4344    0.0232 C   0  0  0  0  0  0  0  0  0  0  0  0
   -1.1664   -0.0460    0.1022 C   0  0  0  0  0  0  0  0  0  0  0  0
   -0.1758    0.9224    0.2207 C   0  0  0  0  0  0  0  0  0  0  0  0
   -2.0838   -2.1992   -0.0643 C   0  0  0  0  0  0  0  0  0  0  0  0
   -3.2223   -1.4457   -0.1000 C   0  0  0  0  0  0  0  0  0  0  0  0
   -2.8780    0.2707   -0.0049 S   0  0  0  0  0  0  0  0  0  0  0  0
    2.3333    1.2071    0.4749 C   0  0  0  0  0  0  0  0  0  0  0  0
    3.4734    0.4526    0.4827 C   0  0  0  0  0  0  0  0  0  0  0  0
    3.1333   -1.2523    0.2766 S   0  0  0  0  0  0  0  0  0  0  0  0
   -0.5063    2.3327    0.2444 C   0  0  0  0  0  0  0  0  0  0  0  0
    0.7384   -3.3065   -0.1216 C   0  0  0  0  0  0  0  0  0  0  0  0
   -4.5660   -1.8971   -0.1981 C   0  0  0  0  0  0  0  0  0  0  0  0
    4.8095    0.9124    0.6481 C   0  0  0  0  0  0  0  0  0  0  0  0
    5.2398    2.1995    0.9103 C   0  0  0  0  0  0  0  0  0  0  0  0
    6.6193    2.3082    1.0316 C   0  0  0  0  0  0  0  0  0  0  0  0
    7.2909    1.1081    0.8561 C   0  0  0  0  0  0  0  0  0  0  0  0
    6.1516   -0.1770    0.5424 S   0  0  0  0  0  0  0  0  0  0  0  0
   -4.9375   -3.5916   -0.2256 S   0  0  0  0  0  0  0  0  0  0  0  0
   -6.6487   -3.2667   -0.3728 C   0  0  0  0  0  0  0  0  0  0  0  0
   -6.8744   -1.9000   -0.3994 C   0  0  0  0  0  0  0  0  0  0  0  0
   -5.7150   -1.1399   -0.2973 C   0  0  0  0  0  0  0  0  0  0  0  0
   -1.5617    2.9425    0.8630 C   0  0  0  0  0  0  0  0  0  0  0  0
   -1.6136    4.3325    0.6409 C   0  0  0  0  0  0  0  0  0  0  0  0
   -0.6150    4.7929   -0.1606 C   0  0  0  0  0  0  0  0  0  0  0  0
    0.4318    3.5012   -0.6470 S   0  0  0  0  0  0  0  0  0  0  0  0
    0.1787   -4.1959   -0.9959 C   0  0  0  0  0  0  0  0  0  0  0  0
    0.7218   -5.4919   -0.8959 C   0  0  0  0  0  0  0  0  0  0  0  0
    1.6869   -5.6027    0.0572 C   0  0  0  0  0  0  0  0  0  0  0  0
    1.9572   -4.0849    0.8482 S   0  0  0  0  0  0  0  0  0  0  0  0
   -0.3323    6.1921   -0.5863 C   0  0  0  0  0  0  0  0  0  0  0  0
    0.8989    6.7535    0.1282 C   0  0  0  0  0  0  0  0  0  0  0  0
    2.4963   -6.7969    0.4280 C   0  0  0  0  0  0  0  0  0  0  0  0
    3.9549   -6.6334   -0.0032 C   0  0  0  0  0  0  0  0  0  0  0  0
    8.6982    0.9575    0.9476 C   0  0  0  0  0  0  0  0  0  0  0  0
    9.6004    1.9516    1.3216 C   0  0  0  0  0  0  0  0  0  0  0  0
   10.9120    1.3964    1.3318 C   0  0  0  0  0  0  0  0  0  0  0  0
   10.8051    0.0170    0.9353 C   0  0  0  0  0  0  0  0  0  0  0  0
    9.4286   -0.1873    0.7223 N   0  0  0  0  0  0  0  0  0  0  0  0
    9.7053    3.3264    1.7288 C   0  0  0  0  0  0  0  0  0  0  0  0
   11.0789    3.5217    1.9749 N   0  0  0  0  0  0  0  0  0  0  0  0
   11.8093    2.3803    1.7387 C   0  0  0  0  0  0  0  0  0  0  0  0
   13.2126    2.2081    1.9008 C   0  0  0  0  0  0  0  0  0  0  0  0
   13.8930    1.0357    1.6401 C   0  0  0  0  0  0  0  0  0  0  0  0
   15.2688    1.1239    1.8903 C   0  0  0  0  0  0  0  0  0  0  0  0
   15.6466    2.3529    2.3407 C   0  0  0  0  0  0  0  0  0  0  0  0
   14.3247    3.4313    2.4693 S   0  0  0  0  0  0  0  0  0  0  0  0
    8.9681   -1.4605    0.2257 C   0  0  0  0  0  0  0  0  0  0  0  0
    8.7325   -1.4311   -1.2821 C   0  0  0  0  0  0  0  0  0  0  0  0
   11.6310   -0.8659    0.7877 O   0  0  0  0  0  0  0  0  0  0  0  0
    8.8809    4.2125    1.8699 O   0  0  0  0  0  0  0  0  0  0  0  0
   11.5480    4.8315    2.3539 C   0  0  0  0  0  0  0  0  0  0  0  0
   12.0881    5.6122    1.1585 C   0  0  0  0  0  0  0  0  0  0  0  0
   -7.6655   -4.2503   -0.4790 C   0  0  0  0  0  0  0  0  0  0  0  0
   -9.0141   -4.0015   -0.7258 C   0  0  0  0  0  0  0  0  0  0  0  0
   -9.7007   -5.2468   -0.8048 C   0  0  0  0  0  0  0  0  0  0  0  0
   -8.7367   -6.2917   -0.5827 C   0  0  0  0  0  0  0  0  0  0  0  0
   -7.5153   -5.6164   -0.3966 N   0  0  0  0  0  0  0  0  0  0  0  0
   -9.9749   -2.9577   -0.9607 C   0  0  0  0  0  0  0  0  0  0  0  0
  -11.1904   -3.6353   -1.1821 N   0  0  0  0  0  0  0  0  0  0  0  0
  -11.0413   -4.9993   -1.0891 C   0  0  0  0  0  0  0  0  0  0  0  0
  -12.0469   -5.9889   -1.2756 C   0  0  0  0  0  0  0  0  0  0  0  0
  -11.8394   -7.3486   -1.1581 C   0  0  0  0  0  0  0  0  0  0  0  0
  -12.9900   -8.1097   -1.4033 C   0  0  0  0  0  0  0  0  0  0  0  0
  -14.0753   -7.3445   -1.7075 C   0  0  0  0  0  0  0  0  0  0  0  0
  -13.7125   -5.6726   -1.7020 S   0  0  0  0  0  0  0  0  0  0  0  0
   -6.3322   -6.3702   -0.0632 C   0  0  0  0  0  0  0  0  0  0  0  0
   -6.0456   -6.3469    1.4359 C   0  0  0  0  0  0  0  0  0  0  0  0
   -8.8282   -7.5057   -0.5456 O   0  0  0  0  0  0  0  0  0  0  0  0
   -9.8856   -1.7432   -0.9909 O   0  0  0  0  0  0  0  0  0  0  0  0
  -12.3955   -2.8717   -1.3928 C   0  0  0  0  0  0  0  0  0  0  0  0
  -13.2104   -2.7277   -0.1103 C   0  0  0  0  0  0  0  0  0  0  0  0
   -2.1024   -3.2740   -0.0810 H   0  0  0  0  0  0  0  0  0  0  0  0
    2.3428    2.2726    0.6034 H   0  0  0  0  0  0  0  0  0  0  0  0
    4.5669    3.0304    1.0151 H   0  0  0  0  0  0  0  0  0  0  0  0
    7.1332    3.2280    1.2477 H   0  0  0  0  0  0  0  0  0  0  0  0
   -7.8606   -1.4823   -0.4971 H   0  0  0  0  0  0  0  0  0  0  0  0
   -5.6954   -0.0645   -0.2985 H   0  0  0  0  0  0  0  0  0  0  0  0
   -2.2602    2.4195    1.4907 H   0  0  0  0  0  0  0  0  0  0  0  0
   -2.3722    4.9693    1.0604 H   0  0  0  0  0  0  0  0  0  0  0  0
   -0.5665   -3.9194   -1.7204 H   0  0  0  0  0  0  0  0  0  0  0  0
    0.4047   -6.3147   -1.5122 H   0  0  0  0  0  0  0  0  0  0  0  0
   -1.2037    6.8097   -0.3593 H   0  0  0  0  0  0  0  0  0  0  0  0
   -0.1631    6.2217   -1.6657 H   0  0  0  0  0  0  0  0  0  0  0  0
    0.7484    6.7450    1.2054 H   0  0  0  0  0  0  0  0  0  0  0  0
    1.0852    7.7763   -0.1892 H   0  0  0  0  0  0  0  0  0  0  0  0
    1.7756    6.1529   -0.1040 H   0  0  0  0  0  0  0  0  0  0  0  0
    2.0644   -7.6770   -0.0532 H   0  0  0  0  0  0  0  0  0  0  0  0
    2.4584   -6.9454    1.5103 H   0  0  0  0  0  0  0  0  0  0  0  0
    4.0181   -6.5011   -1.0809 H   0  0  0  0  0  0  0  0  0  0  0  0
    4.5313   -7.5122    0.2745 H   0  0  0  0  0  0  0  0  0  0  0  0
    4.3932   -5.7618    0.4777 H   0  0  0  0  0  0  0  0  0  0  0  0
   13.4017    0.1486    1.2826 H   0  0  0  0  0  0  0  0  0  0  0  0
   15.9550    0.3098    1.7424 H   0  0  0  0  0  0  0  0  0  0  0  0
   16.6267    2.6946    2.6094 H   0  0  0  0  0  0  0  0  0  0  0  0
    8.0637   -1.7651    0.7575 H   0  0  0  0  0  0  0  0  0  0  0  0
    9.7681   -2.1714    0.4542 H   0  0  0  0  0  0  0  0  0  0  0  0
    7.9757   -0.6962   -1.5453 H   0  0  0  0  0  0  0  0  0  0  0  0
    8.4000   -2.4082   -1.6203 H   0  0  0  0  0  0  0  0  0  0  0  0
    9.6575   -1.1785   -1.7950 H   0  0  0  0  0  0  0  0  0  0  0  0
   12.3017    4.7455    3.1398 H   0  0  0  0  0  0  0  0  0  0  0  0
   10.6736    5.3511    2.7583 H   0  0  0  0  0  0  0  0  0  0  0  0
   12.9283    5.0957    0.7011 H   0  0  0  0  0  0  0  0  0  0  0  0
   12.4180    6.5952    1.4818 H   0  0  0  0  0  0  0  0  0  0  0  0
   11.3048    5.7327    0.4140 H   0  0  0  0  0  0  0  0  0  0  0  0
  -10.8823   -7.7685   -0.9054 H   0  0  0  0  0  0  0  0  0  0  0  0
  -13.0159   -9.1834   -1.3552 H   0  0  0  0  0  0  0  0  0  0  0  0
  -15.0733   -7.6609   -1.9389 H   0  0  0  0  0  0  0  0  0  0  0  0
   -5.4775   -5.9954   -0.6311 H   0  0  0  0  0  0  0  0  0  0  0  0
   -6.5414   -7.3977   -0.3764 H   0  0  0  0  0  0  0  0  0  0  0  0
   -5.8805   -5.3311    1.7866 H   0  0  0  0  0  0  0  0  0  0  0  0
   -5.1587   -6.9365    1.6492 H   0  0  0  0  0  0  0  0  0  0  0  0
   -6.8870   -6.7711    1.9786 H   0  0  0  0  0  0  0  0  0  0  0  0
  -12.9912   -3.3255   -2.1879 H   0  0  0  0  0  0  0  0  0  0  0  0
  -12.0627   -1.8824   -1.7217 H   0  0  0  0  0  0  0  0  0  0  0  0
  -13.5054   -3.6999    0.2770 H   0  0  0  0  0  0  0  0  0  0  0  0
  -14.1059   -2.1460   -0.3088 H   0  0  0  0  0  0  0  0  0  0  0  0
  -12.6199   -2.2153    0.6453 H   0  0  0  0  0  0  0  0  0  0  0  0
  1 10  1  0  0  0  0
  2 12  1  0  0  0  0
  2  1  2  0  0  0  0
  3  2  1  0  0  0  0
  4  3  2  0  0  0  0
  4  5  1  0  0  0  0
  5  6  2  0  0  0  0
  6 13  1  0  0  0  0
  6  1  1  0  0  0  0
  7  4  1  0  0  0  0
  8  7  2  0  0  0  0
  8  9  1  0  0  0  0
  9  5  1  0  0  0  0
 10 11  2  0  0  0  0
 10 76  1  0  0  0  0
 11 16  1  0  0  0  0
 12 11  1  0  0  0  0
 13 25  2  0  0  0  0
 14  3  1  0  0  0  0
 14 32  1  0  0  0  0
 15  8  1  0  0  0  0
 16 17  2  0  0  0  0
 17 77  1  0  0  0  0
 17 18  1  0  0  0  0
 18 78  1  0  0  0  0
 19 37  1  0  0  0  0
 19 18  2  0  0  0  0
 20 16  1  0  0  0  0
 20 19  1  0  0  0  0
 21 15  1  0  0  0  0
 22 21  1  0  0  0  0
 23 22  2  0  0  0  0
 23 24  1  0  0  0  0
 24 15  2  0  0  0  0
 25 81  1  0  0  0  0
 26 25  1  0  0  0  0
 26 82  1  0  0  0  0
 27 26  2  0  0  0  0
 28 27  1  0  0  0  0
 28 13  1  0  0  0  0
 29 30  1  0  0  0  0
 29 14  2  0  0  0  0
 30 31  2  0  0  0  0
 31 35  1  0  0  0  0
 31 32  1  0  0  0  0
 33 85  1  0  0  0  0
 33 27  1  0  0  0  0
 33 34  1  0  0  0  0
 34 87  1  0  0  0  0
 35 91  1  0  0  0  0
 36 93  1  0  0  0  0
 36 35  1  0  0  0  0
 36 94  1  0  0  0  0
 37 38  2  0  0  0  0
 38 39  1  0  0  0  0
 38 42  1  0  0  0  0
 39 44  2  0  0  0  0
 40 39  1  0  0  0  0
 41 40  1  0  0  0  0
 41 37  1  0  0  0  0
 42 53  2  0  0  0  0
 42 43  1  0  0  0  0
 43 54  1  0  0  0  0
 44 45  1  0  0  0  0
 44 43  1  0  0  0  0
 45 49  1  0  0  0  0
 46 47  1  0  0  0  0
 46 45  2  0  0  0  0
 47 48  2  0  0  0  0
 48 49  1  0  0  0  0
 48 97  1  0  0  0  0
 50 99  1  0  0  0  0
 50 41  1  0  0  0  0
 50 98  1  0  0  0  0
 51 50  1  0  0  0  0
 52 40  2  0  0  0  0
 54104  1  0  0  0  0
 54103  1  0  0  0  0
 55106  1  0  0  0  0
 55 54  1  0  0  0  0
 56 60  1  0  0  0  0
 56 22  1  0  0  0  0
 57 56  2  0  0  0  0
 58 57  1  0  0  0  0
 58 59  1  0  0  0  0
 59 71  2  0  0  0  0
 59 60  1  0  0  0  0
 60 69  1  0  0  0  0
 61 57  1  0  0  0  0
 62 63  1  0  0  0  0
 62 61  1  0  0  0  0
 63 58  2  0  0  0  0
 64 65  2  0  0  0  0
 64 63  1  0  0  0  0
 65108  1  0  0  0  0
 66109  1  0  0  0  0
 66 65  1  0  0  0  0
 67 68  1  0  0  0  0
 67 66  2  0  0  0  0
 68 64  1  0  0  0  0
 69 70  1  0  0  0  0
 70114  1  0  0  0  0
 70113  1  0  0  0  0
 70115  1  0  0  0  0
 72 61  2  0  0  0  0
 73 62  1  0  0  0  0
 73 74  1  0  0  0  0
 74118  1  0  0  0  0
 74120  1  0  0  0  0
 75  7  1  0  0  0  0
 79 23  1  0  0  0  0
 80 24  1  0  0  0  0
 83 29  1  0  0  0  0
 84 30  1  0  0  0  0
 86 33  1  0  0  0  0
 88 34  1  0  0  0  0
 89 34  1  0  0  0  0
 90 35  1  0  0  0  0
 92 36  1  0  0  0  0
 95 46  1  0  0  0  0
 96 47  1  0  0  0  0
100 51  1  0  0  0  0
101 51  1  0  0  0  0
102 51  1  0  0  0  0
105 55  1  0  0  0  0
107 55  1  0  0  0  0
110 67  1  0  0  0  0
111 69  1  0  0  0  0
112 69  1  0  0  0  0
116 73  1  0  0  0  0
117 73  1  0  0  0  0
119 74  1  0  0  0  0
M  END
