SCF done       -208.226564466240          0.000886080180
 OpenBabel12282109573D

122134  0  0  0  0  0  0  0  0999 V2000
    0.8713    0.8379   -0.1155 C   0  0  0  0  0  0  0  0  0  0  0  0
    1.1659   -0.4363    0.4289 C   0  0  0  0  0  0  0  0  0  0  0  0
    0.2436   -1.4758    0.4834 C   0  0  0  0  0  0  0  0  0  0  0  0
   -1.0609   -1.1750    0.0336 C   0  0  0  0  0  0  0  0  0  0  0  0
   -1.3499    0.0930   -0.5271 C   0  0  0  0  0  0  0  0  0  0  0  0
   -0.4087    1.1122   -0.6453 C   0  0  0  0  0  0  0  0  0  0  0  0
   -2.2022   -2.0103    0.0672 C   0  0  0  0  0  0  0  0  0  0  0  0
   -3.3158   -1.4450   -0.4859 C   0  0  0  0  0  0  0  0  0  0  0  0
   -3.0051    0.1781   -1.0686 S   0  0  0  0  0  0  0  0  0  0  0  0
    1.9821    1.7078   -0.0373 C   0  0  0  0  0  0  0  0  0  0  0  0
    3.0990    1.1361    0.5014 C   0  0  0  0  0  0  0  0  0  0  0  0
    2.8241   -0.5296    0.9641 S   0  0  0  0  0  0  0  0  0  0  0  0
   -0.7245    2.3638   -1.2946 C   0  0  0  0  0  0  0  0  0  0  0  0
    0.5887   -2.8048    0.9315 C   0  0  0  0  0  0  0  0  0  0  0  0
   -4.6124   -2.0113   -0.6135 C   0  0  0  0  0  0  0  0  0  0  0  0
    4.3650    1.7512    0.6891 C   0  0  0  0  0  0  0  0  0  0  0  0
    5.5102    1.2272    1.2517 C   0  0  0  0  0  0  0  0  0  0  0  0
    6.5797    2.1160    1.2635 C   0  0  0  0  0  0  0  0  0  0  0  0
    6.2858    3.3496    0.7045 C   0  0  0  0  0  0  0  0  0  0  0  0
    4.6251    3.3840    0.1636 S   0  0  0  0  0  0  0  0  0  0  0  0
   -4.9584   -3.5945    0.0058 S   0  0  0  0  0  0  0  0  0  0  0  0
   -6.6159   -3.5024   -0.5410 C   0  0  0  0  0  0  0  0  0  0  0  0
   -6.8439   -2.2898   -1.1716 C   0  0  0  0  0  0  0  0  0  0  0  0
   -5.7290   -1.4605   -1.2082 C   0  0  0  0  0  0  0  0  0  0  0  0
   -1.9051    3.0583   -1.2953 C   0  0  0  0  0  0  0  0  0  0  0  0
   -1.8786    4.2317   -2.0650 C   0  0  0  0  0  0  0  0  0  0  0  0
   -0.6734    4.4390   -2.6769 C   0  0  0  0  0  0  0  0  0  0  0  0
    0.4507    3.1725   -2.3046 S   0  0  0  0  0  0  0  0  0  0  0  0
    0.1791   -4.0054    0.4138 C   0  0  0  0  0  0  0  0  0  0  0  0
    0.7283   -5.1217    1.0625 C   0  0  0  0  0  0  0  0  0  0  0  0
    1.5645   -4.7785    2.0890 C   0  0  0  0  0  0  0  0  0  0  0  0
    1.6837   -3.0559    2.2667 S   0  0  0  0  0  0  0  0  0  0  0  0
   -0.2689    5.7886   -3.7035 S   0  0  0  0  0  0  0  0  0  0  0  0
    1.5272    5.5095   -3.9482 C   0  0  0  0  0  0  0  0  0  0  0  0
    2.4100   -5.9004    3.1194 S   0  0  0  0  0  0  0  0  0  0  0  0
    3.4656   -4.7579    4.0885 C   0  0  0  0  0  0  0  0  0  0  0  0
    7.2026    4.4261    0.5957 C   0  0  0  0  0  0  0  0  0  0  0  0
    8.5158    4.4270    1.0615 C   0  0  0  0  0  0  0  0  0  0  0  0
    9.1000    5.6945    0.7784 C   0  0  0  0  0  0  0  0  0  0  0  0
    8.1065    6.4942    0.1131 C   0  0  0  0  0  0  0  0  0  0  0  0
    6.9722    5.6634    0.0362 N   0  0  0  0  0  0  0  0  0  0  0  0
    9.5077    3.6288    1.7298 C   0  0  0  0  0  0  0  0  0  0  0  0
   10.6411    4.4622    1.8102 N   0  0  0  0  0  0  0  0  0  0  0  0
   10.4105    5.6966    1.2498 C   0  0  0  0  0  0  0  0  0  0  0  0
   11.3298    6.7774    1.1411 C   0  0  0  0  0  0  0  0  0  0  0  0
   11.0357    8.0017    0.5749 C   0  0  0  0  0  0  0  0  0  0  0  0
   12.1178    8.8915    0.5816 C   0  0  0  0  0  0  0  0  0  0  0  0
   13.2366    8.3591    1.1482 C   0  0  0  0  0  0  0  0  0  0  0  0
   12.9908    6.7537    1.6857 S   0  0  0  0  0  0  0  0  0  0  0  0
    5.7863    6.1497   -0.6243 C   0  0  0  0  0  0  0  0  0  0  0  0
    5.6999    5.6760   -2.0730 C   0  0  0  0  0  0  0  0  0  0  0  0
    8.1156    7.6331   -0.3188 O   0  0  0  0  0  0  0  0  0  0  0  0
    9.4978    2.4900    2.1623 O   0  0  0  0  0  0  0  0  0  0  0  0
   11.8169    3.9892    2.4982 C   0  0  0  0  0  0  0  0  0  0  0  0
   11.8698    4.4869    3.9402 C   0  0  0  0  0  0  0  0  0  0  0  0
   -7.5903   -4.5216   -0.3855 C   0  0  0  0  0  0  0  0  0  0  0  0
   -8.8854   -4.4928   -0.8994 C   0  0  0  0  0  0  0  0  0  0  0  0
   -9.5381   -5.7120   -0.5598 C   0  0  0  0  0  0  0  0  0  0  0  0
   -8.6091   -6.5085    0.1970 C   0  0  0  0  0  0  0  0  0  0  0  0
   -7.4398   -5.7267    0.2629 N   0  0  0  0  0  0  0  0  0  0  0  0
   -9.8115   -3.7000   -1.6621 C   0  0  0  0  0  0  0  0  0  0  0  0
  -10.9732   -4.4926   -1.7481 N   0  0  0  0  0  0  0  0  0  0  0  0
  -10.8247   -5.6925   -1.0927 C   0  0  0  0  0  0  0  0  0  0  0  0
  -11.7815   -6.7407   -0.9903 C   0  0  0  0  0  0  0  0  0  0  0  0
  -11.5734   -7.9284   -0.3180 C   0  0  0  0  0  0  0  0  0  0  0  0
  -12.6699   -8.7987   -0.3746 C   0  0  0  0  0  0  0  0  0  0  0  0
  -13.7146   -8.2875   -1.0842 C   0  0  0  0  0  0  0  0  0  0  0  0
  -13.3789   -6.7275   -1.7005 S   0  0  0  0  0  0  0  0  0  0  0  0
   -6.3163   -6.1970    1.0345 C   0  0  0  0  0  0  0  0  0  0  0  0
   -6.2824   -5.5734    2.4274 C   0  0  0  0  0  0  0  0  0  0  0  0
   -8.6911   -7.6115    0.7070 O   0  0  0  0  0  0  0  0  0  0  0  0
   -9.7309   -2.5962   -2.1710 O   0  0  0  0  0  0  0  0  0  0  0  0
  -12.1420   -3.9609   -2.4043 C   0  0  0  0  0  0  0  0  0  0  0  0
  -13.1292   -3.3596   -1.4074 C   0  0  0  0  0  0  0  0  0  0  0  0
    2.1181    6.6520   -4.7490 C   0  0  0  0  0  0  0  0  0  0  0  0
    4.3888   -5.5555    4.9870 C   0  0  0  0  0  0  0  0  0  0  0  0
   -2.2151   -2.9891    0.5113 H   0  0  0  0  0  0  0  0  0  0  0  0
    1.9696    2.7368   -0.3465 H   0  0  0  0  0  0  0  0  0  0  0  0
    5.5529    0.2244    1.6381 H   0  0  0  0  0  0  0  0  0  0  0  0
    7.5507    1.8841    1.6639 H   0  0  0  0  0  0  0  0  0  0  0  0
   -7.7995   -2.0314   -1.5921 H   0  0  0  0  0  0  0  0  0  0  0  0
   -5.7182   -0.4821   -1.6547 H   0  0  0  0  0  0  0  0  0  0  0  0
   -2.7617    2.7611   -0.7184 H   0  0  0  0  0  0  0  0  0  0  0  0
   -2.7075    4.9072   -2.1659 H   0  0  0  0  0  0  0  0  0  0  0  0
   -0.4585   -4.0836   -0.4483 H   0  0  0  0  0  0  0  0  0  0  0  0
    0.5309   -6.1410    0.7867 H   0  0  0  0  0  0  0  0  0  0  0  0
    1.6433    4.5577   -4.4686 H   0  0  0  0  0  0  0  0  0  0  0  0
    1.9813    5.4403   -2.9585 H   0  0  0  0  0  0  0  0  0  0  0  0
    2.8031   -4.1141    4.6681 H   0  0  0  0  0  0  0  0  0  0  0  0
    4.0275   -4.1539    3.3752 H   0  0  0  0  0  0  0  0  0  0  0  0
   10.0669    8.2350    0.1707 H   0  0  0  0  0  0  0  0  0  0  0  0
   12.0717    9.8892    0.1843 H   0  0  0  0  0  0  0  0  0  0  0  0
   14.1989    8.8124    1.2819 H   0  0  0  0  0  0  0  0  0  0  0  0
    5.8683    7.2411   -0.6076 H   0  0  0  0  0  0  0  0  0  0  0  0
    4.8982    5.8537   -0.0614 H   0  0  0  0  0  0  0  0  0  0  0  0
    6.5724    6.0184   -2.6240 H   0  0  0  0  0  0  0  0  0  0  0  0
    4.8088    6.0872   -2.5389 H   0  0  0  0  0  0  0  0  0  0  0  0
    5.6539    4.5912   -2.1293 H   0  0  0  0  0  0  0  0  0  0  0  0
   12.7146    4.2808    1.9485 H   0  0  0  0  0  0  0  0  0  0  0  0
   11.7400    2.8975    2.4959 H   0  0  0  0  0  0  0  0  0  0  0  0
   11.8924    5.5732    3.9786 H   0  0  0  0  0  0  0  0  0  0  0  0
   12.7609    4.1030    4.4281 H   0  0  0  0  0  0  0  0  0  0  0  0
   10.9949    4.1365    4.4826 H   0  0  0  0  0  0  0  0  0  0  0  0
  -10.6539   -8.1511    0.1929 H   0  0  0  0  0  0  0  0  0  0  0  0
  -12.6872   -9.7669    0.0921 H   0  0  0  0  0  0  0  0  0  0  0  0
  -14.6677   -8.7346   -1.2872 H   0  0  0  0  0  0  0  0  0  0  0  0
   -5.3857   -6.0044    0.4958 H   0  0  0  0  0  0  0  0  0  0  0  0
   -6.4544   -7.2788    1.1254 H   0  0  0  0  0  0  0  0  0  0  0  0
   -6.1970   -4.4910    2.3693 H   0  0  0  0  0  0  0  0  0  0  0  0
   -5.4322   -5.9600    2.9819 H   0  0  0  0  0  0  0  0  0  0  0  0
   -7.1940   -5.8232    2.9649 H   0  0  0  0  0  0  0  0  0  0  0  0
  -12.6169   -4.7368   -3.0086 H   0  0  0  0  0  0  0  0  0  0  0  0
  -11.7738   -3.1721   -3.0677 H   0  0  0  0  0  0  0  0  0  0  0  0
  -13.4726   -4.1078   -0.6972 H   0  0  0  0  0  0  0  0  0  0  0  0
  -13.9898   -2.9625   -1.9378 H   0  0  0  0  0  0  0  0  0  0  0  0
  -12.6516   -2.5509   -0.8594 H   0  0  0  0  0  0  0  0  0  0  0  0
    1.6351    6.7248   -5.7209 H   0  0  0  0  0  0  0  0  0  0  0  0
    3.1828    6.4834   -4.8996 H   0  0  0  0  0  0  0  0  0  0  0  0
    1.9822    7.5954   -4.2242 H   0  0  0  0  0  0  0  0  0  0  0  0
    3.8138   -6.1724    5.6736 H   0  0  0  0  0  0  0  0  0  0  0  0
    5.0140   -4.8783    5.5643 H   0  0  0  0  0  0  0  0  0  0  0  0
    5.0297   -6.2041    4.3944 H   0  0  0  0  0  0  0  0  0  0  0  0
  1 10  1  0  0  0  0
  1  2  2  0  0  0  0
  2  3  1  0  0  0  0
  2 12  1  0  0  0  0
  3 14  1  0  0  0  0
  4  7  1  0  0  0  0
  4  3  2  0  0  0  0
  5  4  1  0  0  0  0
  6  5  2  0  0  0  0
  6  1  1  0  0  0  0
  7 77  1  0  0  0  0
  8  7  2  0  0  0  0
  9  5  1  0  0  0  0
  9  8  1  0  0  0  0
 10 11  2  0  0  0  0
 11 16  1  0  0  0  0
 11 12  1  0  0  0  0
 13  6  1  0  0  0  0
 14 32  1  0  0  0  0
 15  8  1  0  0  0  0
 15 21  1  0  0  0  0
 16 17  2  0  0  0  0
 17 18  1  0  0  0  0
 17 79  1  0  0  0  0
 18 80  1  0  0  0  0
 19 18  2  0  0  0  0
 20 16  1  0  0  0  0
 20 19  1  0  0  0  0
 22 56  1  0  0  0  0
 22 21  1  0  0  0  0
 23 22  2  0  0  0  0
 24 23  1  0  0  0  0
 24 15  2  0  0  0  0
 25 13  2  0  0  0  0
 25 83  1  0  0  0  0
 26 25  1  0  0  0  0
 27 28  1  0  0  0  0
 27 26  2  0  0  0  0
 28 13  1  0  0  0  0
 29 14  2  0  0  0  0
 29 30  1  0  0  0  0
 30 31  2  0  0  0  0
 31 32  1  0  0  0  0
 31 35  1  0  0  0  0
 33 27  1  0  0  0  0
 34 33  1  0  0  0  0
 34 88  1  0  0  0  0
 35 36  1  0  0  0  0
 36 89  1  0  0  0  0
 36 76  1  0  0  0  0
 37 19  1  0  0  0  0
 37 38  2  0  0  0  0
 38 42  1  0  0  0  0
 39 38  1  0  0  0  0
 39 44  2  0  0  0  0
 40 39  1  0  0  0  0
 41 40  1  0  0  0  0
 41 37  1  0  0  0  0
 42 43  1  0  0  0  0
 42 53  2  0  0  0  0
 43 54  1  0  0  0  0
 44 43  1  0  0  0  0
 45 44  1  0  0  0  0
 45 49  1  0  0  0  0
 46 47  1  0  0  0  0
 46 45  2  0  0  0  0
 47 48  2  0  0  0  0
 48 93  1  0  0  0  0
 48 49  1  0  0  0  0
 50 94  1  0  0  0  0
 50 95  1  0  0  0  0
 50 41  1  0  0  0  0
 51 50  1  0  0  0  0
 52 40  2  0  0  0  0
 54 55  1  0  0  0  0
 55101  1  0  0  0  0
 55102  1  0  0  0  0
 55103  1  0  0  0  0
 56 60  1  0  0  0  0
 57 58  1  0  0  0  0
 57 56  2  0  0  0  0
 58 59  1  0  0  0  0
 59 60  1  0  0  0  0
 59 71  2  0  0  0  0
 60 69  1  0  0  0  0
 61 57  1  0  0  0  0
 62 61  1  0  0  0  0
 62 63  1  0  0  0  0
 63 64  1  0  0  0  0
 63 58  2  0  0  0  0
 64 65  2  0  0  0  0
 65104  1  0  0  0  0
 66 65  1  0  0  0  0
 66105  1  0  0  0  0
 67 66  2  0  0  0  0
 68 67  1  0  0  0  0
 68 64  1  0  0  0  0
 69108  1  0  0  0  0
 69 70  1  0  0  0  0
 70111  1  0  0  0  0
 70110  1  0  0  0  0
 72 61  2  0  0  0  0
 73 62  1  0  0  0  0
 73 74  1  0  0  0  0
 74116  1  0  0  0  0
 74114  1  0  0  0  0
 75119  1  0  0  0  0
 75 34  1  0  0  0  0
 76121  1  0  0  0  0
 76120  1  0  0  0  0
 78 10  1  0  0  0  0
 81 23  1  0  0  0  0
 82 24  1  0  0  0  0
 84 26  1  0  0  0  0
 85 29  1  0  0  0  0
 86 30  1  0  0  0  0
 87 34  1  0  0  0  0
 90 36  1  0  0  0  0
 91 46  1  0  0  0  0
 92 47  1  0  0  0  0
 96 51  1  0  0  0  0
 97 51  1  0  0  0  0
 98 51  1  0  0  0  0
 99 54  1  0  0  0  0
100 54  1  0  0  0  0
106 67  1  0  0  0  0
107 69  1  0  0  0  0
109 70  1  0  0  0  0
112 73  1  0  0  0  0
113 73  1  0  0  0  0
115 74  1  0  0  0  0
117 75  1  0  0  0  0
118 75  1  0  0  0  0
122 76  1  0  0  0  0
M  END
