SCF done       -233.438342954054          0.000516984353
 OpenBabel12282109573D

134146  0  0  0  0  0  0  0  0999 V2000
    1.0564   -0.4824    0.1942 C   0  0  0  0  0  0  0  0  0  0  0  0
    0.9333    0.9087   -0.0367 C   0  0  0  0  0  0  0  0  0  0  0  0
   -0.3441    1.5026   -0.0868 C   0  0  0  0  0  0  0  0  0  0  0  0
   -1.4297    0.6497    0.0760 C   0  0  0  0  0  0  0  0  0  0  0  0
   -1.3065   -0.7380    0.3330 C   0  0  0  0  0  0  0  0  0  0  0  0
   -0.0285   -1.3308    0.3956 C   0  0  0  0  0  0  0  0  0  0  0  0
   -3.0968    1.1429    0.0611 S   0  0  0  0  0  0  0  0  0  0  0  0
   -3.6274   -0.4948    0.3852 C   0  0  0  0  0  0  0  0  0  0  0  0
   -2.5695   -1.3535    0.4934 C   0  0  0  0  0  0  0  0  0  0  0  0
    2.7304   -0.9585    0.2519 S   0  0  0  0  0  0  0  0  0  0  0  0
    3.2581    0.6860   -0.0504 C   0  0  0  0  0  0  0  0  0  0  0  0
    2.1939    1.5321   -0.1885 C   0  0  0  0  0  0  0  0  0  0  0  0
    0.1719   -2.7369    0.6761 C   0  0  0  0  0  0  0  0  0  0  0  0
   -0.5052    2.9301   -0.2666 C   0  0  0  0  0  0  0  0  0  0  0  0
    1.1129   -3.5672    0.1318 C   0  0  0  0  0  0  0  0  0  0  0  0
    1.0592   -4.8803    0.6374 C   0  0  0  0  0  0  0  0  0  0  0  0
    0.1009   -5.0615    1.6000 C   0  0  0  0  0  0  0  0  0  0  0  0
   -0.7698   -3.5852    1.8730 S   0  0  0  0  0  0  0  0  0  0  0  0
    0.2224    3.9373    0.3043 C   0  0  0  0  0  0  0  0  0  0  0  0
   -0.2265    5.2224   -0.0589 C   0  0  0  0  0  0  0  0  0  0  0  0
   -1.2836    5.2097   -0.9305 C   0  0  0  0  0  0  0  0  0  0  0  0
   -1.7511    3.5785   -1.2975 S   0  0  0  0  0  0  0  0  0  0  0  0
    4.6332    1.0617   -0.0830 C   0  0  0  0  0  0  0  0  0  0  0  0
   -5.0012   -0.8325    0.5628 C   0  0  0  0  0  0  0  0  0  0  0  0
    4.9823    2.7926   -0.0246 S   0  0  0  0  0  0  0  0  0  0  0  0
    6.6786    2.4762   -0.0224 C   0  0  0  0  0  0  0  0  0  0  0  0
    6.9228    1.1053   -0.0792 C   0  0  0  0  0  0  0  0  0  0  0  0
    5.7781    0.2907   -0.1198 C   0  0  0  0  0  0  0  0  0  0  0  0
   -6.1449   -0.1146    0.2718 C   0  0  0  0  0  0  0  0  0  0  0  0
   -7.2874   -0.8312    0.6660 C   0  0  0  0  0  0  0  0  0  0  0  0
   -7.0414   -2.0757    1.2444 C   0  0  0  0  0  0  0  0  0  0  0  0
   -5.3473   -2.3982    1.3013 S   0  0  0  0  0  0  0  0  0  0  0  0
   10.3076    3.0014    0.1142 C   0  0  0  0  0  0  0  0  0  0  0  0
   10.5057    4.7159    0.3554 S   0  0  0  0  0  0  0  0  0  0  0  0
   12.2413    4.5670    0.3966 C   0  0  0  0  0  0  0  0  0  0  0  0
   12.6090    3.2474    0.2172 C   0  0  0  0  0  0  0  0  0  0  0  0
   11.5408    2.3612    0.0556 C   0  0  0  0  0  0  0  0  0  0  0  0
   13.0241    5.7218    0.6058 C   0  0  0  0  0  0  0  0  0  0  0  0
   14.3745    5.8133    0.7090 C   0  0  0  0  0  0  0  0  0  0  0  0
   15.5578    4.5331    0.6043 S   0  0  0  0  0  0  0  0  0  0  0  0
   16.8847    5.6606    0.8792 C   0  0  0  0  0  0  0  0  0  0  0  0
   16.4082    6.9186    1.0374 N   0  0  0  0  0  0  0  0  0  0  0  0
   15.0358    7.0954    0.9517 C   0  0  0  0  0  0  0  0  0  0  0  0
   18.4523    5.2164    0.9410 S   0  0  0  0  0  0  0  0  0  0  0  0
   14.4907    8.1691    1.0764 O   0  0  0  0  0  0  0  0  0  0  0  0
   17.2832    8.0542    1.2562 C   0  0  0  0  0  0  0  0  0  0  0  0
   17.8409    8.5833   -0.0588 C   0  0  0  0  0  0  0  0  0  0  0  0
    0.4915    6.6500    0.5788 Cl  0  0  0  0  0  0  0  0  0  0  0  0
   -2.1884    6.5275   -1.6325 S   0  0  0  0  0  0  0  0  0  0  0  0
   -0.8421    7.6366   -2.2268 C   0  0  0  0  0  0  0  0  0  0  0  0
    2.0987   -6.1182    0.0486 Cl  0  0  0  0  0  0  0  0  0  0  0  0
   -0.3708   -6.4892    2.4877 S   0  0  0  0  0  0  0  0  0  0  0  0
    1.2594   -7.1824    2.9923 C   0  0  0  0  0  0  0  0  0  0  0  0
  -10.6639   -2.4514    1.6943 C   0  0  0  0  0  0  0  0  0  0  0  0
  -11.9008   -1.9106    1.3606 C   0  0  0  0  0  0  0  0  0  0  0  0
  -12.9578   -2.6399    1.9077 C   0  0  0  0  0  0  0  0  0  0  0  0
  -12.5773   -3.7350    2.6628 C   0  0  0  0  0  0  0  0  0  0  0  0
  -10.8429   -3.8750    2.6872 S   0  0  0  0  0  0  0  0  0  0  0  0
  -13.4373   -4.6196    3.3422 C   0  0  0  0  0  0  0  0  0  0  0  0
  -13.0965   -5.6827    4.1147 C   0  0  0  0  0  0  0  0  0  0  0  0
  -11.4871   -6.2600    4.4661 S   0  0  0  0  0  0  0  0  0  0  0  0
  -12.1229   -7.5488    5.4890 C   0  0  0  0  0  0  0  0  0  0  0  0
  -13.4768   -7.5008    5.5280 N   0  0  0  0  0  0  0  0  0  0  0  0
  -14.0979   -6.5043    4.7922 C   0  0  0  0  0  0  0  0  0  0  0  0
  -15.2987   -6.3531    4.7473 O   0  0  0  0  0  0  0  0  0  0  0  0
  -14.2621   -8.4559    6.2856 C   0  0  0  0  0  0  0  0  0  0  0  0
  -14.4664   -9.7480    5.5052 C   0  0  0  0  0  0  0  0  0  0  0  0
  -11.1844   -8.6256    6.2750 S   0  0  0  0  0  0  0  0  0  0  0  0
   11.7639    0.8919   -0.1150 C   0  0  0  0  0  0  0  0  0  0  0  0
   11.7467    0.1763    1.2374 C   0  0  0  0  0  0  0  0  0  0  0  0
    5.8696   -1.2000   -0.1666 C   0  0  0  0  0  0  0  0  0  0  0  0
    5.9652   -1.7886    1.2419 C   0  0  0  0  0  0  0  0  0  0  0  0
    7.8315    3.2587    0.0351 C   0  0  0  0  0  0  0  0  0  0  0  0
    8.9813    2.4945    0.0236 C   0  0  0  0  0  0  0  0  0  0  0  0
    8.6170    0.7783   -0.0701 S   0  0  0  0  0  0  0  0  0  0  0  0
   -1.2759    8.3035   -3.5166 C   0  0  0  0  0  0  0  0  0  0  0  0
    1.1185   -7.8527    4.3441 C   0  0  0  0  0  0  0  0  0  0  0  0
   -8.9799   -0.5026    0.6007 S   0  0  0  0  0  0  0  0  0  0  0  0
   -9.3412   -2.0407    1.3697 C   0  0  0  0  0  0  0  0  0  0  0  0
   -8.1924   -2.7554    1.6434 C   0  0  0  0  0  0  0  0  0  0  0  0
   -6.2341    1.2434   -0.3456 C   0  0  0  0  0  0  0  0  0  0  0  0
   -6.2734    2.3322    0.7283 C   0  0  0  0  0  0  0  0  0  0  0  0
  -12.1325   -0.6755    0.5487 C   0  0  0  0  0  0  0  0  0  0  0  0
  -12.1417    0.5686    1.4393 C   0  0  0  0  0  0  0  0  0  0  0  0
   -2.7058   -2.4036    0.6746 H   0  0  0  0  0  0  0  0  0  0  0  0
    2.3170    2.5750   -0.4158 H   0  0  0  0  0  0  0  0  0  0  0  0
    1.7926   -3.2798   -0.6486 H   0  0  0  0  0  0  0  0  0  0  0  0
    1.0141    3.7809    1.0135 H   0  0  0  0  0  0  0  0  0  0  0  0
   13.6348    2.9258    0.2008 H   0  0  0  0  0  0  0  0  0  0  0  0
   12.4943    6.6617    0.7100 H   0  0  0  0  0  0  0  0  0  0  0  0
   18.0946    7.7347    1.9146 H   0  0  0  0  0  0  0  0  0  0  0  0
   16.6775    8.8184    1.7490 H   0  0  0  0  0  0  0  0  0  0  0  0
   18.4305    7.8164   -0.5555 H   0  0  0  0  0  0  0  0  0  0  0  0
   18.4780    9.4407    0.1364 H   0  0  0  0  0  0  0  0  0  0  0  0
   17.0302    8.8910   -0.7152 H   0  0  0  0  0  0  0  0  0  0  0  0
    0.0375    7.0136   -2.3760 H   0  0  0  0  0  0  0  0  0  0  0  0
   -0.6461    8.3718   -1.4477 H   0  0  0  0  0  0  0  0  0  0  0  0
    1.9593   -6.3499    3.0305 H   0  0  0  0  0  0  0  0  0  0  0  0
    1.5717   -7.8937    2.2292 H   0  0  0  0  0  0  0  0  0  0  0  0
  -13.9911   -2.3784    1.7605 H   0  0  0  0  0  0  0  0  0  0  0  0
  -14.5004   -4.4282    3.2527 H   0  0  0  0  0  0  0  0  0  0  0  0
  -15.2224   -7.9743    6.4849 H   0  0  0  0  0  0  0  0  0  0  0  0
  -13.7392   -8.6557    7.2240 H   0  0  0  0  0  0  0  0  0  0  0  0
  -14.9761   -9.5447    4.5664 H   0  0  0  0  0  0  0  0  0  0  0  0
  -15.0714  -10.4336    6.0911 H   0  0  0  0  0  0  0  0  0  0  0  0
  -13.5086  -10.2186    5.2965 H   0  0  0  0  0  0  0  0  0  0  0  0
   12.7375    0.7422   -0.5853 H   0  0  0  0  0  0  0  0  0  0  0  0
   11.0033    0.4624   -0.7686 H   0  0  0  0  0  0  0  0  0  0  0  0
   12.5288    0.5712    1.8817 H   0  0  0  0  0  0  0  0  0  0  0  0
   11.9137   -0.8884    1.0988 H   0  0  0  0  0  0  0  0  0  0  0  0
   10.7892    0.3139    1.7334 H   0  0  0  0  0  0  0  0  0  0  0  0
    6.7680   -1.4688   -0.7279 H   0  0  0  0  0  0  0  0  0  0  0  0
    5.0036   -1.6171   -0.6813 H   0  0  0  0  0  0  0  0  0  0  0  0
    6.8419   -1.3997    1.7550 H   0  0  0  0  0  0  0  0  0  0  0  0
    6.0453   -2.8708    1.1879 H   0  0  0  0  0  0  0  0  0  0  0  0
    5.0807   -1.5355    1.8211 H   0  0  0  0  0  0  0  0  0  0  0  0
    7.8398    4.3319    0.0884 H   0  0  0  0  0  0  0  0  0  0  0  0
   -1.4809    7.5582   -4.2814 H   0  0  0  0  0  0  0  0  0  0  0  0
   -0.4873    8.9636   -3.8715 H   0  0  0  0  0  0  0  0  0  0  0  0
   -2.1769    8.8911   -3.3570 H   0  0  0  0  0  0  0  0  0  0  0  0
    0.7940   -7.1355    5.0943 H   0  0  0  0  0  0  0  0  0  0  0  0
    2.0765   -8.2698    4.6478 H   0  0  0  0  0  0  0  0  0  0  0  0
    0.3877   -8.6566    4.2964 H   0  0  0  0  0  0  0  0  0  0  0  0
   -8.1996   -3.7226    2.1119 H   0  0  0  0  0  0  0  0  0  0  0  0
   -7.1532    1.2903   -0.9349 H   0  0  0  0  0  0  0  0  0  0  0  0
   -5.3881    1.4157   -1.0118 H   0  0  0  0  0  0  0  0  0  0  0  0
   -7.1362    2.1929    1.3759 H   0  0  0  0  0  0  0  0  0  0  0  0
   -6.3408    3.3112    0.2621 H   0  0  0  0  0  0  0  0  0  0  0  0
   -5.3727    2.3006    1.3360 H   0  0  0  0  0  0  0  0  0  0  0  0
  -13.0990   -0.7645    0.0487 H   0  0  0  0  0  0  0  0  0  0  0  0
  -11.3635   -0.5724   -0.2181 H   0  0  0  0  0  0  0  0  0  0  0  0
  -12.9287    0.4918    2.1861 H   0  0  0  0  0  0  0  0  0  0  0  0
  -12.3159    1.4575    0.8390 H   0  0  0  0  0  0  0  0  0  0  0  0
  -11.1899    0.6797    1.9523 H   0  0  0  0  0  0  0  0  0  0  0  0
  1 10  1  0  0  0  0
  1  6  2  0  0  0  0
  2  1  1  0  0  0  0
  3  2  2  0  0  0  0
  3  4  1  0  0  0  0
  4  5  2  0  0  0  0
  5  6  1  0  0  0  0
  5  9  1  0  0  0  0
  6 13  1  0  0  0  0
  7  4  1  0  0  0  0
  7  8  1  0  0  0  0
  8  9  2  0  0  0  0
  8 24  1  0  0  0  0
  9 85  1  0  0  0  0
 11 10  1  0  0  0  0
 12 11  2  0  0  0  0
 12  2  1  0  0  0  0
 13 18  1  0  0  0  0
 14  3  1  0  0  0  0
 14 19  2  0  0  0  0
 15 16  1  0  0  0  0
 15 13  2  0  0  0  0
 16 17  2  0  0  0  0
 17 18  1  0  0  0  0
 17 52  1  0  0  0  0
 19 88  1  0  0  0  0
 20 19  1  0  0  0  0
 20 48  1  0  0  0  0
 21 20  2  0  0  0  0
 22 21  1  0  0  0  0
 22 14  1  0  0  0  0
 23 11  1  0  0  0  0
 23 25  1  0  0  0  0
 24 32  1  0  0  0  0
 25 26  1  0  0  0  0
 26 73  1  0  0  0  0
 27 75  1  0  0  0  0
 27 26  2  0  0  0  0
 28 23  2  0  0  0  0
 28 27  1  0  0  0  0
 29 24  2  0  0  0  0
 29 30  1  0  0  0  0
 30 31  2  0  0  0  0
 31 32  1  0  0  0  0
 31 80  1  0  0  0  0
 33 34  1  0  0  0  0
 34 35  1  0  0  0  0
 35 38  1  0  0  0  0
 36 35  2  0  0  0  0
 37 33  2  0  0  0  0
 37 36  1  0  0  0  0
 38 39  2  0  0  0  0
 38 90  1  0  0  0  0
 39 43  1  0  0  0  0
 40 39  1  0  0  0  0
 40 41  1  0  0  0  0
 41 44  2  0  0  0  0
 41 42  1  0  0  0  0
 42 46  1  0  0  0  0
 43 42  1  0  0  0  0
 43 45  2  0  0  0  0
 46 92  1  0  0  0  0
 46 91  1  0  0  0  0
 47 94  1  0  0  0  0
 47 46  1  0  0  0  0
 49 21  1  0  0  0  0
 50 49  1  0  0  0  0
 50 97  1  0  0  0  0
 51 16  1  0  0  0  0
 52 53  1  0  0  0  0
 53 98  1  0  0  0  0
 53 77  1  0  0  0  0
 54 58  1  0  0  0  0
 55 54  2  0  0  0  0
 55 56  1  0  0  0  0
 56 57  2  0  0  0  0
 57 58  1  0  0  0  0
 57 59  1  0  0  0  0
 59 60  2  0  0  0  0
 60 61  1  0  0  0  0
 60 64  1  0  0  0  0
 61 62  1  0  0  0  0
 62 63  1  0  0  0  0
 62 68  2  0  0  0  0
 63 66  1  0  0  0  0
 64 63  1  0  0  0  0
 65 64  2  0  0  0  0
 66102  1  0  0  0  0
 66103  1  0  0  0  0
 67105  1  0  0  0  0
 67 66  1  0  0  0  0
 69 37  1  0  0  0  0
 69 70  1  0  0  0  0
 70111  1  0  0  0  0
 70109  1  0  0  0  0
 71 28  1  0  0  0  0
 71 72  1  0  0  0  0
 72114  1  0  0  0  0
 72116  1  0  0  0  0
 73117  1  0  0  0  0
 74 73  2  0  0  0  0
 74 33  1  0  0  0  0
 75 74  1  0  0  0  0
 76120  1  0  0  0  0
 76 50  1  0  0  0  0
 77122  1  0  0  0  0
 77121  1  0  0  0  0
 78 30  1  0  0  0  0
 78 79  1  0  0  0  0
 79 80  2  0  0  0  0
 79 54  1  0  0  0  0
 80124  1  0  0  0  0
 81 29  1  0  0  0  0
 81 82  1  0  0  0  0
 82129  1  0  0  0  0
 82127  1  0  0  0  0
 83 55  1  0  0  0  0
 83 84  1  0  0  0  0
 84134  1  0  0  0  0
 84132  1  0  0  0  0
 86 12  1  0  0  0  0
 87 15  1  0  0  0  0
 89 36  1  0  0  0  0
 93 47  1  0  0  0  0
 95 47  1  0  0  0  0
 96 50  1  0  0  0  0
 99 53  1  0  0  0  0
100 56  1  0  0  0  0
101 59  1  0  0  0  0
104 67  1  0  0  0  0
106 67  1  0  0  0  0
107 69  1  0  0  0  0
108 69  1  0  0  0  0
110 70  1  0  0  0  0
112 71  1  0  0  0  0
113 71  1  0  0  0  0
115 72  1  0  0  0  0
118 76  1  0  0  0  0
119 76  1  0  0  0  0
123 77  1  0  0  0  0
125 81  1  0  0  0  0
126 81  1  0  0  0  0
128 82  1  0  0  0  0
130 83  1  0  0  0  0
131 83  1  0  0  0  0
133 84  1  0  0  0  0
M  END
