SCF done       -460.433280902122          0.000305774734
 OpenBabel12282109573D

257289  0  0  0  0  0  0  0  0999 V2000
   -3.0164  -15.3806   -8.6867 C   0  0  0  0  0  0  0  0  0  0  0  0
   -2.7041  -14.0682   -8.2594 C   0  0  0  0  0  0  0  0  0  0  0  0
   -3.5177  -13.3302   -7.4015 C   0  0  0  0  0  0  0  0  0  0  0  0
   -4.7254  -13.9491   -7.0196 C   0  0  0  0  0  0  0  0  0  0  0  0
   -5.0272  -15.2723   -7.4210 C   0  0  0  0  0  0  0  0  0  0  0  0
   -4.1832  -16.0241   -8.2299 C   0  0  0  0  0  0  0  0  0  0  0  0
   -5.7422  -13.4171   -6.1987 C   0  0  0  0  0  0  0  0  0  0  0  0
   -6.7481  -14.2890   -5.8958 C   0  0  0  0  0  0  0  0  0  0  0  0
   -6.5219  -15.8255   -6.7043 S   0  0  0  0  0  0  0  0  0  0  0  0
   -2.0250  -15.8925   -9.5756 C   0  0  0  0  0  0  0  0  0  0  0  0
   -1.0047  -15.0356   -9.7786 C   0  0  0  0  0  0  0  0  0  0  0  0
   -1.1754  -13.5472   -8.9162 S   0  0  0  0  0  0  0  0  0  0  0  0
   -4.4532  -17.4103   -8.5550 C   0  0  0  0  0  0  0  0  0  0  0  0
   -3.1389  -12.0236   -6.9026 C   0  0  0  0  0  0  0  0  0  0  0  0
   -7.7580  -13.9917   -4.9308 C   0  0  0  0  0  0  0  0  0  0  0  0
   -3.5692  -18.4517   -8.5809 C   0  0  0  0  0  0  0  0  0  0  0  0
   -4.1947  -19.6667   -8.9208 C   0  0  0  0  0  0  0  0  0  0  0  0
   -5.5329  -19.5869   -9.1658 C   0  0  0  0  0  0  0  0  0  0  0  0
   -6.0592  -17.9514   -8.9589 S   0  0  0  0  0  0  0  0  0  0  0  0
   -2.4356  -11.0362   -7.5394 C   0  0  0  0  0  0  0  0  0  0  0  0
   -2.2700   -9.8984   -6.7300 C   0  0  0  0  0  0  0  0  0  0  0  0
   -2.8130   -9.9774   -5.4790 C   0  0  0  0  0  0  0  0  0  0  0  0
   -3.5354  -11.5283   -5.2751 S   0  0  0  0  0  0  0  0  0  0  0  0
   -7.4760  -12.5435   -4.0055 S   0  0  0  0  0  0  0  0  0  0  0  0
   -8.8510  -12.8511   -2.9933 C   0  0  0  0  0  0  0  0  0  0  0  0
   -9.4986  -13.9943   -3.3958 C   0  0  0  0  0  0  0  0  0  0  0  0
   -8.8891  -14.6471   -4.4872 C   0  0  0  0  0  0  0  0  0  0  0  0
   -3.5105  -20.8240   -9.0015 F   0  0  0  0  0  0  0  0  0  0  0  0
   -6.4779  -20.6839   -9.5152 C   0  0  0  0  0  0  0  0  0  0  0  0
   -7.4683  -20.9467   -8.3798 C   0  0  0  0  0  0  0  0  0  0  0  0
   -1.6309   -8.7932   -7.1665 F   0  0  0  0  0  0  0  0  0  0  0  0
   -2.8736   -8.9188   -4.4282 C   0  0  0  0  0  0  0  0  0  0  0  0
   -3.6726   -9.3477   -3.2047 C   0  0  0  0  0  0  0  0  0  0  0  0
   -9.3960  -15.9381   -5.0480 C   0  0  0  0  0  0  0  0  0  0  0  0
   -8.8035  -17.1304   -4.2940 C   0  0  0  0  0  0  0  0  0  0  0  0
   -9.0279  -11.9671   -1.8857 C   0  0  0  0  0  0  0  0  0  0  0  0
   -7.7974  -10.7323   -1.7049 S   0  0  0  0  0  0  0  0  0  0  0  0
   -8.4756  -10.2325   -0.2046 C   0  0  0  0  0  0  0  0  0  0  0  0
   -9.6285  -10.9591    0.1161 C   0  0  0  0  0  0  0  0  0  0  0  0
   -9.9298  -11.9431   -0.8528 C   0  0  0  0  0  0  0  0  0  0  0  0
   -7.9076   -9.2965    0.6620 C   0  0  0  0  0  0  0  0  0  0  0  0
   -8.4559   -9.0009    1.9154 C   0  0  0  0  0  0  0  0  0  0  0  0
   -9.6696   -9.6647    2.2500 C   0  0  0  0  0  0  0  0  0  0  0  0
  -10.2517  -10.6429    1.3557 C   0  0  0  0  0  0  0  0  0  0  0  0
   -6.4128   -8.4804    0.4031 S   0  0  0  0  0  0  0  0  0  0  0  0
   -6.4862   -7.7787    2.0058 C   0  0  0  0  0  0  0  0  0  0  0  0
   -7.6373   -8.1282    2.6658 C   0  0  0  0  0  0  0  0  0  0  0  0
  -10.3794   -9.5212    3.3581 N   0  0  0  0  0  0  0  0  0  0  0  0
  -11.6567  -10.5088    3.2955 S   0  0  0  0  0  0  0  0  0  0  0  0
  -11.3602  -11.1703    1.8513 N   0  0  0  0  0  0  0  0  0  0  0  0
   -5.3378   -7.0506    2.4380 C   0  0  0  0  0  0  0  0  0  0  0  0
   -5.0873   -6.3291    3.5796 C   0  0  0  0  0  0  0  0  0  0  0  0
   -3.7703   -5.8409    3.6773 C   0  0  0  0  0  0  0  0  0  0  0  0
   -2.9929   -6.1938    2.5897 C   0  0  0  0  0  0  0  0  0  0  0  0
   -3.9198   -7.1202    1.4389 S   0  0  0  0  0  0  0  0  0  0  0  0
   -3.3075   -5.0137    4.8342 C   0  0  0  0  0  0  0  0  0  0  0  0
   -3.3880   -3.5213    4.5078 C   0  0  0  0  0  0  0  0  0  0  0  0
    0.3942   -6.3088    1.1185 C   0  0  0  0  0  0  0  0  0  0  0  0
    0.8430   -5.5000    2.1901 C   0  0  0  0  0  0  0  0  0  0  0  0
    2.1607   -5.0710    2.3258 C   0  0  0  0  0  0  0  0  0  0  0  0
    3.0673   -5.5005    1.3321 C   0  0  0  0  0  0  0  0  0  0  0  0
    2.6066   -6.2997    0.2571 C   0  0  0  0  0  0  0  0  0  0  0  0
    1.2958   -6.7388    0.1265 C   0  0  0  0  0  0  0  0  0  0  0  0
    4.4694   -5.3119    1.2738 C   0  0  0  0  0  0  0  0  0  0  0  0
    5.0711   -5.9081    0.2000 C   0  0  0  0  0  0  0  0  0  0  0  0
    3.9043   -6.7337   -0.8132 S   0  0  0  0  0  0  0  0  0  0  0  0
   -0.9927   -6.5613    1.1901 C   0  0  0  0  0  0  0  0  0  0  0  0
   -1.6123   -6.0117    2.2778 C   0  0  0  0  0  0  0  0  0  0  0  0
   -0.4770   -5.1122    3.2652 S   0  0  0  0  0  0  0  0  0  0  0  0
    0.8949   -7.6500   -0.9275 C   0  0  0  0  0  0  0  0  0  0  0  0
    2.5596   -4.2150    3.4233 C   0  0  0  0  0  0  0  0  0  0  0  0
    6.4655   -5.9666   -0.0854 C   0  0  0  0  0  0  0  0  0  0  0  0
    0.1128   -8.7651   -0.8165 C   0  0  0  0  0  0  0  0  0  0  0  0
    0.0113   -9.4622   -2.0360 C   0  0  0  0  0  0  0  0  0  0  0  0
    0.6791   -8.9066   -3.0869 C   0  0  0  0  0  0  0  0  0  0  0  0
    1.4763   -7.4634   -2.5597 S   0  0  0  0  0  0  0  0  0  0  0  0
    2.1125   -4.2356    4.7148 C   0  0  0  0  0  0  0  0  0  0  0  0
    2.6837   -3.2086    5.4900 C   0  0  0  0  0  0  0  0  0  0  0  0
    3.5450   -2.3845    4.8291 C   0  0  0  0  0  0  0  0  0  0  0  0
    3.6773   -2.8976    3.1829 S   0  0  0  0  0  0  0  0  0  0  0  0
    7.5967   -5.4233    1.1311 S   0  0  0  0  0  0  0  0  0  0  0  0
    8.9425   -5.9181    0.1521 C   0  0  0  0  0  0  0  0  0  0  0  0
    8.5127   -6.4342   -1.0473 C   0  0  0  0  0  0  0  0  0  0  0  0
    7.1206   -6.4678   -1.1999 C   0  0  0  0  0  0  0  0  0  0  0  0
   -0.6929  -10.6048   -2.1484 F   0  0  0  0  0  0  0  0  0  0  0  0
    0.8159   -9.4209   -4.4789 C   0  0  0  0  0  0  0  0  0  0  0  0
    2.2582   -9.8331   -4.7755 C   0  0  0  0  0  0  0  0  0  0  0  0
    2.3912   -3.0524    6.7947 F   0  0  0  0  0  0  0  0  0  0  0  0
    4.3230   -1.2318    5.3623 C   0  0  0  0  0  0  0  0  0  0  0  0
    5.8254   -1.5171    5.3513 C   0  0  0  0  0  0  0  0  0  0  0  0
    6.4242   -6.9890   -2.4190 C   0  0  0  0  0  0  0  0  0  0  0  0
    7.3546   -7.2817   -3.5898 C   0  0  0  0  0  0  0  0  0  0  0  0
   10.2886   -5.8536    0.6075 C   0  0  0  0  0  0  0  0  0  0  0  0
   11.5292   -6.6404   -0.3506 S   0  0  0  0  0  0  0  0  0  0  0  0
   12.7326   -6.2478    0.8271 C   0  0  0  0  0  0  0  0  0  0  0  0
   12.1885   -5.5172    1.8927 C   0  0  0  0  0  0  0  0  0  0  0  0
   10.8020   -5.3068    1.7540 C   0  0  0  0  0  0  0  0  0  0  0  0
   14.0793   -6.6243    0.7959 C   0  0  0  0  0  0  0  0  0  0  0  0
   14.9700   -6.2850    1.8238 C   0  0  0  0  0  0  0  0  0  0  0  0
   14.4606   -5.5124    2.9023 C   0  0  0  0  0  0  0  0  0  0  0  0
   13.0701   -5.1309    2.9380 C   0  0  0  0  0  0  0  0  0  0  0  0
   14.8506   -7.5832   -0.4194 S   0  0  0  0  0  0  0  0  0  0  0  0
   16.3635   -7.5460    0.4660 C   0  0  0  0  0  0  0  0  0  0  0  0
   16.2600   -6.8132    1.6195 C   0  0  0  0  0  0  0  0  0  0  0  0
   15.1259   -5.0727    3.9598 N   0  0  0  0  0  0  0  0  0  0  0  0
   14.1091   -4.2554    4.9125 S   0  0  0  0  0  0  0  0  0  0  0  0
   12.7734   -4.4273    4.0203 N   0  0  0  0  0  0  0  0  0  0  0  0
   17.4744   -8.2703   -0.0477 C   0  0  0  0  0  0  0  0  0  0  0  0
   17.5016   -9.0276   -1.1950 C   0  0  0  0  0  0  0  0  0  0  0  0
   18.7210   -9.6750   -1.4342 C   0  0  0  0  0  0  0  0  0  0  0  0
   19.6541   -9.4050   -0.4451 C   0  0  0  0  0  0  0  0  0  0  0  0
   19.0022   -8.3351    0.7735 S   0  0  0  0  0  0  0  0  0  0  0  0
   18.9894  -10.5545   -2.6160 C   0  0  0  0  0  0  0  0  0  0  0  0
   17.8319  -10.6466   -3.6022 C   0  0  0  0  0  0  0  0  0  0  0  0
   23.1419  -10.1221    0.5894 C   0  0  0  0  0  0  0  0  0  0  0  0
   23.1984  -11.0312   -0.4948 C   0  0  0  0  0  0  0  0  0  0  0  0
   24.2962  -11.8408   -0.7674 C   0  0  0  0  0  0  0  0  0  0  0  0
   25.4044  -11.6971    0.0899 C   0  0  0  0  0  0  0  0  0  0  0  0
   25.3563  -10.7822    1.1692 C   0  0  0  0  0  0  0  0  0  0  0  0
   24.2523   -9.9820    1.4480 C   0  0  0  0  0  0  0  0  0  0  0  0
   26.6609  -12.3416   -0.0068 C   0  0  0  0  0  0  0  0  0  0  0  0
   27.5578  -11.9602    0.9482 C   0  0  0  0  0  0  0  0  0  0  0  0
   26.8660  -10.7696    2.0382 S   0  0  0  0  0  0  0  0  0  0  0  0
   21.8772   -9.4940    0.6790 C   0  0  0  0  0  0  0  0  0  0  0  0
   20.9928   -9.8668   -0.2947 C   0  0  0  0  0  0  0  0  0  0  0  0
   21.7035  -11.0414   -1.3849 S   0  0  0  0  0  0  0  0  0  0  0  0
   24.2671   -9.0493    2.5556 C   0  0  0  0  0  0  0  0  0  0  0  0
   24.2694  -12.7895   -1.8623 C   0  0  0  0  0  0  0  0  0  0  0  0
   28.8990  -12.4022    1.1615 C   0  0  0  0  0  0  0  0  0  0  0  0
   24.8312   -9.2186    3.7889 C   0  0  0  0  0  0  0  0  0  0  0  0
   24.6861   -8.0762    4.5989 C   0  0  0  0  0  0  0  0  0  0  0  0
   24.0438   -7.0232    4.0185 C   0  0  0  0  0  0  0  0  0  0  0  0
   23.5820   -7.4522    2.4083 S   0  0  0  0  0  0  0  0  0  0  0  0
   23.6971  -12.6364   -3.0934 C   0  0  0  0  0  0  0  0  0  0  0  0
   23.8024  -13.8012   -3.8779 C   0  0  0  0  0  0  0  0  0  0  0  0
   24.4329  -14.8535   -3.2848 C   0  0  0  0  0  0  0  0  0  0  0  0
   24.9247  -14.3977   -1.6902 S   0  0  0  0  0  0  0  0  0  0  0  0
   29.6502  -12.0615    2.6999 S   0  0  0  0  0  0  0  0  0  0  0  0
   31.1160  -12.8508    2.2107 C   0  0  0  0  0  0  0  0  0  0  0  0
   31.0039  -13.3301    0.9280 C   0  0  0  0  0  0  0  0  0  0  0  0
   29.7633  -13.0827    0.3212 C   0  0  0  0  0  0  0  0  0  0  0  0
   25.1515   -8.0308    5.8606 F   0  0  0  0  0  0  0  0  0  0  0  0
   23.7107   -5.6963    4.6074 C   0  0  0  0  0  0  0  0  0  0  0  0
   22.1986   -5.4928    4.7088 C   0  0  0  0  0  0  0  0  0  0  0  0
   23.3182  -13.8628   -5.1326 F   0  0  0  0  0  0  0  0  0  0  0  0
   24.6871  -16.2153   -3.8319 C   0  0  0  0  0  0  0  0  0  0  0  0
   23.9629  -17.2916   -3.0228 C   0  0  0  0  0  0  0  0  0  0  0  0
   29.4801  -13.5355   -1.0768 C   0  0  0  0  0  0  0  0  0  0  0  0
   28.8958  -14.9504   -1.0920 C   0  0  0  0  0  0  0  0  0  0  0  0
   32.2384  -12.9476    3.0793 C   0  0  0  0  0  0  0  0  0  0  0  0
   33.6841  -13.7773    2.5362 S   0  0  0  0  0  0  0  0  0  0  0  0
   34.4699  -13.4665    4.0471 C   0  0  0  0  0  0  0  0  0  0  0  0
   33.6351  -12.7519    4.9181 C   0  0  0  0  0  0  0  0  0  0  0  0
   32.3766  -12.4671    4.3542 C   0  0  0  0  0  0  0  0  0  0  0  0
   35.7649  -13.8511    4.4153 C   0  0  0  0  0  0  0  0  0  0  0  0
   36.2965  -13.5432    5.6749 C   0  0  0  0  0  0  0  0  0  0  0  0
   35.4771  -12.8192    6.5810 C   0  0  0  0  0  0  0  0  0  0  0  0
   34.1449  -12.4228    6.2021 C   0  0  0  0  0  0  0  0  0  0  0  0
   36.9030  -14.7316    3.4509 S   0  0  0  0  0  0  0  0  0  0  0  0
   38.0860  -14.6831    4.7419 C   0  0  0  0  0  0  0  0  0  0  0  0
   37.6108  -14.0225    5.8421 C   0  0  0  0  0  0  0  0  0  0  0  0
   35.7841  -12.4296    7.8095 N   0  0  0  0  0  0  0  0  0  0  0  0
   34.5216  -11.6389    8.4346 S   0  0  0  0  0  0  0  0  0  0  0  0
   33.5274  -11.7582    7.1673 N   0  0  0  0  0  0  0  0  0  0  0  0
   39.3614  -15.2937    4.5585 C   0  0  0  0  0  0  0  0  0  0  0  0
   39.8392  -15.9387    3.4478 C   0  0  0  0  0  0  0  0  0  0  0  0
   41.1547  -16.4285    3.6006 C   0  0  0  0  0  0  0  0  0  0  0  0
   41.6565  -16.1481    4.8360 C   0  0  0  0  0  0  0  0  0  0  0  0
   40.5515  -15.2850    5.8297 S   0  0  0  0  0  0  0  0  0  0  0  0
   41.8812  -17.1973    2.5424 C   0  0  0  0  0  0  0  0  0  0  0  0
   41.3512  -18.6288    2.4499 C   0  0  0  0  0  0  0  0  0  0  0  0
   -5.7449  -12.4086   -5.8317 H   0  0  0  0  0  0  0  0  0  0  0  0
   -2.0981  -16.8507  -10.0555 H   0  0  0  0  0  0  0  0  0  0  0  0
   -0.1417  -15.1718  -10.4005 H   0  0  0  0  0  0  0  0  0  0  0  0
   -2.5286  -18.3762   -8.3255 H   0  0  0  0  0  0  0  0  0  0  0  0
   -2.0894  -11.0843   -8.5546 H   0  0  0  0  0  0  0  0  0  0  0  0
  -10.3816  -14.3701   -2.9099 H   0  0  0  0  0  0  0  0  0  0  0  0
   -5.8967  -21.5860   -9.7180 H   0  0  0  0  0  0  0  0  0  0  0  0
   -7.0296  -20.4184  -10.4207 H   0  0  0  0  0  0  0  0  0  0  0  0
   -6.9387  -21.2327   -7.4739 H   0  0  0  0  0  0  0  0  0  0  0  0
   -8.1475  -21.7498   -8.6536 H   0  0  0  0  0  0  0  0  0  0  0  0
   -8.0495  -20.0507   -8.1730 H   0  0  0  0  0  0  0  0  0  0  0  0
   -3.3201   -8.0223   -4.8713 H   0  0  0  0  0  0  0  0  0  0  0  0
   -1.8569   -8.6501   -4.1276 H   0  0  0  0  0  0  0  0  0  0  0  0
   -4.6940   -9.6021   -3.4797 H   0  0  0  0  0  0  0  0  0  0  0  0
   -3.7034   -8.5429   -2.4743 H   0  0  0  0  0  0  0  0  0  0  0  0
   -3.2161  -10.2186   -2.7409 H   0  0  0  0  0  0  0  0  0  0  0  0
   -9.1328  -16.0129   -6.1046 H   0  0  0  0  0  0  0  0  0  0  0  0
  -10.4842  -15.9600   -4.9616 H   0  0  0  0  0  0  0  0  0  0  0  0
   -7.7204  -17.1357   -4.3864 H   0  0  0  0  0  0  0  0  0  0  0  0
   -9.1891  -18.0612   -4.7020 H   0  0  0  0  0  0  0  0  0  0  0  0
   -9.0605  -17.0785   -3.2384 H   0  0  0  0  0  0  0  0  0  0  0  0
  -10.7649  -12.6132   -0.7670 H   0  0  0  0  0  0  0  0  0  0  0  0
   -7.8801   -7.8084    3.6620 H   0  0  0  0  0  0  0  0  0  0  0  0
   -5.8309   -6.1594    4.3378 H   0  0  0  0  0  0  0  0  0  0  0  0
   -2.2787   -5.2714    5.0916 H   0  0  0  0  0  0  0  0  0  0  0  0
   -3.9396   -5.2298    5.6974 H   0  0  0  0  0  0  0  0  0  0  0  0
   -2.7509   -3.2828    3.6598 H   0  0  0  0  0  0  0  0  0  0  0  0
   -3.0607   -2.9335    5.3612 H   0  0  0  0  0  0  0  0  0  0  0  0
   -4.4102   -3.2418    4.2623 H   0  0  0  0  0  0  0  0  0  0  0  0
    5.0348   -4.7745    2.0129 H   0  0  0  0  0  0  0  0  0  0  0  0
   -1.5268   -7.1251    0.4474 H   0  0  0  0  0  0  0  0  0  0  0  0
   -0.3312   -9.1128    0.0976 H   0  0  0  0  0  0  0  0  0  0  0  0
    1.4378   -4.9662    5.1195 H   0  0  0  0  0  0  0  0  0  0  0  0
    9.2084   -6.7872   -1.7863 H   0  0  0  0  0  0  0  0  0  0  0  0
    0.5110   -8.6518   -5.1934 H   0  0  0  0  0  0  0  0  0  0  0  0
    0.1547  -10.2826   -4.5965 H   0  0  0  0  0  0  0  0  0  0  0  0
    2.9241   -8.9807   -4.6601 H   0  0  0  0  0  0  0  0  0  0  0  0
    2.3369  -10.2045   -5.7937 H   0  0  0  0  0  0  0  0  0  0  0  0
    2.5768  -10.6175   -4.0926 H   0  0  0  0  0  0  0  0  0  0  0  0
    3.9886   -1.0361    6.3834 H   0  0  0  0  0  0  0  0  0  0  0  0
    4.1212   -0.3432    4.7580 H   0  0  0  0  0  0  0  0  0  0  0  0
    6.0512   -2.3876    5.9629 H   0  0  0  0  0  0  0  0  0  0  0  0
    6.3710   -0.6643    5.7466 H   0  0  0  0  0  0  0  0  0  0  0  0
    6.1655   -1.7089    4.3359 H   0  0  0  0  0  0  0  0  0  0  0  0
    5.6718   -6.2600   -2.7339 H   0  0  0  0  0  0  0  0  0  0  0  0
    5.8867   -7.9049   -2.1528 H   0  0  0  0  0  0  0  0  0  0  0  0
    7.9138   -6.3923   -3.8706 H   0  0  0  0  0  0  0  0  0  0  0  0
    6.7678   -7.6017   -4.4475 H   0  0  0  0  0  0  0  0  0  0  0  0
    8.0549   -8.0760   -3.3438 H   0  0  0  0  0  0  0  0  0  0  0  0
   10.2076   -4.7805    2.4785 H   0  0  0  0  0  0  0  0  0  0  0  0
   17.0749   -6.6675    2.3049 H   0  0  0  0  0  0  0  0  0  0  0  0
   16.6419   -9.1058   -1.8350 H   0  0  0  0  0  0  0  0  0  0  0  0
   19.2353  -11.5593   -2.2580 H   0  0  0  0  0  0  0  0  0  0  0  0
   19.8749  -10.1793   -3.1382 H   0  0  0  0  0  0  0  0  0  0  0  0
   16.9512  -11.0744   -3.1294 H   0  0  0  0  0  0  0  0  0  0  0  0
   18.1156  -11.2864   -4.4343 H   0  0  0  0  0  0  0  0  0  0  0  0
   17.5799   -9.6652   -3.9970 H   0  0  0  0  0  0  0  0  0  0  0  0
   26.8743  -13.0717   -0.7597 H   0  0  0  0  0  0  0  0  0  0  0  0
   21.6085   -8.7929    1.4475 H   0  0  0  0  0  0  0  0  0  0  0  0
   25.2982  -10.1228    4.1314 H   0  0  0  0  0  0  0  0  0  0  0  0
   23.2483  -11.7294   -3.4520 H   0  0  0  0  0  0  0  0  0  0  0  0
   31.8098  -13.8461    0.4351 H   0  0  0  0  0  0  0  0  0  0  0  0
   24.1396   -4.9031    3.9888 H   0  0  0  0  0  0  0  0  0  0  0  0
   24.1629   -5.6395    5.5998 H   0  0  0  0  0  0  0  0  0  0  0  0
   21.7444   -5.5429    3.7215 H   0  0  0  0  0  0  0  0  0  0  0  0
   21.9795   -4.5217    5.1446 H   0  0  0  0  0  0  0  0  0  0  0  0
   21.7530   -6.2628    5.3345 H   0  0  0  0  0  0  0  0  0  0  0  0
   25.7615  -16.4199   -3.8198 H   0  0  0  0  0  0  0  0  0  0  0  0
   24.3464  -16.2354   -4.8693 H   0  0  0  0  0  0  0  0  0  0  0  0
   24.3072  -17.2827   -1.9909 H   0  0  0  0  0  0  0  0  0  0  0  0
   24.1571  -18.2732   -3.4469 H   0  0  0  0  0  0  0  0  0  0  0  0
   22.8897  -17.1154   -3.0317 H   0  0  0  0  0  0  0  0  0  0  0  0
   30.4187  -13.5368   -1.6352 H   0  0  0  0  0  0  0  0  0  0  0  0
   28.8002  -12.8384   -1.5680 H   0  0  0  0  0  0  0  0  0  0  0  0
   29.6083  -15.6531   -0.6666 H   0  0  0  0  0  0  0  0  0  0  0  0
   28.6751  -15.2553   -2.1123 H   0  0  0  0  0  0  0  0  0  0  0  0
   27.9801  -15.0015   -0.5075 H   0  0  0  0  0  0  0  0  0  0  0  0
   31.6052  -11.9274    4.8729 H   0  0  0  0  0  0  0  0  0  0  0  0
   38.1798  -13.8816    6.7430 H   0  0  0  0  0  0  0  0  0  0  0  0
   39.2600  -16.0500    2.5478 H   0  0  0  0  0  0  0  0  0  0  0  0
   42.6238  -16.3965    5.2261 H   0  0  0  0  0  0  0  0  0  0  0  0
   42.9478  -17.2164    2.7728 H   0  0  0  0  0  0  0  0  0  0  0  0
   41.7468  -16.6991    1.5795 H   0  0  0  0  0  0  0  0  0  0  0  0
   41.4829  -19.1425    3.3996 H   0  0  0  0  0  0  0  0  0  0  0  0
   41.8847  -19.1807    1.6798 H   0  0  0  0  0  0  0  0  0  0  0  0
   40.2916  -18.6274    2.2050 H   0  0  0  0  0  0  0  0  0  0  0  0
  1  2  2  0  0  0  0
  1  6  1  0  0  0  0
  2  3  1  0  0  0  0
  3  4  2  0  0  0  0
  3 14  1  0  0  0  0
  4  7  1  0  0  0  0
  5  4  1  0  0  0  0
  5  9  1  0  0  0  0
  6  5  2  0  0  0  0
  7  8  2  0  0  0  0
  7172  1  0  0  0  0
  8 15  1  0  0  0  0
  9  8  1  0  0  0  0
 10  1  1  0  0  0  0
 11 10  2  0  0  0  0
 11 12  1  0  0  0  0
 12  2  1  0  0  0  0
 13  6  1  0  0  0  0
 14 23  1  0  0  0  0
 15 27  2  0  0  0  0
 15 24  1  0  0  0  0
 16 13  2  0  0  0  0
 16175  1  0  0  0  0
 17 16  1  0  0  0  0
 18 19  1  0  0  0  0
 18 17  2  0  0  0  0
 19 13  1  0  0  0  0
 20 14  2  0  0  0  0
 20 21  1  0  0  0  0
 21 22  2  0  0  0  0
 22 23  1  0  0  0  0
 22 32  1  0  0  0  0
 24 25  1  0  0  0  0
 25 36  1  0  0  0  0
 26 25  2  0  0  0  0
 26177  1  0  0  0  0
 27 26  1  0  0  0  0
 28 17  1  0  0  0  0
 29 18  1  0  0  0  0
 29 30  1  0  0  0  0
 30182  1  0  0  0  0
 30180  1  0  0  0  0
 31 21  1  0  0  0  0
 32184  1  0  0  0  0
 32 33  1  0  0  0  0
 33187  1  0  0  0  0
 33186  1  0  0  0  0
 34189  1  0  0  0  0
 34 27  1  0  0  0  0
 34 35  1  0  0  0  0
 35192  1  0  0  0  0
 36 37  1  0  0  0  0
 36 40  2  0  0  0  0
 37 38  1  0  0  0  0
 38 39  2  0  0  0  0
 38 41  1  0  0  0  0
 39 44  1  0  0  0  0
 40193  1  0  0  0  0
 40 39  1  0  0  0  0
 41 42  2  0  0  0  0
 42 43  1  0  0  0  0
 42 47  1  0  0  0  0
 43 48  2  0  0  0  0
 44 50  2  0  0  0  0
 44 43  1  0  0  0  0
 45 41  1  0  0  0  0
 45 46  1  0  0  0  0
 46 51  1  0  0  0  0
 46 47  2  0  0  0  0
 47194  1  0  0  0  0
 49 48  1  0  0  0  0
 50 49  1  0  0  0  0
 51 52  2  0  0  0  0
 52 53  1  0  0  0  0
 52195  1  0  0  0  0
 53 56  1  0  0  0  0
 54 53  2  0  0  0  0
 55 51  1  0  0  0  0
 55 54  1  0  0  0  0
 56196  1  0  0  0  0
 56197  1  0  0  0  0
 57 56  1  0  0  0  0
 57199  1  0  0  0  0
 58 67  1  0  0  0  0
 58 59  2  0  0  0  0
 59 60  1  0  0  0  0
 59 69  1  0  0  0  0
 60 71  1  0  0  0  0
 61 60  2  0  0  0  0
 62 61  1  0  0  0  0
 63 62  2  0  0  0  0
 63 58  1  0  0  0  0
 64 61  1  0  0  0  0
 64201  1  0  0  0  0
 65 64  2  0  0  0  0
 66 65  1  0  0  0  0
 66 62  1  0  0  0  0
 67 68  2  0  0  0  0
 68 54  1  0  0  0  0
 68 69  1  0  0  0  0
 70 73  2  0  0  0  0
 70 63  1  0  0  0  0
 71 77  2  0  0  0  0
 72 65  1  0  0  0  0
 72 81  1  0  0  0  0
 73203  1  0  0  0  0
 74 73  1  0  0  0  0
 75 76  1  0  0  0  0
 75 74  2  0  0  0  0
 76 70  1  0  0  0  0
 77204  1  0  0  0  0
 77 78  1  0  0  0  0
 78 88  1  0  0  0  0
 79 89  1  0  0  0  0
 79 78  2  0  0  0  0
 80 71  1  0  0  0  0
 80 79  1  0  0  0  0
 82 93  1  0  0  0  0
 82 81  1  0  0  0  0
 83 82  2  0  0  0  0
 84 83  1  0  0  0  0
 84 72  2  0  0  0  0
 85 74  1  0  0  0  0
 86 75  1  0  0  0  0
 87208  1  0  0  0  0
 87 86  1  0  0  0  0
 87210  1  0  0  0  0
 89211  1  0  0  0  0
 90 89  1  0  0  0  0
 90214  1  0  0  0  0
 90213  1  0  0  0  0
 91217  1  0  0  0  0
 91 84  1  0  0  0  0
 92220  1  0  0  0  0
 92 91  1  0  0  0  0
 93 97  2  0  0  0  0
 94 93  1  0  0  0  0
 94 95  1  0  0  0  0
 95 96  2  0  0  0  0
 96101  1  0  0  0  0
 97 96  1  0  0  0  0
 97221  1  0  0  0  0
 98 95  1  0  0  0  0
 98 99  2  0  0  0  0
 99100  1  0  0  0  0
100101  1  0  0  0  0
100105  2  0  0  0  0
101107  2  0  0  0  0
102103  1  0  0  0  0
102 98  1  0  0  0  0
103104  2  0  0  0  0
104 99  1  0  0  0  0
104222  1  0  0  0  0
105106  1  0  0  0  0
107106  1  0  0  0  0
108103  1  0  0  0  0
108112  1  0  0  0  0
109108  2  0  0  0  0
110109  1  0  0  0  0
110111  2  0  0  0  0
111125  1  0  0  0  0
111112  1  0  0  0  0
113224  1  0  0  0  0
113110  1  0  0  0  0
114226  1  0  0  0  0
114113  1  0  0  0  0
115124  1  0  0  0  0
115120  2  0  0  0  0
116115  1  0  0  0  0
117116  2  0  0  0  0
117118  1  0  0  0  0
118119  2  0  0  0  0
119120  1  0  0  0  0
119123  1  0  0  0  0
120127  1  0  0  0  0
121118  1  0  0  0  0
121122  2  0  0  0  0
122129  1  0  0  0  0
122123  1  0  0  0  0
124230  1  0  0  0  0
125124  2  0  0  0  0
126116  1  0  0  0  0
126125  1  0  0  0  0
127130  2  0  0  0  0
128137  1  0  0  0  0
128117  1  0  0  0  0
129138  1  0  0  0  0
130231  1  0  0  0  0
130131  1  0  0  0  0
131142  1  0  0  0  0
132131  2  0  0  0  0
132143  1  0  0  0  0
133127  1  0  0  0  0
133132  1  0  0  0  0
134128  2  0  0  0  0
135136  2  0  0  0  0
135134  1  0  0  0  0
136137  1  0  0  0  0
139138  1  0  0  0  0
139150  1  0  0  0  0
140139  2  0  0  0  0
141140  1  0  0  0  0
141129  2  0  0  0  0
143144  1  0  0  0  0
143235  1  0  0  0  0
144237  1  0  0  0  0
144238  1  0  0  0  0
145135  1  0  0  0  0
146239  1  0  0  0  0
146136  1  0  0  0  0
146147  1  0  0  0  0
147241  1  0  0  0  0
148141  1  0  0  0  0
149148  1  0  0  0  0
149246  1  0  0  0  0
149248  1  0  0  0  0
150154  2  0  0  0  0
151150  1  0  0  0  0
151152  1  0  0  0  0
152155  1  0  0  0  0
152153  2  0  0  0  0
153158  1  0  0  0  0
154249  1  0  0  0  0
154153  1  0  0  0  0
155156  2  0  0  0  0
156161  1  0  0  0  0
156157  1  0  0  0  0
157162  2  0  0  0  0
158157  1  0  0  0  0
158164  2  0  0  0  0
159155  1  0  0  0  0
159160  1  0  0  0  0
160161  2  0  0  0  0
161250  1  0  0  0  0
162163  1  0  0  0  0
164163  1  0  0  0  0
165160  1  0  0  0  0
165169  1  0  0  0  0
166167  1  0  0  0  0
166165  2  0  0  0  0
167168  2  0  0  0  0
168252  1  0  0  0  0
168169  1  0  0  0  0
170253  1  0  0  0  0
170167  1  0  0  0  0
171170  1  0  0  0  0
171255  1  0  0  0  0
173 10  1  0  0  0  0
174 11  1  0  0  0  0
176 20  1  0  0  0  0
178 29  1  0  0  0  0
179 29  1  0  0  0  0
181 30  1  0  0  0  0
183 32  1  0  0  0  0
185 33  1  0  0  0  0
188 34  1  0  0  0  0
190 35  1  0  0  0  0
191 35  1  0  0  0  0
198 57  1  0  0  0  0
200 57  1  0  0  0  0
202 67  1  0  0  0  0
205 83  1  0  0  0  0
206 86  1  0  0  0  0
207 86  1  0  0  0  0
209 87  1  0  0  0  0
212 89  1  0  0  0  0
215 90  1  0  0  0  0
216 91  1  0  0  0  0
218 92  1  0  0  0  0
219 92  1  0  0  0  0
223109  1  0  0  0  0
225113  1  0  0  0  0
227114  1  0  0  0  0
228114  1  0  0  0  0
229121  1  0  0  0  0
232134  1  0  0  0  0
233140  1  0  0  0  0
234143  1  0  0  0  0
236144  1  0  0  0  0
240146  1  0  0  0  0
242147  1  0  0  0  0
243147  1  0  0  0  0
244148  1  0  0  0  0
245148  1  0  0  0  0
247149  1  0  0  0  0
251166  1  0  0  0  0
254170  1  0  0  0  0
256171  1  0  0  0  0
257171  1  0  0  0  0
M  END
