SCF done       -263.726094287259          0.000484195454
 OpenBabel12282109573D

158174  0  0  0  0  0  0  0  0999 V2000
    0.9853    1.1994   -0.0742 C   0  0  0  0  0  0  0  0  0  0  0  0
    1.2202   -0.1664    0.2195 C   0  0  0  0  0  0  0  0  0  0  0  0
    0.2090   -1.1166    0.3120 C   0  0  0  0  0  0  0  0  0  0  0  0
   -1.1042   -0.6494    0.1017 C   0  0  0  0  0  0  0  0  0  0  0  0
   -1.3402    0.7185   -0.1811 C   0  0  0  0  0  0  0  0  0  0  0  0
   -0.3280    1.6670   -0.2823 C   0  0  0  0  0  0  0  0  0  0  0  0
   -2.3065   -1.3961    0.1135 C   0  0  0  0  0  0  0  0  0  0  0  0
   -3.4149   -0.6607   -0.1833 C   0  0  0  0  0  0  0  0  0  0  0  0
   -3.0356    1.0263   -0.4538 S   0  0  0  0  0  0  0  0  0  0  0  0
    2.1919    1.9364   -0.1360 C   0  0  0  0  0  0  0  0  0  0  0  0
    3.3106    1.1815    0.0553 C   0  0  0  0  0  0  0  0  0  0  0  0
    2.9270   -0.4975    0.3712 S   0  0  0  0  0  0  0  0  0  0  0  0
   -0.6255    3.0453   -0.6148 C   0  0  0  0  0  0  0  0  0  0  0  0
    0.5061   -2.5070    0.5907 C   0  0  0  0  0  0  0  0  0  0  0  0
   -1.6820    3.8020   -0.1894 C   0  0  0  0  0  0  0  0  0  0  0  0
   -1.6929    5.1027   -0.7297 C   0  0  0  0  0  0  0  0  0  0  0  0
   -0.6613    5.3448   -1.5836 C   0  0  0  0  0  0  0  0  0  0  0  0
    0.3610    3.9543   -1.7273 S   0  0  0  0  0  0  0  0  0  0  0  0
    1.4297   -3.0084    1.4654 C   0  0  0  0  0  0  0  0  0  0  0  0
    1.4701   -4.4162    1.4905 C   0  0  0  0  0  0  0  0  0  0  0  0
    0.5968   -5.0005    0.6256 C   0  0  0  0  0  0  0  0  0  0  0  0
   -0.3077   -3.8046   -0.2405 S   0  0  0  0  0  0  0  0  0  0  0  0
   -0.3230    6.6017   -2.3080 C   0  0  0  0  0  0  0  0  0  0  0  0
    0.9446    7.2447   -1.7410 C   0  0  0  0  0  0  0  0  0  0  0  0
    0.3289   -6.4488    0.4023 C   0  0  0  0  0  0  0  0  0  0  0  0
   -1.0689   -6.8381    0.8887 C   0  0  0  0  0  0  0  0  0  0  0  0
   -7.0422   -1.2152   -0.7003 C   0  0  0  0  0  0  0  0  0  0  0  0
   -6.7663   -2.5894   -0.4844 C   0  0  0  0  0  0  0  0  0  0  0  0
   -7.7274   -3.5897   -0.5669 C   0  0  0  0  0  0  0  0  0  0  0  0
   -9.0503   -3.1620   -0.8271 C   0  0  0  0  0  0  0  0  0  0  0  0
   -9.3275   -1.7839   -1.0292 C   0  0  0  0  0  0  0  0  0  0  0  0
   -8.3539   -0.7913   -0.9954 C   0  0  0  0  0  0  0  0  0  0  0  0
  -10.2084   -3.9597   -0.9217 C   0  0  0  0  0  0  0  0  0  0  0  0
  -11.3457   -3.2560   -1.2264 C   0  0  0  0  0  0  0  0  0  0  0  0
  -11.0129   -1.5306   -1.3699 S   0  0  0  0  0  0  0  0  0  0  0  0
   -5.8775   -0.4207   -0.5797 C   0  0  0  0  0  0  0  0  0  0  0  0
   -4.7494   -1.1393   -0.3142 C   0  0  0  0  0  0  0  0  0  0  0  0
   -5.0709   -2.8524   -0.1755 S   0  0  0  0  0  0  0  0  0  0  0  0
   -8.6830    0.5916   -1.2754 C   0  0  0  0  0  0  0  0  0  0  0  0
   -7.3992   -4.9915   -0.4309 C   0  0  0  0  0  0  0  0  0  0  0  0
   -9.7988    1.2863   -0.8995 C   0  0  0  0  0  0  0  0  0  0  0  0
   -9.8217    2.6101   -1.3803 C   0  0  0  0  0  0  0  0  0  0  0  0
   -8.7395    2.9310   -2.1404 C   0  0  0  0  0  0  0  0  0  0  0  0
   -7.6510    1.5896   -2.2640 S   0  0  0  0  0  0  0  0  0  0  0  0
   -7.8922   -6.0559   -1.1366 C   0  0  0  0  0  0  0  0  0  0  0  0
   -7.3272   -7.2869   -0.7545 C   0  0  0  0  0  0  0  0  0  0  0  0
   -6.4049   -7.1772    0.2413 C   0  0  0  0  0  0  0  0  0  0  0  0
   -6.2110   -5.5267    0.7279 S   0  0  0  0  0  0  0  0  0  0  0  0
   -8.4018    4.2323   -2.7815 C   0  0  0  0  0  0  0  0  0  0  0  0
   -7.2362    4.9174   -2.0646 C   0  0  0  0  0  0  0  0  0  0  0  0
   -5.6361   -8.2567    0.9217 C   0  0  0  0  0  0  0  0  0  0  0  0
   -6.1699   -8.5130    2.3327 C   0  0  0  0  0  0  0  0  0  0  0  0
    9.0385    3.4927   -0.5235 C   0  0  0  0  0  0  0  0  0  0  0  0
    9.3098    2.1270   -0.2494 C   0  0  0  0  0  0  0  0  0  0  0  0
    8.3194    1.1733   -0.0430 C   0  0  0  0  0  0  0  0  0  0  0  0
    6.9894    1.6364   -0.0711 C   0  0  0  0  0  0  0  0  0  0  0  0
    6.7174    3.0013   -0.3399 C   0  0  0  0  0  0  0  0  0  0  0  0
    7.7031    3.9503   -0.5841 C   0  0  0  0  0  0  0  0  0  0  0  0
    5.8022    0.8904    0.1296 C   0  0  0  0  0  0  0  0  0  0  0  0
    4.6625    1.6239   -0.0180 C   0  0  0  0  0  0  0  0  0  0  0  0
    5.0006    3.3031   -0.3848 S   0  0  0  0  0  0  0  0  0  0  0  0
   10.2249    4.2328   -0.7027 C   0  0  0  0  0  0  0  0  0  0  0  0
   11.3701    3.4797   -0.6096 C   0  0  0  0  0  0  0  0  0  0  0  0
   11.0193    1.7988   -0.2675 S   0  0  0  0  0  0  0  0  0  0  0  0
    7.3543    5.3165   -0.9120 C   0  0  0  0  0  0  0  0  0  0  0  0
    8.6305   -0.2276    0.1549 C   0  0  0  0  0  0  0  0  0  0  0  0
    6.3447    6.0758   -0.3874 C   0  0  0  0  0  0  0  0  0  0  0  0
    6.2358    7.3484   -0.9795 C   0  0  0  0  0  0  0  0  0  0  0  0
    7.1488    7.5696   -1.9646 C   0  0  0  0  0  0  0  0  0  0  0  0
    8.1789    6.1932   -2.1731 S   0  0  0  0  0  0  0  0  0  0  0  0
    8.0133   -1.3181   -0.3920 C   0  0  0  0  0  0  0  0  0  0  0  0
    8.5930   -2.5402    0.0009 C   0  0  0  0  0  0  0  0  0  0  0  0
    9.6482   -2.3923    0.8480 C   0  0  0  0  0  0  0  0  0  0  0  0
    9.9523   -0.7193    1.1767 S   0  0  0  0  0  0  0  0  0  0  0  0
    7.3031    8.7667   -2.8373 C   0  0  0  0  0  0  0  0  0  0  0  0
    6.7621    8.4981   -4.2435 C   0  0  0  0  0  0  0  0  0  0  0  0
   10.4763   -3.4472    1.4959 C   0  0  0  0  0  0  0  0  0  0  0  0
   10.1462   -3.5768    2.9844 C   0  0  0  0  0  0  0  0  0  0  0  0
  -12.6883   -3.6575   -1.4195 C   0  0  0  0  0  0  0  0  0  0  0  0
  -13.2457   -4.8951   -1.5218 C   0  0  0  0  0  0  0  0  0  0  0  0
  -12.6457   -6.2267   -1.5308 C   0  0  0  0  0  0  0  0  0  0  0  0
  -13.6229   -7.1901   -1.7287 N   0  0  0  0  0  0  0  0  0  0  0  0
  -14.9078   -6.7759   -1.8587 C   0  0  0  0  0  0  0  0  0  0  0  0
  -14.9863   -5.0276   -1.7515 S   0  0  0  0  0  0  0  0  0  0  0  0
  -16.1999   -7.7446   -2.0934 S   0  0  0  0  0  0  0  0  0  0  0  0
  -13.2648   -8.5950   -1.7664 C   0  0  0  0  0  0  0  0  0  0  0  0
  -13.4629   -9.2530   -0.4069 C   0  0  0  0  0  0  0  0  0  0  0  0
  -11.4735   -6.5196   -1.4140 O   0  0  0  0  0  0  0  0  0  0  0  0
   12.6886    3.9620   -0.7721 C   0  0  0  0  0  0  0  0  0  0  0  0
   13.8428    3.2543   -0.7108 C   0  0  0  0  0  0  0  0  0  0  0  0
   15.1492    3.8819   -0.9211 C   0  0  0  0  0  0  0  0  0  0  0  0
   16.1550    2.9367   -0.8072 N   0  0  0  0  0  0  0  0  0  0  0  0
   15.7798    1.6624   -0.5355 C   0  0  0  0  0  0  0  0  0  0  0  0
   14.0260    1.5472   -0.3943 S   0  0  0  0  0  0  0  0  0  0  0  0
   15.3516    5.0521   -1.1558 O   0  0  0  0  0  0  0  0  0  0  0  0
   17.5424    3.3088   -1.0062 C   0  0  0  0  0  0  0  0  0  0  0  0
   17.9978    3.0025   -2.4273 C   0  0  0  0  0  0  0  0  0  0  0  0
   16.7880    0.3947   -0.3467 S   0  0  0  0  0  0  0  0  0  0  0  0
   -2.3661   -2.4464    0.3315 H   0  0  0  0  0  0  0  0  0  0  0  0
    2.2466    2.9936   -0.3202 H   0  0  0  0  0  0  0  0  0  0  0  0
   -2.4090    3.4529    0.5214 H   0  0  0  0  0  0  0  0  0  0  0  0
   -2.4450    5.8341   -0.4922 H   0  0  0  0  0  0  0  0  0  0  0  0
    2.0345   -2.3893    2.1031 H   0  0  0  0  0  0  0  0  0  0  0  0
    2.1273   -4.9762    2.1321 H   0  0  0  0  0  0  0  0  0  0  0  0
   -1.1618    7.2951   -2.2172 H   0  0  0  0  0  0  0  0  0  0  0  0
   -0.1700    6.3864   -3.3687 H   0  0  0  0  0  0  0  0  0  0  0  0
    0.8125    7.4740   -0.6859 H   0  0  0  0  0  0  0  0  0  0  0  0
    1.1698    8.1662   -2.2721 H   0  0  0  0  0  0  0  0  0  0  0  0
    1.7896    6.5673   -1.8445 H   0  0  0  0  0  0  0  0  0  0  0  0
    1.0824   -7.0308    0.9372 H   0  0  0  0  0  0  0  0  0  0  0  0
    0.4121   -6.6791   -0.6633 H   0  0  0  0  0  0  0  0  0  0  0  0
   -1.1727   -6.6268    1.9508 H   0  0  0  0  0  0  0  0  0  0  0  0
   -1.2418   -7.8991    0.7258 H   0  0  0  0  0  0  0  0  0  0  0  0
   -1.8265   -6.2738    0.3488 H   0  0  0  0  0  0  0  0  0  0  0  0
  -10.2179   -5.0185   -0.7519 H   0  0  0  0  0  0  0  0  0  0  0  0
   -5.8610    0.6492   -0.6787 H   0  0  0  0  0  0  0  0  0  0  0  0
  -10.5632    0.8767   -0.2643 H   0  0  0  0  0  0  0  0  0  0  0  0
  -10.6195    3.3004   -1.1706 H   0  0  0  0  0  0  0  0  0  0  0  0
   -8.6086   -5.9615   -1.9318 H   0  0  0  0  0  0  0  0  0  0  0  0
   -7.5956   -8.2238   -1.2093 H   0  0  0  0  0  0  0  0  0  0  0  0
   -9.2830    4.8766   -2.7531 H   0  0  0  0  0  0  0  0  0  0  0  0
   -8.1307    4.0686   -3.8277 H   0  0  0  0  0  0  0  0  0  0  0  0
   -7.4899    5.1035   -1.0234 H   0  0  0  0  0  0  0  0  0  0  0  0
   -7.0055    5.8665   -2.5419 H   0  0  0  0  0  0  0  0  0  0  0  0
   -6.3504    4.2867   -2.0977 H   0  0  0  0  0  0  0  0  0  0  0  0
   -4.5824   -7.9734    0.9843 H   0  0  0  0  0  0  0  0  0  0  0  0
   -5.7123   -9.1700    0.3278 H   0  0  0  0  0  0  0  0  0  0  0  0
   -6.0854   -7.6116    2.9352 H   0  0  0  0  0  0  0  0  0  0  0  0
   -5.6034   -9.3075    2.8120 H   0  0  0  0  0  0  0  0  0  0  0  0
   -7.2165   -8.8058    2.2935 H   0  0  0  0  0  0  0  0  0  0  0  0
    5.7867   -0.1532    0.3861 H   0  0  0  0  0  0  0  0  0  0  0  0
   10.2514    5.2906   -0.8898 H   0  0  0  0  0  0  0  0  0  0  0  0
    5.7219    5.7484    0.4252 H   0  0  0  0  0  0  0  0  0  0  0  0
    5.5035    8.0778   -0.6815 H   0  0  0  0  0  0  0  0  0  0  0  0
    7.1994   -1.2461   -1.0912 H   0  0  0  0  0  0  0  0  0  0  0  0
    8.2416   -3.4976   -0.3413 H   0  0  0  0  0  0  0  0  0  0  0  0
    8.3587    9.0402   -2.9065 H   0  0  0  0  0  0  0  0  0  0  0  0
    6.7608    9.6013   -2.3878 H   0  0  0  0  0  0  0  0  0  0  0  0
    7.3047    7.6760   -4.7048 H   0  0  0  0  0  0  0  0  0  0  0  0
    6.8746    9.3821   -4.8659 H   0  0  0  0  0  0  0  0  0  0  0  0
    5.7078    8.2343   -4.1989 H   0  0  0  0  0  0  0  0  0  0  0  0
   11.5350   -3.2011    1.3850 H   0  0  0  0  0  0  0  0  0  0  0  0
   10.2904   -4.3984    0.9928 H   0  0  0  0  0  0  0  0  0  0  0  0
   10.3408   -2.6366    3.4952 H   0  0  0  0  0  0  0  0  0  0  0  0
   10.7560   -4.3531    3.4394 H   0  0  0  0  0  0  0  0  0  0  0  0
    9.0976   -3.8330    3.1189 H   0  0  0  0  0  0  0  0  0  0  0  0
  -13.3837   -2.8311   -1.5202 H   0  0  0  0  0  0  0  0  0  0  0  0
  -12.2140   -8.6383   -2.0622 H   0  0  0  0  0  0  0  0  0  0  0  0
  -13.8882   -9.0817   -2.5199 H   0  0  0  0  0  0  0  0  0  0  0  0
  -12.8482   -8.7614    0.3437 H   0  0  0  0  0  0  0  0  0  0  0  0
  -13.1764  -10.2989   -0.4648 H   0  0  0  0  0  0  0  0  0  0  0  0
  -14.5066   -9.1936   -0.1077 H   0  0  0  0  0  0  0  0  0  0  0  0
   12.7965    5.0200   -0.9813 H   0  0  0  0  0  0  0  0  0  0  0  0
   18.1488    2.7569   -0.2843 H   0  0  0  0  0  0  0  0  0  0  0  0
   17.6042    4.3815   -0.8081 H   0  0  0  0  0  0  0  0  0  0  0  0
   17.9296    1.9353   -2.6242 H   0  0  0  0  0  0  0  0  0  0  0  0
   19.0303    3.3148   -2.5529 H   0  0  0  0  0  0  0  0  0  0  0  0
   17.3800    3.5376   -3.1447 H   0  0  0  0  0  0  0  0  0  0  0  0
  1  2  2  0  0  0  0
  2  3  1  0  0  0  0
  2 12  1  0  0  0  0
  3 14  1  0  0  0  0
  4  7  1  0  0  0  0
  4  3  2  0  0  0  0
  5  4  1  0  0  0  0
  6  5  2  0  0  0  0
  6  1  1  0  0  0  0
  7 99  1  0  0  0  0
  8  7  2  0  0  0  0
  9  8  1  0  0  0  0
  9  5  1  0  0  0  0
 10  1  1  0  0  0  0
 10 11  2  0  0  0  0
 11 12  1  0  0  0  0
 13  6  1  0  0  0  0
 13 15  2  0  0  0  0
 14 19  2  0  0  0  0
 15101  1  0  0  0  0
 16102  1  0  0  0  0
 16 15  1  0  0  0  0
 17 16  2  0  0  0  0
 18 17  1  0  0  0  0
 18 13  1  0  0  0  0
 19 20  1  0  0  0  0
 19103  1  0  0  0  0
 20104  1  0  0  0  0
 21 20  2  0  0  0  0
 22 14  1  0  0  0  0
 22 21  1  0  0  0  0
 23105  1  0  0  0  0
 23 24  1  0  0  0  0
 23 17  1  0  0  0  0
 24107  1  0  0  0  0
 25 21  1  0  0  0  0
 25 26  1  0  0  0  0
 25110  1  0  0  0  0
 26112  1  0  0  0  0
 27 36  1  0  0  0  0
 27 28  2  0  0  0  0
 28 38  1  0  0  0  0
 29 28  1  0  0  0  0
 29 40  1  0  0  0  0
 30 29  2  0  0  0  0
 31 32  2  0  0  0  0
 31 30  1  0  0  0  0
 32 27  1  0  0  0  0
 33 30  1  0  0  0  0
 33115  1  0  0  0  0
 34 33  2  0  0  0  0
 35 34  1  0  0  0  0
 35 31  1  0  0  0  0
 36 37  2  0  0  0  0
 37  8  1  0  0  0  0
 37 38  1  0  0  0  0
 39 32  1  0  0  0  0
 39 41  2  0  0  0  0
 40 48  1  0  0  0  0
 41117  1  0  0  0  0
 42118  1  0  0  0  0
 42 41  1  0  0  0  0
 43 42  2  0  0  0  0
 44 43  1  0  0  0  0
 44 39  1  0  0  0  0
 45 46  1  0  0  0  0
 45 40  2  0  0  0  0
 46 47  2  0  0  0  0
 47 48  1  0  0  0  0
 47 51  1  0  0  0  0
 49121  1  0  0  0  0
 49 43  1  0  0  0  0
 49 50  1  0  0  0  0
 50123  1  0  0  0  0
 51126  1  0  0  0  0
 51 52  1  0  0  0  0
 52129  1  0  0  0  0
 52128  1  0  0  0  0
 53 54  1  0  0  0  0
 54 55  2  0  0  0  0
 55 66  1  0  0  0  0
 56 55  1  0  0  0  0
 56 59  1  0  0  0  0
 57 56  2  0  0  0  0
 58 53  2  0  0  0  0
 58 57  1  0  0  0  0
 59131  1  0  0  0  0
 60 11  1  0  0  0  0
 60 59  2  0  0  0  0
 61 57  1  0  0  0  0
 61 60  1  0  0  0  0
 62 63  2  0  0  0  0
 62 53  1  0  0  0  0
 63 64  1  0  0  0  0
 64 54  1  0  0  0  0
 65 58  1  0  0  0  0
 65 67  2  0  0  0  0
 66 74  1  0  0  0  0
 67133  1  0  0  0  0
 68134  1  0  0  0  0
 68 67  1  0  0  0  0
 69 68  2  0  0  0  0
 70 69  1  0  0  0  0
 70 65  1  0  0  0  0
 71 72  1  0  0  0  0
 71 66  2  0  0  0  0
 72 73  2  0  0  0  0
 73 74  1  0  0  0  0
 73 77  1  0  0  0  0
 75138  1  0  0  0  0
 75 69  1  0  0  0  0
 76141  1  0  0  0  0
 76 75  1  0  0  0  0
 77 78  1  0  0  0  0
 78146  1  0  0  0  0
 78145  1  0  0  0  0
 78144  1  0  0  0  0
 79 34  1  0  0  0  0
 80 79  2  0  0  0  0
 81 80  1  0  0  0  0
 81 88  2  0  0  0  0
 82 81  1  0  0  0  0
 83 84  1  0  0  0  0
 83 82  1  0  0  0  0
 84 80  1  0  0  0  0
 85 83  2  0  0  0  0
 86 82  1  0  0  0  0
 86 87  1  0  0  0  0
 87152  1  0  0  0  0
 87150  1  0  0  0  0
 89 90  2  0  0  0  0
 89 63  1  0  0  0  0
 90 94  1  0  0  0  0
 91 92  1  0  0  0  0
 91 90  1  0  0  0  0
 92 93  1  0  0  0  0
 93 94  1  0  0  0  0
 93 98  2  0  0  0  0
 95 91  2  0  0  0  0
 96155  1  0  0  0  0
 96 92  1  0  0  0  0
 96154  1  0  0  0  0
 97 96  1  0  0  0  0
100 10  1  0  0  0  0
106 23  1  0  0  0  0
108 24  1  0  0  0  0
109 24  1  0  0  0  0
111 25  1  0  0  0  0
113 26  1  0  0  0  0
114 26  1  0  0  0  0
116 36  1  0  0  0  0
119 45  1  0  0  0  0
120 46  1  0  0  0  0
122 49  1  0  0  0  0
124 50  1  0  0  0  0
125 50  1  0  0  0  0
127 51  1  0  0  0  0
130 52  1  0  0  0  0
132 62  1  0  0  0  0
135 71  1  0  0  0  0
136 72  1  0  0  0  0
137 75  1  0  0  0  0
139 76  1  0  0  0  0
140 76  1  0  0  0  0
142 77  1  0  0  0  0
143 77  1  0  0  0  0
147 79  1  0  0  0  0
148 86  1  0  0  0  0
149 86  1  0  0  0  0
151 87  1  0  0  0  0
153 89  1  0  0  0  0
156 97  1  0  0  0  0
157 97  1  0  0  0  0
158 97  1  0  0  0  0
M  END
