SCF done       -420.860995416031          0.000704529053
 OpenBabel12282109573D

215238  0  0  0  0  0  0  0  0999 V2000
    6.3560    2.8348   -5.5934 C   0  0  0  0  0  0  0  0  0  0  0  0
    6.1988    4.0953   -4.9352 C   0  0  0  0  0  0  0  0  0  0  0  0
    6.9841    5.2204   -5.1597 C   0  0  0  0  0  0  0  0  0  0  0  0
    6.7932    6.4485   -4.5133 C   0  0  0  0  0  0  0  0  0  0  0  0
    5.8008    6.6815   -3.5677 C   0  0  0  0  0  0  0  0  0  0  0  0
    4.9860    5.5484   -3.2992 C   0  0  0  0  0  0  0  0  0  0  0  0
    5.1746    4.2928   -3.9701 C   0  0  0  0  0  0  0  0  0  0  0  0
    3.9760    5.5019   -2.4366 N   0  0  0  0  0  0  0  0  0  0  0  0
    3.3257    4.0308   -2.4625 S   0  0  0  0  0  0  0  0  0  0  0  0
    4.2939    3.3810   -3.5703 N   0  0  0  0  0  0  0  0  0  0  0  0
    5.2072    1.5630   -5.3036 S   0  0  0  0  0  0  0  0  0  0  0  0
    6.0338    0.4990   -6.4036 C   0  0  0  0  0  0  0  0  0  0  0  0
    7.1467    1.1228   -6.9383 C   0  0  0  0  0  0  0  0  0  0  0  0
    7.3262    2.4257   -6.4898 C   0  0  0  0  0  0  0  0  0  0  0  0
    5.5698    7.9270   -2.9040 C   0  0  0  0  0  0  0  0  0  0  0  0
    6.1800    9.1525   -3.0983 C   0  0  0  0  0  0  0  0  0  0  0  0
    5.6815   10.1528   -2.2728 C   0  0  0  0  0  0  0  0  0  0  0  0
    4.6843    9.7213   -1.4165 C   0  0  0  0  0  0  0  0  0  0  0  0
    4.3562    8.0313   -1.6625 S   0  0  0  0  0  0  0  0  0  0  0  0
    7.9932    5.1766   -6.0494 F   0  0  0  0  0  0  0  0  0  0  0  0
    7.6453    7.4317   -4.8589 F   0  0  0  0  0  0  0  0  0  0  0  0
    3.9940   10.5248   -0.4687 C   0  0  0  0  0  0  0  0  0  0  0  0
    3.0522   10.1711    0.4891 C   0  0  0  0  0  0  0  0  0  0  0  0
    2.6286   11.2738    1.2415 C   0  0  0  0  0  0  0  0  0  0  0  0
    3.2164   12.4635    0.8837 C   0  0  0  0  0  0  0  0  0  0  0  0
    4.3204   12.2323   -0.4368 S   0  0  0  0  0  0  0  0  0  0  0  0
    2.5744    8.7689    0.6966 C   0  0  0  0  0  0  0  0  0  0  0  0
    1.6345    8.6070    1.8847 C   0  0  0  0  0  0  0  0  0  0  0  0
    5.5989   -0.8218   -6.6994 C   0  0  0  0  0  0  0  0  0  0  0  0
    6.5237   -1.7650   -7.8271 S   0  0  0  0  0  0  0  0  0  0  0  0
    5.4245   -3.0966   -7.6857 C   0  0  0  0  0  0  0  0  0  0  0  0
    4.4205   -2.8049   -6.7839 C   0  0  0  0  0  0  0  0  0  0  0  0
    4.5086   -1.5336   -6.2103 C   0  0  0  0  0  0  0  0  0  0  0  0
    3.5483   -0.9824   -5.2036 C   0  0  0  0  0  0  0  0  0  0  0  0
    2.4359   -1.9454   -4.8081 C   0  0  0  0  0  0  0  0  0  0  0  0
    5.5615   -4.2933   -8.4785 C   0  0  0  0  0  0  0  0  0  0  0  0
    6.7733   -4.8085   -8.9589 C   0  0  0  0  0  0  0  0  0  0  0  0
    6.8206   -5.9705   -9.7359 C   0  0  0  0  0  0  0  0  0  0  0  0
    5.6979   -6.6837  -10.0879 C   0  0  0  0  0  0  0  0  0  0  0  0
    4.4860   -6.1845   -9.6257 C   0  0  0  0  0  0  0  0  0  0  0  0
    4.4183   -5.0362   -8.8517 C   0  0  0  0  0  0  0  0  0  0  0  0
    8.1749   -4.3664   -8.7497 C   0  0  0  0  0  0  0  0  0  0  0  0
    8.9676   -5.2819   -9.4259 N   0  0  0  0  0  0  0  0  0  0  0  0
    8.2399   -6.2709  -10.0571 C   0  0  0  0  0  0  0  0  0  0  0  0
   10.4102   -5.1772   -9.4984 C   0  0  0  0  0  0  0  0  0  0  0  0
   10.8400   -4.2958  -10.6653 C   0  0  0  0  0  0  0  0  0  0  0  0
    8.6986   -7.1745  -10.7062 O   0  0  0  0  0  0  0  0  0  0  0  0
    8.6163   -3.4387   -8.1185 O   0  0  0  0  0  0  0  0  0  0  0  0
    3.1975   -4.6166   -8.4837 F   0  0  0  0  0  0  0  0  0  0  0  0
    3.3498   -6.8206   -9.9395 F   0  0  0  0  0  0  0  0  0  0  0  0
    2.0711   24.1329    3.1193 C   0  0  0  0  0  0  0  0  0  0  0  0
    1.8528   25.5116    3.4333 C   0  0  0  0  0  0  0  0  0  0  0  0
    1.1968   25.9502    4.5781 C   0  0  0  0  0  0  0  0  0  0  0  0
    0.9801   27.2957    4.8992 C   0  0  0  0  0  0  0  0  0  0  0  0
    1.3901   28.3504    4.0935 C   0  0  0  0  0  0  0  0  0  0  0  0
    2.0542   27.9427    2.9046 C   0  0  0  0  0  0  0  0  0  0  0  0
    2.2918   26.5622    2.5777 C   0  0  0  0  0  0  0  0  0  0  0  0
    2.5295   28.7641    1.9747 N   0  0  0  0  0  0  0  0  0  0  0  0
    3.2072   27.8991    0.8021 S   0  0  0  0  0  0  0  0  0  0  0  0
    2.9321   26.4400    1.4176 N   0  0  0  0  0  0  0  0  0  0  0  0
    1.4087   22.8458    4.0860 S   0  0  0  0  0  0  0  0  0  0  0  0
    2.1030   21.6374    3.0540 C   0  0  0  0  0  0  0  0  0  0  0  0
    2.8127   22.2309    2.0249 C   0  0  0  0  0  0  0  0  0  0  0  0
    2.7935   23.6194    2.0590 C   0  0  0  0  0  0  0  0  0  0  0  0
    1.1867   29.7377    4.3772 C   0  0  0  0  0  0  0  0  0  0  0  0
    0.6590   30.3415    5.5030 C   0  0  0  0  0  0  0  0  0  0  0  0
    0.6219   31.7291    5.4173 C   0  0  0  0  0  0  0  0  0  0  0  0
    1.1160   32.2264    4.2252 C   0  0  0  0  0  0  0  0  0  0  0  0
    1.6440   30.9287    3.1969 S   0  0  0  0  0  0  0  0  0  0  0  0
    0.7300   25.0457    5.4610 F   0  0  0  0  0  0  0  0  0  0  0  0
    0.3303   27.5332    6.0535 F   0  0  0  0  0  0  0  0  0  0  0  0
    1.1894   33.5996    3.8570 C   0  0  0  0  0  0  0  0  0  0  0  0
    1.6816   34.2049    2.7116 C   0  0  0  0  0  0  0  0  0  0  0  0
    1.5299   35.5983    2.7406 C   0  0  0  0  0  0  0  0  0  0  0  0
    0.9469   36.0820    3.8844 C   0  0  0  0  0  0  0  0  0  0  0  0
    0.5805   34.7861    4.9793 S   0  0  0  0  0  0  0  0  0  0  0  0
    2.2613   33.5101    1.5219 C   0  0  0  0  0  0  0  0  0  0  0  0
    1.1527   33.0958    0.5523 C   0  0  0  0  0  0  0  0  0  0  0  0
    1.9446   20.2364    3.2494 C   0  0  0  0  0  0  0  0  0  0  0  0
    2.7641   19.1683    2.1477 S   0  0  0  0  0  0  0  0  0  0  0  0
    2.1397   17.7614    2.9581 C   0  0  0  0  0  0  0  0  0  0  0  0
    1.3307   18.1371    4.0052 C   0  0  0  0  0  0  0  0  0  0  0  0
    1.2146   19.5209    4.1867 C   0  0  0  0  0  0  0  0  0  0  0  0
    0.3531   20.1044    5.2605 C   0  0  0  0  0  0  0  0  0  0  0  0
   -1.0330   20.4643    4.7219 C   0  0  0  0  0  0  0  0  0  0  0  0
    2.4587   16.4342    2.5011 C   0  0  0  0  0  0  0  0  0  0  0  0
    2.5052   15.2957    3.3151 C   0  0  0  0  0  0  0  0  0  0  0  0
    2.7541   14.0137    2.8061 C   0  0  0  0  0  0  0  0  0  0  0  0
    2.9944   13.7693    1.4517 C   0  0  0  0  0  0  0  0  0  0  0  0
    3.0099   14.9258    0.6459 C   0  0  0  0  0  0  0  0  0  0  0  0
    2.7511   16.1858    1.1420 C   0  0  0  0  0  0  0  0  0  0  0  0
    2.4435   15.1865    4.7956 C   0  0  0  0  0  0  0  0  0  0  0  0
    2.6487   13.8487    5.0793 N   0  0  0  0  0  0  0  0  0  0  0  0
    2.8346   13.0724    3.9520 C   0  0  0  0  0  0  0  0  0  0  0  0
    2.6513   13.3161    6.4254 C   0  0  0  0  0  0  0  0  0  0  0  0
    1.2397   12.9676    6.8831 C   0  0  0  0  0  0  0  0  0  0  0  0
    3.0476   11.8855    3.9787 O   0  0  0  0  0  0  0  0  0  0  0  0
    2.2952   16.0333    5.6413 O   0  0  0  0  0  0  0  0  0  0  0  0
    2.7503   17.2011    0.2645 F   0  0  0  0  0  0  0  0  0  0  0  0
    3.2424   14.8129   -0.6704 F   0  0  0  0  0  0  0  0  0  0  0  0
    1.5692   47.2468    7.9121 C   0  0  0  0  0  0  0  0  0  0  0  0
    1.6327   48.6467    8.2009 C   0  0  0  0  0  0  0  0  0  0  0  0
    2.5222   49.2457    9.0855 C   0  0  0  0  0  0  0  0  0  0  0  0
    2.5613   50.6224    9.3425 C   0  0  0  0  0  0  0  0  0  0  0  0
    1.7151   51.5484    8.7427 C   0  0  0  0  0  0  0  0  0  0  0  0
    0.7908   50.9730    7.8288 C   0  0  0  0  0  0  0  0  0  0  0  0
    0.7506   49.5619    7.5660 C   0  0  0  0  0  0  0  0  0  0  0  0
   -0.1225   51.6332    7.1244 N   0  0  0  0  0  0  0  0  0  0  0  0
   -0.9507   50.5913    6.2215 S   0  0  0  0  0  0  0  0  0  0  0  0
   -0.1903   49.2497    6.6808 N   0  0  0  0  0  0  0  0  0  0  0  0
    0.3949   46.6565    6.7744 S   0  0  0  0  0  0  0  0  0  0  0  0
    0.9421   45.0196    6.9828 C   0  0  0  0  0  0  0  0  0  0  0  0
    1.9828   44.9680    7.8910 C   0  0  0  0  0  0  0  0  0  0  0  0
    2.3310   46.2087    8.4137 C   0  0  0  0  0  0  0  0  0  0  0  0
    1.7252   52.9569    8.9880 C   0  0  0  0  0  0  0  0  0  0  0  0
    2.5300   53.7007    9.8290 C   0  0  0  0  0  0  0  0  0  0  0  0
    2.2417   55.0616    9.8073 C   0  0  0  0  0  0  0  0  0  0  0  0
    1.2146   55.3993    8.9472 C   0  0  0  0  0  0  0  0  0  0  0  0
    0.5930   53.9830    8.1554 S   0  0  0  0  0  0  0  0  0  0  0  0
    3.4176   48.4980    9.7575 F   0  0  0  0  0  0  0  0  0  0  0  0
    3.4893   51.0270   10.2305 F   0  0  0  0  0  0  0  0  0  0  0  0
    0.7060   56.7135    8.7300 C   0  0  0  0  0  0  0  0  0  0  0  0
   -0.2314   57.1895    7.8358 C   0  0  0  0  0  0  0  0  0  0  0  0
   -0.4302   58.5830    7.9664 C   0  0  0  0  0  0  0  0  0  0  0  0
    0.3345   59.1561    8.9300 C   0  0  0  0  0  0  0  0  0  0  0  0
    1.3362   58.0122    9.7208 S   0  0  0  0  0  0  0  0  0  0  0  0
   -1.0010   56.3730    6.8479 C   0  0  0  0  0  0  0  0  0  0  0  0
   -2.2591   55.7803    7.4860 C   0  0  0  0  0  0  0  0  0  0  0  0
    0.3997   43.9090    6.2757 C   0  0  0  0  0  0  0  0  0  0  0  0
    1.2288   42.3823    6.3999 S   0  0  0  0  0  0  0  0  0  0  0  0
    0.1051   41.6266    5.3099 C   0  0  0  0  0  0  0  0  0  0  0  0
   -0.8625   42.5183    4.9218 C   0  0  0  0  0  0  0  0  0  0  0  0
   -0.7151   43.8051    5.4604 C   0  0  0  0  0  0  0  0  0  0  0  0
   -1.6609   44.9094    5.1138 C   0  0  0  0  0  0  0  0  0  0  0  0
   -1.1928   45.6392    3.8532 C   0  0  0  0  0  0  0  0  0  0  0  0
    0.2696   40.2465    4.9232 C   0  0  0  0  0  0  0  0  0  0  0  0
    0.0234   39.7529    3.6402 C   0  0  0  0  0  0  0  0  0  0  0  0
    0.2215   38.4084    3.3018 C   0  0  0  0  0  0  0  0  0  0  0  0
    0.6743   37.4591    4.2189 C   0  0  0  0  0  0  0  0  0  0  0  0
    0.8890   37.9525    5.5211 C   0  0  0  0  0  0  0  0  0  0  0  0
    0.7150   39.2815    5.8502 C   0  0  0  0  0  0  0  0  0  0  0  0
   -0.4127   40.4682    2.4133 C   0  0  0  0  0  0  0  0  0  0  0  0
   -0.5236   39.4940    1.4375 N   0  0  0  0  0  0  0  0  0  0  0  0
   -0.1757   38.2313    1.8817 C   0  0  0  0  0  0  0  0  0  0  0  0
   -0.9284   39.7746    0.0761 C   0  0  0  0  0  0  0  0  0  0  0  0
    0.2720   40.1228   -0.7964 C   0  0  0  0  0  0  0  0  0  0  0  0
   -0.2363   37.2359    1.2043 O   0  0  0  0  0  0  0  0  0  0  0  0
   -0.6368   41.6378    2.2244 O   0  0  0  0  0  0  0  0  0  0  0  0
    0.9621   39.6493    7.1159 F   0  0  0  0  0  0  0  0  0  0  0  0
    1.3151   37.1179    6.4801 F   0  0  0  0  0  0  0  0  0  0  0  0
    7.8049    0.6331   -7.6340 H   0  0  0  0  0  0  0  0  0  0  0  0
    8.1417    3.0472   -6.8077 H   0  0  0  0  0  0  0  0  0  0  0  0
    6.9579    9.3218   -3.8185 H   0  0  0  0  0  0  0  0  0  0  0  0
    6.0318   11.1698   -2.2879 H   0  0  0  0  0  0  0  0  0  0  0  0
    1.8964   11.2128    2.0220 H   0  0  0  0  0  0  0  0  0  0  0  0
    3.4469    8.1237    0.8392 H   0  0  0  0  0  0  0  0  0  0  0  0
    2.0763    8.4237   -0.2154 H   0  0  0  0  0  0  0  0  0  0  0  0
    2.1054    8.9668    2.7961 H   0  0  0  0  0  0  0  0  0  0  0  0
    1.3884    7.5558    2.0147 H   0  0  0  0  0  0  0  0  0  0  0  0
    0.7090    9.1554    1.7257 H   0  0  0  0  0  0  0  0  0  0  0  0
    3.6531   -3.5087   -6.5249 H   0  0  0  0  0  0  0  0  0  0  0  0
    3.1041   -0.0686   -5.6110 H   0  0  0  0  0  0  0  0  0  0  0  0
    4.1063   -0.6864   -4.3097 H   0  0  0  0  0  0  0  0  0  0  0  0
    1.8416   -2.2275   -5.6738 H   0  0  0  0  0  0  0  0  0  0  0  0
    1.7796   -1.4660   -4.0859 H   0  0  0  0  0  0  0  0  0  0  0  0
    2.8442   -2.8442   -4.3522 H   0  0  0  0  0  0  0  0  0  0  0  0
    5.7445   -7.5776  -10.6870 H   0  0  0  0  0  0  0  0  0  0  0  0
   10.8019   -6.1897   -9.6191 H   0  0  0  0  0  0  0  0  0  0  0  0
   10.7562   -4.7528   -8.5532 H   0  0  0  0  0  0  0  0  0  0  0  0
   10.4834   -4.7140  -11.6037 H   0  0  0  0  0  0  0  0  0  0  0  0
   11.9239   -4.2345  -10.6992 H   0  0  0  0  0  0  0  0  0  0  0  0
   10.4359   -3.2932  -10.5470 H   0  0  0  0  0  0  0  0  0  0  0  0
    3.3221   21.6576    1.2704 H   0  0  0  0  0  0  0  0  0  0  0  0
    3.2826   24.2504    1.3413 H   0  0  0  0  0  0  0  0  0  0  0  0
    0.3155   29.7980    6.3629 H   0  0  0  0  0  0  0  0  0  0  0  0
    0.2471   32.3652    6.2000 H   0  0  0  0  0  0  0  0  0  0  0  0
    1.8612   36.2347    1.9413 H   0  0  0  0  0  0  0  0  0  0  0  0
    2.8321   32.6321    1.8276 H   0  0  0  0  0  0  0  0  0  0  0  0
    2.9395   34.1993    1.0149 H   0  0  0  0  0  0  0  0  0  0  0  0
    0.4772   32.3881    1.0258 H   0  0  0  0  0  0  0  0  0  0  0  0
    1.5813   32.6271   -0.3296 H   0  0  0  0  0  0  0  0  0  0  0  0
    0.5814   33.9692    0.2465 H   0  0  0  0  0  0  0  0  0  0  0  0
    0.8173   17.4312    4.6295 H   0  0  0  0  0  0  0  0  0  0  0  0
    0.8225   20.9947    5.6817 H   0  0  0  0  0  0  0  0  0  0  0  0
    0.2505   19.3667    6.0580 H   0  0  0  0  0  0  0  0  0  0  0  0
   -0.9561   21.1960    3.9215 H   0  0  0  0  0  0  0  0  0  0  0  0
   -1.6438   20.8861    5.5154 H   0  0  0  0  0  0  0  0  0  0  0  0
   -1.5290   19.5779    4.3325 H   0  0  0  0  0  0  0  0  0  0  0  0
    3.2831   12.4252    6.4188 H   0  0  0  0  0  0  0  0  0  0  0  0
    3.0850   14.0772    7.0783 H   0  0  0  0  0  0  0  0  0  0  0  0
    1.2691   12.5673    7.8923 H   0  0  0  0  0  0  0  0  0  0  0  0
    0.8026   12.2219    6.2231 H   0  0  0  0  0  0  0  0  0  0  0  0
    0.6136   13.8567    6.8778 H   0  0  0  0  0  0  0  0  0  0  0  0
    2.4675   44.0475    8.1656 H   0  0  0  0  0  0  0  0  0  0  0  0
    3.1159   46.3406    9.1342 H   0  0  0  0  0  0  0  0  0  0  0  0
    3.3026   53.2768   10.4421 H   0  0  0  0  0  0  0  0  0  0  0  0
    2.7660   55.7912   10.3990 H   0  0  0  0  0  0  0  0  0  0  0  0
   -1.1229   59.1340    7.3548 H   0  0  0  0  0  0  0  0  0  0  0  0
    0.3743   60.1854    9.2265 H   0  0  0  0  0  0  0  0  0  0  0  0
   -0.3796   55.5661    6.4560 H   0  0  0  0  0  0  0  0  0  0  0  0
   -1.2907   57.0164    6.0143 H   0  0  0  0  0  0  0  0  0  0  0  0
   -1.9943   55.1256    8.3120 H   0  0  0  0  0  0  0  0  0  0  0  0
   -2.8143   55.2019    6.7522 H   0  0  0  0  0  0  0  0  0  0  0  0
   -2.9003   56.5735    7.8645 H   0  0  0  0  0  0  0  0  0  0  0  0
   -1.6749   42.2524    4.2718 H   0  0  0  0  0  0  0  0  0  0  0  0
   -1.7443   45.6177    5.9394 H   0  0  0  0  0  0  0  0  0  0  0  0
   -2.6467   44.4771    4.9309 H   0  0  0  0  0  0  0  0  0  0  0  0
   -0.2272   46.1084    4.0225 H   0  0  0  0  0  0  0  0  0  0  0  0
   -1.9079   46.4105    3.5793 H   0  0  0  0  0  0  0  0  0  0  0  0
   -1.0985   44.9354    3.0295 H   0  0  0  0  0  0  0  0  0  0  0  0
   -1.4306   38.8817   -0.3031 H   0  0  0  0  0  0  0  0  0  0  0  0
   -1.6291   40.6120    0.1095 H   0  0  0  0  0  0  0  0  0  0  0  0
   -0.0587   40.3333   -1.8094 H   0  0  0  0  0  0  0  0  0  0  0  0
    0.9721   39.2911   -0.8226 H   0  0  0  0  0  0  0  0  0  0  0  0
    0.7786   41.0011   -0.4033 H   0  0  0  0  0  0  0  0  0  0  0  0
  1 11  1  0  0  0  0
  1  2  1  0  0  0  0
  2  7  1  0  0  0  0
  3  2  2  0  0  0  0
  3  4  1  0  0  0  0
  4  5  2  0  0  0  0
  5  6  1  0  0  0  0
  5 15  1  0  0  0  0
  6  8  2  0  0  0  0
  7 10  2  0  0  0  0
  7  6  1  0  0  0  0
  9  8  1  0  0  0  0
 10  9  1  0  0  0  0
 12 11  1  0  0  0  0
 13 14  1  0  0  0  0
 13 12  2  0  0  0  0
 14  1  2  0  0  0  0
 15 19  1  0  0  0  0
 16 15  2  0  0  0  0
 16 17  1  0  0  0  0
 17 18  2  0  0  0  0
 18 22  1  0  0  0  0
 19 18  1  0  0  0  0
 20  3  1  0  0  0  0
 21  4  1  0  0  0  0
 22 26  1  0  0  0  0
 22 23  2  0  0  0  0
 23 27  1  0  0  0  0
 23 24  1  0  0  0  0
 24155  1  0  0  0  0
 25 24  2  0  0  0  0
 25 89  1  0  0  0  0
 26 25  1  0  0  0  0
 27156  1  0  0  0  0
 27 28  1  0  0  0  0
 28159  1  0  0  0  0
 28158  1  0  0  0  0
 29 12  1  0  0  0  0
 29 33  2  0  0  0  0
 30 31  1  0  0  0  0
 30 29  1  0  0  0  0
 31 32  2  0  0  0  0
 32161  1  0  0  0  0
 32 33  1  0  0  0  0
 33 34  1  0  0  0  0
 34 35  1  0  0  0  0
 34163  1  0  0  0  0
 35166  1  0  0  0  0
 35165  1  0  0  0  0
 36 31  1  0  0  0  0
 37 42  1  0  0  0  0
 37 36  2  0  0  0  0
 38 37  1  0  0  0  0
 39 38  2  0  0  0  0
 39 40  1  0  0  0  0
 40 41  2  0  0  0  0
 41 49  1  0  0  0  0
 41 36  1  0  0  0  0
 42 48  2  0  0  0  0
 43 42  1  0  0  0  0
 44 38  1  0  0  0  0
 44 43  1  0  0  0  0
 45 43  1  0  0  0  0
 45169  1  0  0  0  0
 46172  1  0  0  0  0
 46 45  1  0  0  0  0
 47 44  2  0  0  0  0
 50 40  1  0  0  0  0
 51 52  1  0  0  0  0
 51 61  1  0  0  0  0
 52 53  2  0  0  0  0
 53 54  1  0  0  0  0
 53 70  1  0  0  0  0
 54 71  1  0  0  0  0
 55 65  1  0  0  0  0
 55 54  2  0  0  0  0
 56 55  1  0  0  0  0
 57 56  1  0  0  0  0
 57 52  1  0  0  0  0
 58 56  2  0  0  0  0
 59 60  1  0  0  0  0
 59 58  1  0  0  0  0
 60 57  2  0  0  0  0
 62 79  1  0  0  0  0
 62 61  1  0  0  0  0
 63 64  1  0  0  0  0
 63 62  2  0  0  0  0
 64 51  2  0  0  0  0
 65 66  2  0  0  0  0
 66175  1  0  0  0  0
 67 66  1  0  0  0  0
 67176  1  0  0  0  0
 68 67  2  0  0  0  0
 69 68  1  0  0  0  0
 69 65  1  0  0  0  0
 72 68  1  0  0  0  0
 72 76  1  0  0  0  0
 73 74  1  0  0  0  0
 73 72  2  0  0  0  0
 74 75  2  0  0  0  0
 75139  1  0  0  0  0
 75 76  1  0  0  0  0
 77178  1  0  0  0  0
 77 73  1  0  0  0  0
 78180  1  0  0  0  0
 78 77  1  0  0  0  0
 79 83  2  0  0  0  0
 80 81  1  0  0  0  0
 80 79  1  0  0  0  0
 81 82  2  0  0  0  0
 82 83  1  0  0  0  0
 82183  1  0  0  0  0
 83 84  1  0  0  0  0
 84184  1  0  0  0  0
 84185  1  0  0  0  0
 85 84  1  0  0  0  0
 85187  1  0  0  0  0
 86 81  1  0  0  0  0
 86 87  2  0  0  0  0
 87 92  1  0  0  0  0
 88 87  1  0  0  0  0
 88 94  1  0  0  0  0
 89 88  2  0  0  0  0
 90 91  2  0  0  0  0
 90 89  1  0  0  0  0
 91 86  1  0  0  0  0
 92 93  1  0  0  0  0
 92 98  2  0  0  0  0
 93 95  1  0  0  0  0
 94 97  2  0  0  0  0
 94 93  1  0  0  0  0
 95 96  1  0  0  0  0
 95190  1  0  0  0  0
 96191  1  0  0  0  0
 99 91  1  0  0  0  0
100 90  1  0  0  0  0
101102  1  0  0  0  0
101114  2  0  0  0  0
102103  2  0  0  0  0
103104  1  0  0  0  0
103120  1  0  0  0  0
104121  1  0  0  0  0
105115  1  0  0  0  0
105104  2  0  0  0  0
106105  1  0  0  0  0
107106  1  0  0  0  0
107102  1  0  0  0  0
108106  2  0  0  0  0
109110  1  0  0  0  0
109108  1  0  0  0  0
110107  2  0  0  0  0
111112  1  0  0  0  0
111101  1  0  0  0  0
112113  2  0  0  0  0
113194  1  0  0  0  0
113114  1  0  0  0  0
114195  1  0  0  0  0
115116  2  0  0  0  0
116196  1  0  0  0  0
117116  1  0  0  0  0
117197  1  0  0  0  0
118117  2  0  0  0  0
119118  1  0  0  0  0
119115  1  0  0  0  0
122118  1  0  0  0  0
122126  1  0  0  0  0
123124  1  0  0  0  0
123122  2  0  0  0  0
124125  2  0  0  0  0
125199  1  0  0  0  0
125126  1  0  0  0  0
127128  1  0  0  0  0
127123  1  0  0  0  0
128204  1  0  0  0  0
128202  1  0  0  0  0
129130  1  0  0  0  0
129112  1  0  0  0  0
131130  1  0  0  0  0
132131  2  0  0  0  0
132133  1  0  0  0  0
133129  2  0  0  0  0
134133  1  0  0  0  0
134206  1  0  0  0  0
135208  1  0  0  0  0
135134  1  0  0  0  0
136131  1  0  0  0  0
136141  2  0  0  0  0
137136  1  0  0  0  0
138137  2  0  0  0  0
138139  1  0  0  0  0
139140  2  0  0  0  0
140141  1  0  0  0  0
140150  1  0  0  0  0
141149  1  0  0  0  0
142137  1  0  0  0  0
143144  1  0  0  0  0
143142  1  0  0  0  0
144138  1  0  0  0  0
145212  1  0  0  0  0
145143  1  0  0  0  0
146215  1  0  0  0  0
146145  1  0  0  0  0
147144  2  0  0  0  0
148142  2  0  0  0  0
151 13  1  0  0  0  0
152 14  1  0  0  0  0
153 16  1  0  0  0  0
154 17  1  0  0  0  0
157 27  1  0  0  0  0
160 28  1  0  0  0  0
162 34  1  0  0  0  0
164 35  1  0  0  0  0
167 39  1  0  0  0  0
168 45  1  0  0  0  0
170 46  1  0  0  0  0
171 46  1  0  0  0  0
173 63  1  0  0  0  0
174 64  1  0  0  0  0
177 74  1  0  0  0  0
179 77  1  0  0  0  0
181 78  1  0  0  0  0
182 78  1  0  0  0  0
186 85  1  0  0  0  0
188 85  1  0  0  0  0
189 95  1  0  0  0  0
192 96  1  0  0  0  0
193 96  1  0  0  0  0
198124  1  0  0  0  0
200127  1  0  0  0  0
201127  1  0  0  0  0
203128  1  0  0  0  0
205132  1  0  0  0  0
207134  1  0  0  0  0
209135  1  0  0  0  0
210135  1  0  0  0  0
211145  1  0  0  0  0
213146  1  0  0  0  0
214146  1  0  0  0  0
M  END
