SCF done       -319.725044095239          0.000548582019
 OpenBabel12282109573D

182202  0  0  0  0  0  0  0  0999 V2000
   -2.4417    3.2534    0.6395 C   0  0  0  0  0  0  0  0  0  0  0  0
   -2.8487    1.9219    0.4815 C   0  0  0  0  0  0  0  0  0  0  0  0
   -1.8866    0.8791    0.4868 C   0  0  0  0  0  0  0  0  0  0  0  0
   -0.5282    1.0922    0.6200 C   0  0  0  0  0  0  0  0  0  0  0  0
   -0.1184    2.4256    0.7641 C   0  0  0  0  0  0  0  0  0  0  0  0
   -1.0835    3.4656    0.7721 C   0  0  0  0  0  0  0  0  0  0  0  0
   -4.1622    1.4260    0.2935 C   0  0  0  0  0  0  0  0  0  0  0  0
   -4.2282    0.0696    0.1626 C   0  0  0  0  0  0  0  0  0  0  0  0
   -2.6476   -0.6817    0.2811 S   0  0  0  0  0  0  0  0  0  0  0  0
    1.1984    2.9318    0.9073 C   0  0  0  0  0  0  0  0  0  0  0  0
    1.2586    4.2901    1.0224 C   0  0  0  0  0  0  0  0  0  0  0  0
   -0.3303    5.0288    0.9644 S   0  0  0  0  0  0  0  0  0  0  0  0
    2.4138    5.1099    1.1633 C   0  0  0  0  0  0  0  0  0  0  0  0
    4.0153    4.4343    1.1163 S   0  0  0  0  0  0  0  0  0  0  0  0
    4.7266    6.0099    1.3240 C   0  0  0  0  0  0  0  0  0  0  0  0
    3.7532    6.9807    1.4267 C   0  0  0  0  0  0  0  0  0  0  0  0
    2.4568    6.4757    1.3344 C   0  0  0  0  0  0  0  0  0  0  0  0
    6.1526    6.1418    1.3543 C   0  0  0  0  0  0  0  0  0  0  0  0
    6.8544    7.3292    1.5088 C   0  0  0  0  0  0  0  0  0  0  0  0
    8.2555    7.4064    1.5163 C   0  0  0  0  0  0  0  0  0  0  0  0
    9.1026    6.3166    1.3701 C   0  0  0  0  0  0  0  0  0  0  0  0
    8.4161    5.0864    1.2127 C   0  0  0  0  0  0  0  0  0  0  0  0
    6.9931    5.0126    1.2089 C   0  0  0  0  0  0  0  0  0  0  0  0
    8.8721    3.8355    1.0488 N   0  0  0  0  0  0  0  0  0  0  0  0
    7.7972    3.1030    0.9609 N   0  0  0  0  0  0  0  0  0  0  0  0
    6.6573    3.7283    1.0459 N   0  0  0  0  0  0  0  0  0  0  0  0
    6.1975    8.4956    1.6612 F   0  0  0  0  0  0  0  0  0  0  0  0
    8.7797    8.6382    1.6755 F   0  0  0  0  0  0  0  0  0  0  0  0
   10.5350    6.3979    1.3718 C   0  0  0  0  0  0  0  0  0  0  0  0
    7.8608    1.6869    0.7384 C   0  0  0  0  0  0  0  0  0  0  0  0
    7.4990    1.3621   -0.7073 C   0  0  0  0  0  0  0  0  0  0  0  0
   11.4191    5.3535    1.2316 C   0  0  0  0  0  0  0  0  0  0  0  0
   12.7613    5.7597    1.2751 C   0  0  0  0  0  0  0  0  0  0  0  0
   12.8961    7.1041    1.4467 C   0  0  0  0  0  0  0  0  0  0  0  0
   11.3880    7.9046    1.5594 S   0  0  0  0  0  0  0  0  0  0  0  0
   -3.4171    4.3908    0.6084 C   0  0  0  0  0  0  0  0  0  0  0  0
   -3.7301    4.7957   -0.8335 C   0  0  0  0  0  0  0  0  0  0  0  0
    0.4490   -0.0442    0.6522 C   0  0  0  0  0  0  0  0  0  0  0  0
    0.7924   -0.4238    2.0938 C   0  0  0  0  0  0  0  0  0  0  0  0
  -20.1840   -4.4948   -4.3456 C   0  0  0  0  0  0  0  0  0  0  0  0
  -20.6587   -5.8112   -4.4126 C   0  0  0  0  0  0  0  0  0  0  0  0
  -19.8538   -6.8807   -3.9427 C   0  0  0  0  0  0  0  0  0  0  0  0
  -18.5788   -6.7134   -3.4358 C   0  0  0  0  0  0  0  0  0  0  0  0
  -18.0954   -5.3981   -3.3828 C   0  0  0  0  0  0  0  0  0  0  0  0
  -18.9129   -4.3290   -3.8322 C   0  0  0  0  0  0  0  0  0  0  0  0
  -21.9045   -6.2666   -4.9100 C   0  0  0  0  0  0  0  0  0  0  0  0
  -22.0750   -7.6187   -4.8234 C   0  0  0  0  0  0  0  0  0  0  0  0
  -20.6846   -8.4097   -4.1093 S   0  0  0  0  0  0  0  0  0  0  0  0
  -16.8371   -4.9353   -2.9173 C   0  0  0  0  0  0  0  0  0  0  0  0
  -16.6857   -3.5815   -2.9903 C   0  0  0  0  0  0  0  0  0  0  0  0
  -18.1066   -2.7927   -3.6504 S   0  0  0  0  0  0  0  0  0  0  0  0
  -15.5652   -2.7849   -2.6203 C   0  0  0  0  0  0  0  0  0  0  0  0
  -14.0452   -3.4840   -2.1452 S   0  0  0  0  0  0  0  0  0  0  0  0
  -13.3458   -1.9042   -1.9228 C   0  0  0  0  0  0  0  0  0  0  0  0
  -14.2642   -0.9144   -2.2041 C   0  0  0  0  0  0  0  0  0  0  0  0
  -15.5052   -1.4087   -2.5992 C   0  0  0  0  0  0  0  0  0  0  0  0
  -11.9749   -1.7766   -1.5304 C   0  0  0  0  0  0  0  0  0  0  0  0
  -11.3184   -0.5775   -1.2837 C   0  0  0  0  0  0  0  0  0  0  0  0
   -9.9607   -0.4914   -0.9497 C   0  0  0  0  0  0  0  0  0  0  0  0
   -9.1093   -1.5832   -0.8283 C   0  0  0  0  0  0  0  0  0  0  0  0
   -9.7548   -2.8261   -1.0512 C   0  0  0  0  0  0  0  0  0  0  0  0
  -11.1383   -2.9092   -1.3851 C   0  0  0  0  0  0  0  0  0  0  0  0
   -9.2858   -4.0815   -1.0127 N   0  0  0  0  0  0  0  0  0  0  0  0
  -10.3177   -4.8263   -1.2985 N   0  0  0  0  0  0  0  0  0  0  0  0
  -11.4390   -4.2042   -1.5308 N   0  0  0  0  0  0  0  0  0  0  0  0
  -11.9791    0.5941   -1.3639 F   0  0  0  0  0  0  0  0  0  0  0  0
   -9.4782    0.7522   -0.7510 F   0  0  0  0  0  0  0  0  0  0  0  0
   -7.7132   -1.4807   -0.5333 C   0  0  0  0  0  0  0  0  0  0  0  0
  -10.2167   -6.2541   -1.3974 C   0  0  0  0  0  0  0  0  0  0  0  0
  -10.1780   -6.6820   -2.8609 C   0  0  0  0  0  0  0  0  0  0  0  0
   -6.8059   -2.5148   -0.4230 C   0  0  0  0  0  0  0  0  0  0  0  0
   -5.5052   -2.0855   -0.1637 C   0  0  0  0  0  0  0  0  0  0  0  0
   -5.3931   -0.7151   -0.0671 C   0  0  0  0  0  0  0  0  0  0  0  0
   -6.9299    0.0554   -0.2984 S   0  0  0  0  0  0  0  0  0  0  0  0
  -20.9830   -3.3313   -4.8501 C   0  0  0  0  0  0  0  0  0  0  0  0
  -20.7881   -3.1542   -6.3572 C   0  0  0  0  0  0  0  0  0  0  0  0
  -17.7803   -7.8741   -2.9232 C   0  0  0  0  0  0  0  0  0  0  0  0
  -17.9525   -8.0215   -1.4101 C   0  0  0  0  0  0  0  0  0  0  0  0
  -30.6418  -21.9652   -3.3207 C   0  0  0  0  0  0  0  0  0  0  0  0
  -30.1190  -22.8241   -2.3482 C   0  0  0  0  0  0  0  0  0  0  0  0
  -28.9363  -22.4717   -1.6529 C   0  0  0  0  0  0  0  0  0  0  0  0
  -28.2354  -21.3003   -1.8746 C   0  0  0  0  0  0  0  0  0  0  0  0
  -28.7662  -20.4329   -2.8371 C   0  0  0  0  0  0  0  0  0  0  0  0
  -29.9511  -20.7862   -3.5313 C   0  0  0  0  0  0  0  0  0  0  0  0
  -30.6233  -24.0877   -1.9145 C   0  0  0  0  0  0  0  0  0  0  0  0
  -29.8706  -24.6546   -0.9514 C   0  0  0  0  0  0  0  0  0  0  0  0
  -28.4974  -23.7058   -0.4956 S   0  0  0  0  0  0  0  0  0  0  0  0
  -28.2710  -19.1691   -3.2517 C   0  0  0  0  0  0  0  0  0  0  0  0
  -29.0283  -18.5683   -4.2129 C   0  0  0  0  0  0  0  0  0  0  0  0
  -30.4126  -19.5441   -4.6688 S   0  0  0  0  0  0  0  0  0  0  0  0
  -28.8231  -17.2991   -4.8246 C   0  0  0  0  0  0  0  0  0  0  0  0
  -27.4778  -16.2890   -4.3850 S   0  0  0  0  0  0  0  0  0  0  0  0
  -27.9965  -15.0512   -5.4944 C   0  0  0  0  0  0  0  0  0  0  0  0
  -29.1428  -15.4336   -6.1588 C   0  0  0  0  0  0  0  0  0  0  0  0
  -29.6045  -16.6945   -5.7838 C   0  0  0  0  0  0  0  0  0  0  0  0
  -27.2516  -13.8321   -5.5886 C   0  0  0  0  0  0  0  0  0  0  0  0
  -27.6093  -12.7258   -6.3504 C   0  0  0  0  0  0  0  0  0  0  0  0
  -26.8767  -11.5305   -6.3912 C   0  0  0  0  0  0  0  0  0  0  0  0
  -25.7040  -11.3141   -5.6779 C   0  0  0  0  0  0  0  0  0  0  0  0
  -25.3050  -12.4335   -4.9105 C   0  0  0  0  0  0  0  0  0  0  0  0
  -26.0507  -13.6442   -4.8635 C   0  0  0  0  0  0  0  0  0  0  0  0
  -24.2418  -12.5892   -4.1134 N   0  0  0  0  0  0  0  0  0  0  0  0
  -24.3617  -13.7991   -3.6433 N   0  0  0  0  0  0  0  0  0  0  0  0
  -25.4009  -14.4783   -4.0418 N   0  0  0  0  0  0  0  0  0  0  0  0
  -28.7266  -12.7532   -7.1045 F   0  0  0  0  0  0  0  0  0  0  0  0
  -27.3795  -10.5610   -7.1816 F   0  0  0  0  0  0  0  0  0  0  0  0
  -24.9448  -10.1004   -5.6691 C   0  0  0  0  0  0  0  0  0  0  0  0
  -23.3793  -14.3634   -2.7631 C   0  0  0  0  0  0  0  0  0  0  0  0
  -22.0851  -14.6372   -3.5218 C   0  0  0  0  0  0  0  0  0  0  0  0
  -25.2392   -8.8814   -6.2439 C   0  0  0  0  0  0  0  0  0  0  0  0
  -24.2715   -7.9091   -6.0018 C   0  0  0  0  0  0  0  0  0  0  0  0
  -23.2140   -8.3673   -5.2433 C   0  0  0  0  0  0  0  0  0  0  0  0
  -23.4298  -10.0362   -4.8166 S   0  0  0  0  0  0  0  0  0  0  0  0
  -31.9088  -22.2731   -4.0612 C   0  0  0  0  0  0  0  0  0  0  0  0
  -33.1311  -21.8424   -3.2484 C   0  0  0  0  0  0  0  0  0  0  0  0
  -27.0054  -20.9581   -1.0890 C   0  0  0  0  0  0  0  0  0  0  0  0
  -27.3545  -20.0669    0.1046 C   0  0  0  0  0  0  0  0  0  0  0  0
   -5.0397    2.0460    0.2477 H   0  0  0  0  0  0  0  0  0  0  0  0
    2.0833    2.3209    0.9252 H   0  0  0  0  0  0  0  0  0  0  0  0
    3.9681    8.0239    1.5618 H   0  0  0  0  0  0  0  0  0  0  0  0
    1.5699    7.0819    1.3902 H   0  0  0  0  0  0  0  0  0  0  0  0
    7.1548    1.2063    1.4195 H   0  0  0  0  0  0  0  0  0  0  0  0
    8.8792    1.3712    0.9696 H   0  0  0  0  0  0  0  0  0  0  0  0
    6.4981    1.7248   -0.9270 H   0  0  0  0  0  0  0  0  0  0  0  0
    7.5278    0.2877   -0.8630 H   0  0  0  0  0  0  0  0  0  0  0  0
    8.2021    1.8340   -1.3892 H   0  0  0  0  0  0  0  0  0  0  0  0
   11.0918    4.3391    1.1035 H   0  0  0  0  0  0  0  0  0  0  0  0
   13.5933    5.0846    1.1830 H   0  0  0  0  0  0  0  0  0  0  0  0
   13.8004    7.6761    1.5139 H   0  0  0  0  0  0  0  0  0  0  0  0
   -2.9849    5.2447    1.1352 H   0  0  0  0  0  0  0  0  0  0  0  0
   -4.3391    4.1054    1.1173 H   0  0  0  0  0  0  0  0  0  0  0  0
   -2.8206    5.1077   -1.3417 H   0  0  0  0  0  0  0  0  0  0  0  0
   -4.4362    5.6220   -0.8476 H   0  0  0  0  0  0  0  0  0  0  0  0
   -4.1607    3.9597   -1.3800 H   0  0  0  0  0  0  0  0  0  0  0  0
    1.3600    0.2343    0.1196 H   0  0  0  0  0  0  0  0  0  0  0  0
    0.0080   -0.9076    0.1486 H   0  0  0  0  0  0  0  0  0  0  0  0
    1.2310    0.4230    2.6169 H   0  0  0  0  0  0  0  0  0  0  0  0
    1.5003   -1.2489    2.1093 H   0  0  0  0  0  0  0  0  0  0  0  0
   -0.1060   -0.7282    2.6255 H   0  0  0  0  0  0  0  0  0  0  0  0
  -22.6561   -5.6124   -5.3111 H   0  0  0  0  0  0  0  0  0  0  0  0
  -16.0615   -5.5738   -2.5334 H   0  0  0  0  0  0  0  0  0  0  0  0
  -14.0477    0.1347   -2.1349 H   0  0  0  0  0  0  0  0  0  0  0  0
  -16.3429   -0.7876   -2.8633 H   0  0  0  0  0  0  0  0  0  0  0  0
  -11.0877   -6.6879   -0.9013 H   0  0  0  0  0  0  0  0  0  0  0  0
   -9.3031   -6.5484   -0.8787 H   0  0  0  0  0  0  0  0  0  0  0  0
  -11.0775   -6.3433   -3.3685 H   0  0  0  0  0  0  0  0  0  0  0  0
  -10.1212   -7.7645   -2.9278 H   0  0  0  0  0  0  0  0  0  0  0  0
   -9.3106   -6.2543   -3.3577 H   0  0  0  0  0  0  0  0  0  0  0  0
   -7.0992   -3.5419   -0.5355 H   0  0  0  0  0  0  0  0  0  0  0  0
   -4.6617   -2.7436   -0.0496 H   0  0  0  0  0  0  0  0  0  0  0  0
  -20.6539   -2.4246   -4.3374 H   0  0  0  0  0  0  0  0  0  0  0  0
  -22.0413   -3.4820   -4.6311 H   0  0  0  0  0  0  0  0  0  0  0  0
  -19.7394   -2.9722   -6.5803 H   0  0  0  0  0  0  0  0  0  0  0  0
  -21.3704   -2.3095   -6.7169 H   0  0  0  0  0  0  0  0  0  0  0  0
  -21.1024   -4.0487   -6.8903 H   0  0  0  0  0  0  0  0  0  0  0  0
  -16.7244   -7.7336   -3.1601 H   0  0  0  0  0  0  0  0  0  0  0  0
  -18.1239   -8.7874   -3.4143 H   0  0  0  0  0  0  0  0  0  0  0  0
  -17.6197   -7.1206   -0.8995 H   0  0  0  0  0  0  0  0  0  0  0  0
  -17.3728   -8.8653   -1.0436 H   0  0  0  0  0  0  0  0  0  0  0  0
  -18.9992   -8.1882   -1.1669 H   0  0  0  0  0  0  0  0  0  0  0  0
  -31.5128  -24.5427   -2.3112 H   0  0  0  0  0  0  0  0  0  0  0  0
  -30.0289  -25.5929   -0.4561 H   0  0  0  0  0  0  0  0  0  0  0  0
  -27.3853  -18.7065   -2.8544 H   0  0  0  0  0  0  0  0  0  0  0  0
  -29.6335  -14.8252   -6.8948 H   0  0  0  0  0  0  0  0  0  0  0  0
  -30.4849  -17.1587   -6.1924 H   0  0  0  0  0  0  0  0  0  0  0  0
  -23.8061  -15.2835   -2.3613 H   0  0  0  0  0  0  0  0  0  0  0  0
  -23.1956  -13.6500   -1.9560 H   0  0  0  0  0  0  0  0  0  0  0  0
  -22.2571  -15.3579   -4.3174 H   0  0  0  0  0  0  0  0  0  0  0  0
  -21.3367  -15.0364   -2.8435 H   0  0  0  0  0  0  0  0  0  0  0  0
  -21.7117  -13.7133   -3.9563 H   0  0  0  0  0  0  0  0  0  0  0  0
  -26.1277   -8.6944   -6.8169 H   0  0  0  0  0  0  0  0  0  0  0  0
  -24.3365   -6.9048   -6.3786 H   0  0  0  0  0  0  0  0  0  0  0  0
  -31.9665  -23.3421   -4.2729 H   0  0  0  0  0  0  0  0  0  0  0  0
  -31.9040  -21.7366   -5.0127 H   0  0  0  0  0  0  0  0  0  0  0  0
  -33.1550  -22.3594   -2.2917 H   0  0  0  0  0  0  0  0  0  0  0  0
  -34.0453  -22.0698   -3.7913 H   0  0  0  0  0  0  0  0  0  0  0  0
  -33.0975  -20.7720   -3.0596 H   0  0  0  0  0  0  0  0  0  0  0  0
  -26.2858  -20.4464   -1.7304 H   0  0  0  0  0  0  0  0  0  0  0  0
  -26.5459  -21.8801   -0.7261 H   0  0  0  0  0  0  0  0  0  0  0  0
  -27.8201  -19.1434   -0.2321 H   0  0  0  0  0  0  0  0  0  0  0  0
  -26.4575  -19.8209    0.6678 H   0  0  0  0  0  0  0  0  0  0  0  0
  -28.0484  -20.5807    0.7658 H   0  0  0  0  0  0  0  0  0  0  0  0
  1  6  2  0  0  0  0
  2  3  2  0  0  0  0
  2  1  1  0  0  0  0
  3  4  1  0  0  0  0
  4 38  1  0  0  0  0
  4  5  2  0  0  0  0
  5  6  1  0  0  0  0
  5 10  1  0  0  0  0
  6 12  1  0  0  0  0
  7  2  1  0  0  0  0
  8  9  1  0  0  0  0
  8  7  2  0  0  0  0
  9  3  1  0  0  0  0
 10119  1  0  0  0  0
 10 11  2  0  0  0  0
 11 13  1  0  0  0  0
 12 11  1  0  0  0  0
 13 17  2  0  0  0  0
 14 13  1  0  0  0  0
 14 15  1  0  0  0  0
 15 18  1  0  0  0  0
 15 16  2  0  0  0  0
 16120  1  0  0  0  0
 17121  1  0  0  0  0
 17 16  1  0  0  0  0
 18 19  2  0  0  0  0
 19 20  1  0  0  0  0
 19 27  1  0  0  0  0
 20 28  1  0  0  0  0
 21 29  1  0  0  0  0
 21 20  2  0  0  0  0
 22 21  1  0  0  0  0
 23 22  1  0  0  0  0
 23 18  1  0  0  0  0
 24 22  2  0  0  0  0
 25 26  1  0  0  0  0
 25 24  1  0  0  0  0
 26 23  2  0  0  0  0
 29 35  1  0  0  0  0
 30 25  1  0  0  0  0
 30123  1  0  0  0  0
 30122  1  0  0  0  0
 31 30  1  0  0  0  0
 32 33  1  0  0  0  0
 32 29  2  0  0  0  0
 33 34  2  0  0  0  0
 34129  1  0  0  0  0
 34 35  1  0  0  0  0
 36  1  1  0  0  0  0
 36131  1  0  0  0  0
 36130  1  0  0  0  0
 37 36  1  0  0  0  0
 38 39  1  0  0  0  0
 39138  1  0  0  0  0
 39137  1  0  0  0  0
 39139  1  0  0  0  0
 40 45  1  0  0  0  0
 41 40  2  0  0  0  0
 41 42  1  0  0  0  0
 42 43  2  0  0  0  0
 43 44  1  0  0  0  0
 43 77  1  0  0  0  0
 44 49  1  0  0  0  0
 45 51  1  0  0  0  0
 45 44  2  0  0  0  0
 46 47  2  0  0  0  0
 46 41  1  0  0  0  0
 47 48  1  0  0  0  0
 48 42  1  0  0  0  0
 49141  1  0  0  0  0
 50 49  2  0  0  0  0
 50 52  1  0  0  0  0
 51 50  1  0  0  0  0
 52 56  2  0  0  0  0
 52 53  1  0  0  0  0
 53 54  1  0  0  0  0
 54 57  1  0  0  0  0
 55142  1  0  0  0  0
 55 54  2  0  0  0  0
 56 55  1  0  0  0  0
 57 62  1  0  0  0  0
 57 58  2  0  0  0  0
 58 59  1  0  0  0  0
 59 60  2  0  0  0  0
 59 67  1  0  0  0  0
 60 68  1  0  0  0  0
 61 63  2  0  0  0  0
 61 60  1  0  0  0  0
 62 61  1  0  0  0  0
 64 63  1  0  0  0  0
 65 62  2  0  0  0  0
 65 64  1  0  0  0  0
 66 58  1  0  0  0  0
 68 71  2  0  0  0  0
 68 74  1  0  0  0  0
 69 64  1  0  0  0  0
 69144  1  0  0  0  0
 69145  1  0  0  0  0
 70 69  1  0  0  0  0
 71 72  1  0  0  0  0
 72 73  2  0  0  0  0
 72150  1  0  0  0  0
 73  8  1  0  0  0  0
 74 73  1  0  0  0  0
 75152  1  0  0  0  0
 75 40  1  0  0  0  0
 75151  1  0  0  0  0
 76 75  1  0  0  0  0
 77 78  1  0  0  0  0
 78160  1  0  0  0  0
 78159  1  0  0  0  0
 78158  1  0  0  0  0
 79 80  1  0  0  0  0
 80 85  1  0  0  0  0
 80 81  2  0  0  0  0
 81 87  1  0  0  0  0
 82 81  1  0  0  0  0
 82116  1  0  0  0  0
 83 82  2  0  0  0  0
 84 79  2  0  0  0  0
 84 83  1  0  0  0  0
 85 86  2  0  0  0  0
 86 87  1  0  0  0  0
 86162  1  0  0  0  0
 88163  1  0  0  0  0
 88 83  1  0  0  0  0
 89 88  2  0  0  0  0
 90 89  1  0  0  0  0
 90 84  1  0  0  0  0
 91 92  1  0  0  0  0
 91 89  1  0  0  0  0
 93 92  1  0  0  0  0
 94 95  1  0  0  0  0
 94 93  2  0  0  0  0
 95 91  2  0  0  0  0
 96 93  1  0  0  0  0
 96101  1  0  0  0  0
 97 96  2  0  0  0  0
 98 97  1  0  0  0  0
 98 99  2  0  0  0  0
 99107  1  0  0  0  0
 99100  1  0  0  0  0
100101  1  0  0  0  0
100102  2  0  0  0  0
101104  2  0  0  0  0
102103  1  0  0  0  0
103108  1  0  0  0  0
104103  1  0  0  0  0
105 97  1  0  0  0  0
106 98  1  0  0  0  0
107113  1  0  0  0  0
108166  1  0  0  0  0
108167  1  0  0  0  0
109169  1  0  0  0  0
109108  1  0  0  0  0
110111  1  0  0  0  0
110107  2  0  0  0  0
111112  2  0  0  0  0
112 47  1  0  0  0  0
112113  1  0  0  0  0
114 79  1  0  0  0  0
114115  1  0  0  0  0
115177  1  0  0  0  0
115175  1  0  0  0  0
116179  1  0  0  0  0
116117  1  0  0  0  0
117181  1  0  0  0  0
117182  1  0  0  0  0
118  7  1  0  0  0  0
124 31  1  0  0  0  0
125 31  1  0  0  0  0
126 31  1  0  0  0  0
127 32  1  0  0  0  0
128 33  1  0  0  0  0
132 37  1  0  0  0  0
133 37  1  0  0  0  0
134 37  1  0  0  0  0
135 38  1  0  0  0  0
136 38  1  0  0  0  0
140 46  1  0  0  0  0
143 56  1  0  0  0  0
146 70  1  0  0  0  0
147 70  1  0  0  0  0
148 70  1  0  0  0  0
149 71  1  0  0  0  0
153 76  1  0  0  0  0
154 76  1  0  0  0  0
155 76  1  0  0  0  0
156 77  1  0  0  0  0
157 77  1  0  0  0  0
161 85  1  0  0  0  0
164 94  1  0  0  0  0
165 95  1  0  0  0  0
168109  1  0  0  0  0
170109  1  0  0  0  0
171110  1  0  0  0  0
172111  1  0  0  0  0
173114  1  0  0  0  0
174114  1  0  0  0  0
176115  1  0  0  0  0
178116  1  0  0  0  0
180117  1  0  0  0  0
M  END
