SCF done       -249.338024987347          0.000954608946
 OpenBabel12282109573D

136148  0  0  0  0  0  0  0  0999 V2000
    0.8652    0.7282    0.2103 C   0  0  0  0  0  0  0  0  0  0  0  0
    1.1123   -0.6142   -0.1695 C   0  0  0  0  0  0  0  0  0  0  0  0
    0.1051   -1.5472   -0.3860 C   0  0  0  0  0  0  0  0  0  0  0  0
   -1.2133   -1.1067   -0.1530 C   0  0  0  0  0  0  0  0  0  0  0  0
   -1.4602    0.2300    0.2465 C   0  0  0  0  0  0  0  0  0  0  0  0
   -0.4564    1.1795    0.4060 C   0  0  0  0  0  0  0  0  0  0  0  0
   -2.4085   -1.8576   -0.2437 C   0  0  0  0  0  0  0  0  0  0  0  0
   -3.5332   -1.1447    0.0541 C   0  0  0  0  0  0  0  0  0  0  0  0
   -3.1668    0.5172    0.4669 S   0  0  0  0  0  0  0  0  0  0  0  0
    2.0668    1.4588    0.3677 C   0  0  0  0  0  0  0  0  0  0  0  0
    3.1924    0.7355    0.0997 C   0  0  0  0  0  0  0  0  0  0  0  0
    2.8191   -0.9135   -0.3621 S   0  0  0  0  0  0  0  0  0  0  0  0
   -0.7644    2.5570    0.7298 C   0  0  0  0  0  0  0  0  0  0  0  0
    0.4082   -2.8907   -0.8362 C   0  0  0  0  0  0  0  0  0  0  0  0
   -4.8701   -1.6314    0.0852 C   0  0  0  0  0  0  0  0  0  0  0  0
    4.5430    1.1719    0.1834 C   0  0  0  0  0  0  0  0  0  0  0  0
    5.6880    0.4310   -0.0268 C   0  0  0  0  0  0  0  0  0  0  0  0
    6.8571    1.1633    0.1556 C   0  0  0  0  0  0  0  0  0  0  0  0
    6.6295    2.4808    0.5038 C   0  0  0  0  0  0  0  0  0  0  0  0
    4.9227    2.8094    0.6044 S   0  0  0  0  0  0  0  0  0  0  0  0
   -5.2389   -3.2297   -0.4857 S   0  0  0  0  0  0  0  0  0  0  0  0
   -6.9139   -3.0358   -0.0566 C   0  0  0  0  0  0  0  0  0  0  0  0
   -7.1461   -1.7862    0.4800 C   0  0  0  0  0  0  0  0  0  0  0  0
   -6.0002   -0.9949    0.5505 C   0  0  0  0  0  0  0  0  0  0  0  0
   -1.7193    3.0352    1.5836 C   0  0  0  0  0  0  0  0  0  0  0  0
   -1.7755    4.4418    1.6267 C   0  0  0  0  0  0  0  0  0  0  0  0
   -0.8837    5.0478    0.7958 C   0  0  0  0  0  0  0  0  0  0  0  0
    0.0650    3.8753   -0.0537 S   0  0  0  0  0  0  0  0  0  0  0  0
    1.4396   -3.6984   -0.4471 C   0  0  0  0  0  0  0  0  0  0  0  0
    1.4626   -4.9381   -1.1160 C   0  0  0  0  0  0  0  0  0  0  0  0
    0.4654   -5.0798   -2.0305 C   0  0  0  0  0  0  0  0  0  0  0  0
   -0.5426   -3.6711   -2.0704 S   0  0  0  0  0  0  0  0  0  0  0  0
   -0.6298    6.5023    0.6002 C   0  0  0  0  0  0  0  0  0  0  0  0
    0.7013    6.9218    1.2282 C   0  0  0  0  0  0  0  0  0  0  0  0
    0.1533   -6.2509   -2.8971 C   0  0  0  0  0  0  0  0  0  0  0  0
   -1.1241   -6.9567   -2.4375 C   0  0  0  0  0  0  0  0  0  0  0  0
   -7.8225   -4.1199   -0.2770 C   0  0  0  0  0  0  0  0  0  0  0  0
    7.6208    3.4768    0.7623 C   0  0  0  0  0  0  0  0  0  0  0  0
    9.0090    3.1868    0.7367 C   0  0  0  0  0  0  0  0  0  0  0  0
    9.9905    4.1848    0.9988 C   0  0  0  0  0  0  0  0  0  0  0  0
    9.6743    5.5320    1.2956 C   0  0  0  0  0  0  0  0  0  0  0  0
    8.3082    5.7853    1.3141 C   0  0  0  0  0  0  0  0  0  0  0  0
    7.3380    4.8055    1.0627 C   0  0  0  0  0  0  0  0  0  0  0  0
   -9.1125   -4.2091    0.2301 C   0  0  0  0  0  0  0  0  0  0  0  0
   -9.9541   -5.3089    0.0113 C   0  0  0  0  0  0  0  0  0  0  0  0
   -9.6091   -6.4218   -0.7465 C   0  0  0  0  0  0  0  0  0  0  0  0
   -8.3024   -6.3537   -1.2921 C   0  0  0  0  0  0  0  0  0  0  0  0
   -7.4433   -5.2433   -1.0499 C   0  0  0  0  0  0  0  0  0  0  0  0
    9.6689    2.0429    0.5021 N   0  0  0  0  0  0  0  0  0  0  0  0
   10.9274    2.3582    0.6227 N   0  0  0  0  0  0  0  0  0  0  0  0
   11.1904    3.6010    0.9126 N   0  0  0  0  0  0  0  0  0  0  0  0
   -7.6237   -7.2118   -2.0669 N   0  0  0  0  0  0  0  0  0  0  0  0
   -6.4674   -6.6386   -2.2562 N   0  0  0  0  0  0  0  0  0  0  0  0
   -6.2908   -5.4818   -1.6866 N   0  0  0  0  0  0  0  0  0  0  0  0
   10.7106    6.4898    1.5419 C   0  0  0  0  0  0  0  0  0  0  0  0
    7.8483    7.0201    1.5827 F   0  0  0  0  0  0  0  0  0  0  0  0
    6.0540    5.2105    1.1206 F   0  0  0  0  0  0  0  0  0  0  0  0
   11.9740    1.3990    0.4134 C   0  0  0  0  0  0  0  0  0  0  0  0
   12.6586    1.6455   -0.9269 C   0  0  0  0  0  0  0  0  0  0  0  0
  -11.1670   -5.2584    0.5961 F   0  0  0  0  0  0  0  0  0  0  0  0
   -9.6103   -3.2200    0.9961 F   0  0  0  0  0  0  0  0  0  0  0  0
   -5.4268   -7.2717   -3.0145 C   0  0  0  0  0  0  0  0  0  0  0  0
   -4.6744   -8.2753   -2.1461 C   0  0  0  0  0  0  0  0  0  0  0  0
  -10.4651   -7.5510   -0.9553 C   0  0  0  0  0  0  0  0  0  0  0  0
   10.6079    7.8370    1.8489 C   0  0  0  0  0  0  0  0  0  0  0  0
   11.8369    8.4603    2.0232 C   0  0  0  0  0  0  0  0  0  0  0  0
   12.9140    7.6049    1.8535 C   0  0  0  0  0  0  0  0  0  0  0  0
   12.3666    5.9929    1.4684 S   0  0  0  0  0  0  0  0  0  0  0  0
  -12.0252   -7.6859   -0.2103 S   0  0  0  0  0  0  0  0  0  0  0  0
  -12.2869   -9.2413   -0.9332 C   0  0  0  0  0  0  0  0  0  0  0  0
  -11.2043   -9.6062   -1.7156 C   0  0  0  0  0  0  0  0  0  0  0  0
  -10.1825   -8.6645   -1.7253 C   0  0  0  0  0  0  0  0  0  0  0  0
   14.3040    7.8421    1.9467 C   0  0  0  0  0  0  0  0  0  0  0  0
   14.9463    9.0071    2.2377 C   0  0  0  0  0  0  0  0  0  0  0  0
   14.3172   10.2333    2.5100 C   0  0  0  0  0  0  0  0  0  0  0  0
   16.4303    8.9926    2.2798 C   0  0  0  0  0  0  0  0  0  0  0  0
   16.9218   10.1996    2.5678 O   0  0  0  0  0  0  0  0  0  0  0  0
   17.0980    8.0088    2.0691 O   0  0  0  0  0  0  0  0  0  0  0  0
   18.3404   10.3188    2.6630 C   0  0  0  0  0  0  0  0  0  0  0  0
   18.8410    9.8948    4.0365 C   0  0  0  0  0  0  0  0  0  0  0  0
  -13.4593  -10.0220   -0.7446 C   0  0  0  0  0  0  0  0  0  0  0  0
  -14.5291   -9.7222    0.0265 C   0  0  0  0  0  0  0  0  0  0  0  0
  -14.6624   -8.4683    0.8470 C   0  0  0  0  0  0  0  0  0  0  0  0
  -15.6342  -10.5856    0.1027 C   0  0  0  0  0  0  0  0  0  0  0  0
  -13.8718   -8.5338    1.9161 O   0  0  0  0  0  0  0  0  0  0  0  0
  -15.3895   -7.5555    0.5673 O   0  0  0  0  0  0  0  0  0  0  0  0
  -13.8749   -7.4061    2.7980 C   0  0  0  0  0  0  0  0  0  0  0  0
  -15.0483   -7.4618    3.7637 C   0  0  0  0  0  0  0  0  0  0  0  0
   13.8218   11.2459    2.7308 N   0  0  0  0  0  0  0  0  0  0  0  0
  -16.5300  -11.2992    0.1832 N   0  0  0  0  0  0  0  0  0  0  0  0
   -2.4493   -2.9008   -0.4984 H   0  0  0  0  0  0  0  0  0  0  0  0
    2.1125    2.4840    0.6870 H   0  0  0  0  0  0  0  0  0  0  0  0
    5.6599   -0.6089   -0.3004 H   0  0  0  0  0  0  0  0  0  0  0  0
    7.8495    0.7682    0.0445 H   0  0  0  0  0  0  0  0  0  0  0  0
   -8.1141   -1.4523    0.8043 H   0  0  0  0  0  0  0  0  0  0  0  0
   -5.9830    0.0083    0.9381 H   0  0  0  0  0  0  0  0  0  0  0  0
   -2.3370    2.4010    2.1932 H   0  0  0  0  0  0  0  0  0  0  0  0
   -2.4598    4.9864    2.2530 H   0  0  0  0  0  0  0  0  0  0  0  0
    2.1401   -3.4300    0.3227 H   0  0  0  0  0  0  0  0  0  0  0  0
    2.1993   -5.6984   -0.9250 H   0  0  0  0  0  0  0  0  0  0  0  0
   -1.4470    7.0654    1.0558 H   0  0  0  0  0  0  0  0  0  0  0  0
   -0.6088    6.7323   -0.4681 H   0  0  0  0  0  0  0  0  0  0  0  0
    0.6995    6.7110    2.2953 H   0  0  0  0  0  0  0  0  0  0  0  0
    0.8667    7.9863    1.0843 H   0  0  0  0  0  0  0  0  0  0  0  0
    1.5242    6.3775    0.7703 H   0  0  0  0  0  0  0  0  0  0  0  0
    0.9935   -6.9474   -2.8623 H   0  0  0  0  0  0  0  0  0  0  0  0
    0.0257   -5.9199   -3.9310 H   0  0  0  0  0  0  0  0  0  0  0  0
   -1.0114   -7.3150   -1.4167 H   0  0  0  0  0  0  0  0  0  0  0  0
   -1.3376   -7.8051   -3.0830 H   0  0  0  0  0  0  0  0  0  0  0  0
   -1.9652   -6.2678   -2.4717 H   0  0  0  0  0  0  0  0  0  0  0  0
   11.5135    0.4105    0.4450 H   0  0  0  0  0  0  0  0  0  0  0  0
   12.6951    1.5038    1.2273 H   0  0  0  0  0  0  0  0  0  0  0  0
   11.9479    1.5368   -1.7425 H   0  0  0  0  0  0  0  0  0  0  0  0
   13.4632    0.9297   -1.0662 H   0  0  0  0  0  0  0  0  0  0  0  0
   13.0725    2.6503   -0.9506 H   0  0  0  0  0  0  0  0  0  0  0  0
   -4.7582   -6.4831   -3.3633 H   0  0  0  0  0  0  0  0  0  0  0  0
   -5.8914   -7.7764   -3.8642 H   0  0  0  0  0  0  0  0  0  0  0  0
   -4.2093   -7.7699   -1.3035 H   0  0  0  0  0  0  0  0  0  0  0  0
   -3.9008   -8.7622   -2.7318 H   0  0  0  0  0  0  0  0  0  0  0  0
   -5.3592   -9.0315   -1.7705 H   0  0  0  0  0  0  0  0  0  0  0  0
    9.6698    8.3511    1.9439 H   0  0  0  0  0  0  0  0  0  0  0  0
   11.9472    9.5012    2.2655 H   0  0  0  0  0  0  0  0  0  0  0  0
  -11.1687  -10.5352   -2.2568 H   0  0  0  0  0  0  0  0  0  0  0  0
   -9.2596   -8.7639   -2.2653 H   0  0  0  0  0  0  0  0  0  0  0  0
   14.9510    6.9907    1.7657 H   0  0  0  0  0  0  0  0  0  0  0  0
   18.5461   11.3747    2.4764 H   0  0  0  0  0  0  0  0  0  0  0  0
   18.8016    9.7027    1.8835 H   0  0  0  0  0  0  0  0  0  0  0  0
   18.3410   10.4712    4.8114 H   0  0  0  0  0  0  0  0  0  0  0  0
   19.9120   10.0636    4.1017 H   0  0  0  0  0  0  0  0  0  0  0  0
   18.6406    8.8377    4.1957 H   0  0  0  0  0  0  0  0  0  0  0  0
  -13.4813  -10.9531   -1.3002 H   0  0  0  0  0  0  0  0  0  0  0  0
  -13.9115   -6.4913    2.1981 H   0  0  0  0  0  0  0  0  0  0  0  0
  -12.9213   -7.4645    3.3259 H   0  0  0  0  0  0  0  0  0  0  0  0
  -15.9854   -7.3930    3.2167 H   0  0  0  0  0  0  0  0  0  0  0  0
  -14.9852   -6.6297    4.4588 H   0  0  0  0  0  0  0  0  0  0  0  0
  -15.0330   -8.3949    4.3222 H   0  0  0  0  0  0  0  0  0  0  0  0
  1 10  1  0  0  0  0
  1  6  2  0  0  0  0
  2  1  1  0  0  0  0
  3  2  2  0  0  0  0
  3  4  1  0  0  0  0
  4  5  2  0  0  0  0
  5  6  1  0  0  0  0
  5  9  1  0  0  0  0
  6 13  1  0  0  0  0
  7  4  1  0  0  0  0
  7  8  2  0  0  0  0
  8 15  1  0  0  0  0
  8  9  1  0  0  0  0
 10 92  1  0  0  0  0
 11 16  1  0  0  0  0
 11 10  2  0  0  0  0
 12  2  1  0  0  0  0
 12 11  1  0  0  0  0
 13 25  2  0  0  0  0
 14 29  2  0  0  0  0
 14  3  1  0  0  0  0
 15 24  2  0  0  0  0
 16 20  1  0  0  0  0
 17 18  1  0  0  0  0
 17 16  2  0  0  0  0
 18 19  2  0  0  0  0
 19 20  1  0  0  0  0
 19 38  1  0  0  0  0
 21 22  1  0  0  0  0
 21 15  1  0  0  0  0
 22 23  2  0  0  0  0
 23 24  1  0  0  0  0
 23 95  1  0  0  0  0
 24 96  1  0  0  0  0
 25 26  1  0  0  0  0
 25 97  1  0  0  0  0
 26 98  1  0  0  0  0
 27 26  2  0  0  0  0
 28 13  1  0  0  0  0
 28 27  1  0  0  0  0
 29 99  1  0  0  0  0
 30100  1  0  0  0  0
 30 29  1  0  0  0  0
 31 30  2  0  0  0  0
 32 31  1  0  0  0  0
 32 14  1  0  0  0  0
 33 27  1  0  0  0  0
 33101  1  0  0  0  0
 33 34  1  0  0  0  0
 34103  1  0  0  0  0
 35106  1  0  0  0  0
 35 36  1  0  0  0  0
 35 31  1  0  0  0  0
 36108  1  0  0  0  0
 37 22  1  0  0  0  0
 37 44  2  0  0  0  0
 38 43  2  0  0  0  0
 39 38  1  0  0  0  0
 39 40  1  0  0  0  0
 40 41  1  0  0  0  0
 41 42  2  0  0  0  0
 41 55  1  0  0  0  0
 42 56  1  0  0  0  0
 43 57  1  0  0  0  0
 43 42  1  0  0  0  0
 44 61  1  0  0  0  0
 45 44  1  0  0  0  0
 45 60  1  0  0  0  0
 46 45  2  0  0  0  0
 47 48  1  0  0  0  0
 47 46  1  0  0  0  0
 48 37  1  0  0  0  0
 49 50  1  0  0  0  0
 49 39  2  0  0  0  0
 50 51  1  0  0  0  0
 51 40  2  0  0  0  0
 52 47  2  0  0  0  0
 53 52  1  0  0  0  0
 53 54  1  0  0  0  0
 54 48  2  0  0  0  0
 55 65  2  0  0  0  0
 58111  1  0  0  0  0
 58 50  1  0  0  0  0
 58112  1  0  0  0  0
 59 58  1  0  0  0  0
 62 53  1  0  0  0  0
 62 63  1  0  0  0  0
 63120  1  0  0  0  0
 63118  1  0  0  0  0
 64 46  1  0  0  0  0
 64 69  1  0  0  0  0
 65121  1  0  0  0  0
 65 66  1  0  0  0  0
 66122  1  0  0  0  0
 67 73  1  0  0  0  0
 67 66  2  0  0  0  0
 68 55  1  0  0  0  0
 68 67  1  0  0  0  0
 70 81  1  0  0  0  0
 70 69  1  0  0  0  0
 71 70  2  0  0  0  0
 72 71  1  0  0  0  0
 72 64  2  0  0  0  0
 73 74  2  0  0  0  0
 74 76  1  0  0  0  0
 74 75  1  0  0  0  0
 75 89  3  0  0  0  0
 76 77  1  0  0  0  0
 77 79  1  0  0  0  0
 78 76  2  0  0  0  0
 79 80  1  0  0  0  0
 80129  1  0  0  0  0
 80130  1  0  0  0  0
 80128  1  0  0  0  0
 81 82  2  0  0  0  0
 82 84  1  0  0  0  0
 82 83  1  0  0  0  0
 83 85  1  0  0  0  0
 84 90  3  0  0  0  0
 85 87  1  0  0  0  0
 86 83  2  0  0  0  0
 87133  1  0  0  0  0
 87 88  1  0  0  0  0
 88136  1  0  0  0  0
 88135  1  0  0  0  0
 91  7  1  0  0  0  0
 93 17  1  0  0  0  0
 94 18  1  0  0  0  0
102 33  1  0  0  0  0
104 34  1  0  0  0  0
105 34  1  0  0  0  0
107 35  1  0  0  0  0
109 36  1  0  0  0  0
110 36  1  0  0  0  0
113 59  1  0  0  0  0
114 59  1  0  0  0  0
115 59  1  0  0  0  0
116 62  1  0  0  0  0
117 62  1  0  0  0  0
119 63  1  0  0  0  0
123 71  1  0  0  0  0
124 72  1  0  0  0  0
125 73  1  0  0  0  0
126 79  1  0  0  0  0
127 79  1  0  0  0  0
131 81  1  0  0  0  0
132 87  1  0  0  0  0
134 88  1  0  0  0  0
M  END
