SCF done       -488.425444765800          0.000993695512
 OpenBabel12282109573D

314340  0  0  0  0  0  0  0  0999 V2000
    6.3128    2.4546   -9.6539 C   0  0  0  0  0  0  0  0  0  0  0  0
    6.8451    2.9864  -10.8418 C   0  0  0  0  0  0  0  0  0  0  0  0
    7.9764    3.8328  -10.7988 C   0  0  0  0  0  0  0  0  0  0  0  0
    8.6222    4.1865   -9.6179 C   0  0  0  0  0  0  0  0  0  0  0  0
    8.0626    3.6888   -8.4251 C   0  0  0  0  0  0  0  0  0  0  0  0
    6.9263    2.8454   -8.4693 C   0  0  0  0  0  0  0  0  0  0  0  0
    6.3783    2.8004  -12.1768 C   0  0  0  0  0  0  0  0  0  0  0  0
    7.1305    3.4431  -13.0919 C   0  0  0  0  0  0  0  0  0  0  0  0
    8.4497    4.3265  -12.4035 S   0  0  0  0  0  0  0  0  0  0  0  0
    8.4796    3.9344   -7.0935 C   0  0  0  0  0  0  0  0  0  0  0  0
    7.7339    3.2887   -6.1538 C   0  0  0  0  0  0  0  0  0  0  0  0
    6.4462    2.3411   -6.8703 S   0  0  0  0  0  0  0  0  0  0  0  0
    5.1966    1.5290   -9.6720 C   0  0  0  0  0  0  0  0  0  0  0  0
    9.8052    5.0220   -9.6106 C   0  0  0  0  0  0  0  0  0  0  0  0
   10.0678    6.1392  -10.3585 C   0  0  0  0  0  0  0  0  0  0  0  0
   11.3039    6.7297  -10.0502 C   0  0  0  0  0  0  0  0  0  0  0  0
   12.0206    6.0730   -9.0846 C   0  0  0  0  0  0  0  0  0  0  0  0
   11.1376    4.6750   -8.5541 S   0  0  0  0  0  0  0  0  0  0  0  0
    5.0119    0.4473  -10.4906 C   0  0  0  0  0  0  0  0  0  0  0  0
    3.8289   -0.2558  -10.2120 C   0  0  0  0  0  0  0  0  0  0  0  0
    3.0846    0.2732   -9.1909 C   0  0  0  0  0  0  0  0  0  0  0  0
    3.8792    1.6806   -8.5535 S   0  0  0  0  0  0  0  0  0  0  0  0
    7.9049    3.3327   -4.7408 C   0  0  0  0  0  0  0  0  0  0  0  0
    9.2098    4.2276   -4.0218 S   0  0  0  0  0  0  0  0  0  0  0  0
    8.6745    3.8004   -2.4224 C   0  0  0  0  0  0  0  0  0  0  0  0
    7.5652    2.9875   -2.4776 C   0  0  0  0  0  0  0  0  0  0  0  0
    7.1347    2.7218   -3.7787 C   0  0  0  0  0  0  0  0  0  0  0  0
    9.4141    4.2733   -1.2816 C   0  0  0  0  0  0  0  0  0  0  0  0
    8.8870    4.5107   -0.0169 C   0  0  0  0  0  0  0  0  0  0  0  0
    9.6610    4.9270    1.0883 C   0  0  0  0  0  0  0  0  0  0  0  0
   11.0376    5.1299    1.0219 C   0  0  0  0  0  0  0  0  0  0  0  0
   11.5767    4.9456   -0.2739 C   0  0  0  0  0  0  0  0  0  0  0  0
   10.7971    4.5453   -1.3923 C   0  0  0  0  0  0  0  0  0  0  0  0
   12.8368    5.0903   -0.6989 N   0  0  0  0  0  0  0  0  0  0  0  0
   12.7890    4.8018   -1.9688 N   0  0  0  0  0  0  0  0  0  0  0  0
   11.6226    4.4698   -2.4464 N   0  0  0  0  0  0  0  0  0  0  0  0
    7.1862    4.3574    0.2394 Cl  0  0  0  0  0  0  0  0  0  0  0  0
    8.7949    5.2205    2.5499 Cl  0  0  0  0  0  0  0  0  0  0  0  0
   11.9163    5.5100    2.0925 C   0  0  0  0  0  0  0  0  0  0  0  0
   13.9668    4.8418   -2.7886 C   0  0  0  0  0  0  0  0  0  0  0  0
   14.6282    6.2113   -2.6998 C   0  0  0  0  0  0  0  0  0  0  0  0
   11.7229    5.5180    3.4580 C   0  0  0  0  0  0  0  0  0  0  0  0
   12.8287    5.9627    4.1788 C   0  0  0  0  0  0  0  0  0  0  0  0
   13.8995    6.3033    3.3798 C   0  0  0  0  0  0  0  0  0  0  0  0
   13.5312    6.0433    1.7057 S   0  0  0  0  0  0  0  0  0  0  0  0
   13.6145    6.4844   -8.2214 Si  0  0  0  0  0  0  0  0  0  0  0  0
   13.9437    8.3271   -8.4340 C   0  0  0  0  0  0  0  0  0  0  0  0
   15.2004    8.8208   -7.7106 C   0  0  0  0  0  0  0  0  0  0  0  0
   13.3658    6.0237   -6.4063 C   0  0  0  0  0  0  0  0  0  0  0  0
   12.2086    6.7632   -5.7240 C   0  0  0  0  0  0  0  0  0  0  0  0
   15.0119    5.4430   -8.9450 C   0  0  0  0  0  0  0  0  0  0  0  0
   15.2465    5.6759  -10.4417 C   0  0  0  0  0  0  0  0  0  0  0  0
    1.4715   -0.2818   -8.4486 Si  0  0  0  0  0  0  0  0  0  0  0  0
    1.2030   -2.0817   -8.9408 C   0  0  0  0  0  0  0  0  0  0  0  0
   -0.0789   -2.6961   -8.3704 C   0  0  0  0  0  0  0  0  0  0  0  0
    1.5953   -0.0812   -6.5781 C   0  0  0  0  0  0  0  0  0  0  0  0
    2.7570   -0.8498   -5.9382 C   0  0  0  0  0  0  0  0  0  0  0  0
    0.0884    0.8210   -9.1084 C   0  0  0  0  0  0  0  0  0  0  0  0
   -0.0788    0.7705  -10.6311 C   0  0  0  0  0  0  0  0  0  0  0  0
   17.3877    8.1781    6.4194 C   0  0  0  0  0  0  0  0  0  0  0  0
   16.7843    7.6756    5.2498 C   0  0  0  0  0  0  0  0  0  0  0  0
   17.5349    7.5449    4.0559 C   0  0  0  0  0  0  0  0  0  0  0  0
   18.8846    7.8724    3.9629 C   0  0  0  0  0  0  0  0  0  0  0  0
   19.4845    8.3969    5.1266 C   0  0  0  0  0  0  0  0  0  0  0  0
   18.7247    8.5418    6.3133 C   0  0  0  0  0  0  0  0  0  0  0  0
   15.4428    7.2620    5.0785 C   0  0  0  0  0  0  0  0  0  0  0  0
   15.1589    6.8006    3.8259 C   0  0  0  0  0  0  0  0  0  0  0  0
   16.5548    6.8814    2.7722 S   0  0  0  0  0  0  0  0  0  0  0  0
   20.8170    8.8451    5.3013 C   0  0  0  0  0  0  0  0  0  0  0  0
   21.0904    9.2846    6.5633 C   0  0  0  0  0  0  0  0  0  0  0  0
   19.6927    9.1794    7.6138 S   0  0  0  0  0  0  0  0  0  0  0  0
   16.6713    8.3034    7.6723 C   0  0  0  0  0  0  0  0  0  0  0  0
   19.6281    7.6586    2.7378 C   0  0  0  0  0  0  0  0  0  0  0  0
   19.2059    7.8625    1.4503 C   0  0  0  0  0  0  0  0  0  0  0  0
   20.1712    7.5166    0.4929 C   0  0  0  0  0  0  0  0  0  0  0  0
   21.3410    7.0285    1.0152 C   0  0  0  0  0  0  0  0  0  0  0  0
   21.2402    7.0105    2.7495 S   0  0  0  0  0  0  0  0  0  0  0  0
   16.7462    9.3192    8.5883 C   0  0  0  0  0  0  0  0  0  0  0  0
   15.9247    9.1156    9.7076 C   0  0  0  0  0  0  0  0  0  0  0  0
   15.2139    7.9442    9.6879 C   0  0  0  0  0  0  0  0  0  0  0  0
   15.5843    7.0701    8.2322 S   0  0  0  0  0  0  0  0  0  0  0  0
   22.3158    9.8018    7.0691 C   0  0  0  0  0  0  0  0  0  0  0  0
   23.7235    9.9507    6.0645 S   0  0  0  0  0  0  0  0  0  0  0  0
   24.6416   10.6336    7.3792 C   0  0  0  0  0  0  0  0  0  0  0  0
   23.8773   10.7007    8.5233 C   0  0  0  0  0  0  0  0  0  0  0  0
   22.5748   10.2330    8.3506 C   0  0  0  0  0  0  0  0  0  0  0  0
   26.0129   10.9961    7.1476 C   0  0  0  0  0  0  0  0  0  0  0  0
   26.7712   11.9010    7.8845 C   0  0  0  0  0  0  0  0  0  0  0  0
   28.1279   12.1850    7.6113 C   0  0  0  0  0  0  0  0  0  0  0  0
   28.8425   11.5873    6.5768 C   0  0  0  0  0  0  0  0  0  0  0  0
   28.0706   10.7028    5.7855 C   0  0  0  0  0  0  0  0  0  0  0  0
   26.7063   10.4196    6.0579 C   0  0  0  0  0  0  0  0  0  0  0  0
   28.4167    9.9900    4.7062 N   0  0  0  0  0  0  0  0  0  0  0  0
   27.3320    9.3452    4.3792 N   0  0  0  0  0  0  0  0  0  0  0  0
   26.2872    9.5484    5.1305 N   0  0  0  0  0  0  0  0  0  0  0  0
   26.0426   12.7900    9.1713 Cl  0  0  0  0  0  0  0  0  0  0  0  0
   28.8763   13.3782    8.6066 Cl  0  0  0  0  0  0  0  0  0  0  0  0
   30.2223   11.8006    6.2374 C   0  0  0  0  0  0  0  0  0  0  0  0
   27.2813    8.4865    3.2312 C   0  0  0  0  0  0  0  0  0  0  0  0
   27.2185    9.3106    1.9496 C   0  0  0  0  0  0  0  0  0  0  0  0
   31.2688   12.3270    6.9640 C   0  0  0  0  0  0  0  0  0  0  0  0
   32.4767   12.3571    6.2656 C   0  0  0  0  0  0  0  0  0  0  0  0
   32.3783   11.8540    4.9888 C   0  0  0  0  0  0  0  0  0  0  0  0
   30.7629   11.3120    4.6545 S   0  0  0  0  0  0  0  0  0  0  0  0
   22.8568    6.4023    0.1377 Si  0  0  0  0  0  0  0  0  0  0  0  0
   23.2000    7.5346   -1.3326 C   0  0  0  0  0  0  0  0  0  0  0  0
   23.5095    8.9870   -0.9526 C   0  0  0  0  0  0  0  0  0  0  0  0
   24.2994    6.4345    1.3519 C   0  0  0  0  0  0  0  0  0  0  0  0
   25.6234    5.9261    0.7725 C   0  0  0  0  0  0  0  0  0  0  0  0
   22.5396    4.6360   -0.4488 C   0  0  0  0  0  0  0  0  0  0  0  0
   21.2684    4.4715   -1.2885 C   0  0  0  0  0  0  0  0  0  0  0  0
   13.9873    7.2436   10.9003 Si  0  0  0  0  0  0  0  0  0  0  0  0
   13.8313    8.4411   12.3471 C   0  0  0  0  0  0  0  0  0  0  0  0
   13.0535    9.7244   12.0389 C   0  0  0  0  0  0  0  0  0  0  0  0
   12.3136    7.0423   10.0467 C   0  0  0  0  0  0  0  0  0  0  0  0
   12.2661    5.9633    8.9594 C   0  0  0  0  0  0  0  0  0  0  0  0
   14.6464    5.5730   11.4797 C   0  0  0  0  0  0  0  0  0  0  0  0
   13.7175    4.8115   12.4311 C   0  0  0  0  0  0  0  0  0  0  0  0
   34.6637   10.7483    0.6874 C   0  0  0  0  0  0  0  0  0  0  0  0
   34.4650   11.2221    1.9992 C   0  0  0  0  0  0  0  0  0  0  0  0
   35.5363   11.7974    2.7248 C   0  0  0  0  0  0  0  0  0  0  0  0
   36.8161   11.9350    2.2029 C   0  0  0  0  0  0  0  0  0  0  0  0
   37.0268   11.4093    0.9124 C   0  0  0  0  0  0  0  0  0  0  0  0
   35.9564   10.8295    0.1884 C   0  0  0  0  0  0  0  0  0  0  0  0
   33.2723   11.1890    2.7587 C   0  0  0  0  0  0  0  0  0  0  0  0
   33.3960   11.7379    4.0015 C   0  0  0  0  0  0  0  0  0  0  0  0
   35.0190   12.3254    4.3045 S   0  0  0  0  0  0  0  0  0  0  0  0
   38.2381   11.3590    0.1851 C   0  0  0  0  0  0  0  0  0  0  0  0
   38.1161   10.8049   -1.0557 C   0  0  0  0  0  0  0  0  0  0  0  0
   36.4748   10.2899   -1.3882 S   0  0  0  0  0  0  0  0  0  0  0  0
   33.5531   10.2205   -0.0799 C   0  0  0  0  0  0  0  0  0  0  0  0
   37.8910   12.5894    2.9209 C   0  0  0  0  0  0  0  0  0  0  0  0
   38.8132   13.4734    2.4256 C   0  0  0  0  0  0  0  0  0  0  0  0
   39.7309   13.9082    3.3936 C   0  0  0  0  0  0  0  0  0  0  0  0
   39.5417   13.3648    4.6374 C   0  0  0  0  0  0  0  0  0  0  0  0
   38.1690   12.2995    4.6091 S   0  0  0  0  0  0  0  0  0  0  0  0
   32.2968   10.7519   -0.2027 C   0  0  0  0  0  0  0  0  0  0  0  0
   31.4515    9.9771   -1.0112 C   0  0  0  0  0  0  0  0  0  0  0  0
   32.0333    8.8420   -1.5130 C   0  0  0  0  0  0  0  0  0  0  0  0
   33.6834    8.7423   -0.9765 S   0  0  0  0  0  0  0  0  0  0  0  0
   39.1557   10.6511   -2.0152 C   0  0  0  0  0  0  0  0  0  0  0  0
   40.7408   11.2745   -1.6772 S   0  0  0  0  0  0  0  0  0  0  0  0
   41.3372   10.7299   -3.2209 C   0  0  0  0  0  0  0  0  0  0  0  0
   40.3300   10.1207   -3.9379 C   0  0  0  0  0  0  0  0  0  0  0  0
   39.1067   10.0795   -3.2652 C   0  0  0  0  0  0  0  0  0  0  0  0
   42.7152   10.9922   -3.5382 C   0  0  0  0  0  0  0  0  0  0  0  0
   43.4817   10.4044   -4.5395 C   0  0  0  0  0  0  0  0  0  0  0  0
   44.8348   10.7392   -4.7775 C   0  0  0  0  0  0  0  0  0  0  0  0
   45.5339   11.6840   -4.0368 C   0  0  0  0  0  0  0  0  0  0  0  0
   44.7862   12.2640   -2.9872 C   0  0  0  0  0  0  0  0  0  0  0  0
   43.4257   11.9317   -2.7527 C   0  0  0  0  0  0  0  0  0  0  0  0
   45.1370   13.1777   -2.0707 N   0  0  0  0  0  0  0  0  0  0  0  0
   44.0594   13.3559   -1.3613 N   0  0  0  0  0  0  0  0  0  0  0  0
   43.0136   12.6591   -1.7074 N   0  0  0  0  0  0  0  0  0  0  0  0
   42.8134    9.1663   -5.5359 Cl  0  0  0  0  0  0  0  0  0  0  0  0
   45.6428    9.8618   -6.0251 Cl  0  0  0  0  0  0  0  0  0  0  0  0
   46.9062   12.0812   -4.2344 C   0  0  0  0  0  0  0  0  0  0  0  0
   44.0225   14.2686   -0.2537 C   0  0  0  0  0  0  0  0  0  0  0  0
   43.6103   13.5439    1.0215 C   0  0  0  0  0  0  0  0  0  0  0  0
   47.6786   12.0944   -5.3681 C   0  0  0  0  0  0  0  0  0  0  0  0
   48.9787   12.5816   -5.1469 C   0  0  0  0  0  0  0  0  0  0  0  0
   49.1927   12.9336   -3.8509 C   0  0  0  0  0  0  0  0  0  0  0  0
   47.8030   12.7006   -2.8753 S   0  0  0  0  0  0  0  0  0  0  0  0
   40.4668   13.6569    6.2250 Si  0  0  0  0  0  0  0  0  0  0  0  0
   42.1814   14.3119    5.7869 C   0  0  0  0  0  0  0  0  0  0  0  0
   43.0646   13.3166    5.0263 C   0  0  0  0  0  0  0  0  0  0  0  0
   39.5118   14.9242    7.2476 C   0  0  0  0  0  0  0  0  0  0  0  0
   39.2002   16.2260    6.5007 C   0  0  0  0  0  0  0  0  0  0  0  0
   40.5734   12.0187    7.1501 C   0  0  0  0  0  0  0  0  0  0  0  0
   41.3193   12.0869    8.4865 C   0  0  0  0  0  0  0  0  0  0  0  0
   31.2938    7.4892   -2.5539 Si  0  0  0  0  0  0  0  0  0  0  0  0
   30.0428    8.2779   -3.7251 C   0  0  0  0  0  0  0  0  0  0  0  0
   29.3619    7.2830   -4.6705 C   0  0  0  0  0  0  0  0  0  0  0  0
   32.6764    6.6266   -3.4973 C   0  0  0  0  0  0  0  0  0  0  0  0
   33.4365    7.5335   -4.4717 C   0  0  0  0  0  0  0  0  0  0  0  0
   30.4418    6.2575   -1.4006 C   0  0  0  0  0  0  0  0  0  0  0  0
   29.3464    6.8745   -0.5240 C   0  0  0  0  0  0  0  0  0  0  0  0
    5.5048    2.2244  -12.4213 H   0  0  0  0  0  0  0  0  0  0  0  0
    6.9961    3.4716  -14.1555 H   0  0  0  0  0  0  0  0  0  0  0  0
    9.2954    4.5774   -6.8201 H   0  0  0  0  0  0  0  0  0  0  0  0
    9.3742    6.5478  -11.0713 H   0  0  0  0  0  0  0  0  0  0  0  0
   11.6604    7.6297  -10.5189 H   0  0  0  0  0  0  0  0  0  0  0  0
    5.7266    0.1456  -11.2362 H   0  0  0  0  0  0  0  0  0  0  0  0
    3.5276   -1.1397  -10.7457 H   0  0  0  0  0  0  0  0  0  0  0  0
    7.0945    2.5657   -1.6098 H   0  0  0  0  0  0  0  0  0  0  0  0
    6.2855    2.1065   -4.0189 H   0  0  0  0  0  0  0  0  0  0  0  0
   13.6506    4.6068   -3.8057 H   0  0  0  0  0  0  0  0  0  0  0  0
   14.6591    4.0726   -2.4332 H   0  0  0  0  0  0  0  0  0  0  0  0
   13.9685    6.9803   -3.0930 H   0  0  0  0  0  0  0  0  0  0  0  0
   15.5502    6.2125   -3.2741 H   0  0  0  0  0  0  0  0  0  0  0  0
   14.8565    6.4404   -1.6621 H   0  0  0  0  0  0  0  0  0  0  0  0
   10.8209    5.1904    3.9363 H   0  0  0  0  0  0  0  0  0  0  0  0
   12.8497    6.0179    5.2518 H   0  0  0  0  0  0  0  0  0  0  0  0
   13.0919    8.9113   -8.0762 H   0  0  0  0  0  0  0  0  0  0  0  0
   14.0446    8.5743   -9.4936 H   0  0  0  0  0  0  0  0  0  0  0  0
   15.1204    8.6443   -6.6411 H   0  0  0  0  0  0  0  0  0  0  0  0
   15.3465    9.8871   -7.8699 H   0  0  0  0  0  0  0  0  0  0  0  0
   16.0811    8.2987   -8.0756 H   0  0  0  0  0  0  0  0  0  0  0  0
   14.2765    6.1959   -5.8273 H   0  0  0  0  0  0  0  0  0  0  0  0
   13.1639    4.9506   -6.3369 H   0  0  0  0  0  0  0  0  0  0  0  0
   12.4287    7.8246   -5.6399 H   0  0  0  0  0  0  0  0  0  0  0  0
   12.0163    6.3661   -4.7295 H   0  0  0  0  0  0  0  0  0  0  0  0
   11.2960    6.6551   -6.3042 H   0  0  0  0  0  0  0  0  0  0  0  0
   14.8010    4.3801   -8.7971 H   0  0  0  0  0  0  0  0  0  0  0  0
   15.9502    5.6335   -8.4177 H   0  0  0  0  0  0  0  0  0  0  0  0
   14.3383    5.4715  -11.0037 H   0  0  0  0  0  0  0  0  0  0  0  0
   16.0356    5.0276  -10.8170 H   0  0  0  0  0  0  0  0  0  0  0  0
   15.5352    6.7073  -10.6278 H   0  0  0  0  0  0  0  0  0  0  0  0
    2.0480   -2.6963   -8.6196 H   0  0  0  0  0  0  0  0  0  0  0  0
    1.1675   -2.1772  -10.0290 H   0  0  0  0  0  0  0  0  0  0  0  0
   -0.0638   -2.6717   -7.2838 H   0  0  0  0  0  0  0  0  0  0  0  0
   -0.1876   -3.7317   -8.6865 H   0  0  0  0  0  0  0  0  0  0  0  0
   -0.9511   -2.1432   -8.7100 H   0  0  0  0  0  0  0  0  0  0  0  0
    0.6679   -0.3948   -6.0919 H   0  0  0  0  0  0  0  0  0  0  0  0
    1.7163    0.9768   -6.3294 H   0  0  0  0  0  0  0  0  0  0  0  0
    2.6555   -1.9177   -6.1152 H   0  0  0  0  0  0  0  0  0  0  0  0
    2.7858   -0.6826   -4.8636 H   0  0  0  0  0  0  0  0  0  0  0  0
    3.7048   -0.5231   -6.3595 H   0  0  0  0  0  0  0  0  0  0  0  0
    0.2732    1.8603   -8.8228 H   0  0  0  0  0  0  0  0  0  0  0  0
   -0.8679    0.5556   -8.6505 H   0  0  0  0  0  0  0  0  0  0  0  0
    0.8489    1.0525  -11.1235 H   0  0  0  0  0  0  0  0  0  0  0  0
   -0.8622    1.4506  -10.9588 H   0  0  0  0  0  0  0  0  0  0  0  0
   -0.3422   -0.2335  -10.9541 H   0  0  0  0  0  0  0  0  0  0  0  0
   14.7013    7.3253    5.8513 H   0  0  0  0  0  0  0  0  0  0  0  0
   21.5590    8.8575    4.5242 H   0  0  0  0  0  0  0  0  0  0  0  0
   18.2465    8.2804    1.2034 H   0  0  0  0  0  0  0  0  0  0  0  0
   20.0159    7.6259   -0.5659 H   0  0  0  0  0  0  0  0  0  0  0  0
   17.3424   10.2019    8.4424 H   0  0  0  0  0  0  0  0  0  0  0  0
   15.8545    9.8180   10.5186 H   0  0  0  0  0  0  0  0  0  0  0  0
   24.2488   11.0466    9.4687 H   0  0  0  0  0  0  0  0  0  0  0  0
   21.8367   10.2071    9.1328 H   0  0  0  0  0  0  0  0  0  0  0  0
   26.3918    7.8644    3.3412 H   0  0  0  0  0  0  0  0  0  0  0  0
   28.1810    7.8668    3.2330 H   0  0  0  0  0  0  0  0  0  0  0  0
   26.3217    9.9255    1.9395 H   0  0  0  0  0  0  0  0  0  0  0  0
   27.2036    8.6481    1.0894 H   0  0  0  0  0  0  0  0  0  0  0  0
   28.0904    9.9565    1.8828 H   0  0  0  0  0  0  0  0  0  0  0  0
   31.1817   12.6591    7.9805 H   0  0  0  0  0  0  0  0  0  0  0  0
   33.3987   12.7319    6.6738 H   0  0  0  0  0  0  0  0  0  0  0  0
   22.3444    7.5393   -2.0125 H   0  0  0  0  0  0  0  0  0  0  0  0
   24.0367    7.1481   -1.9202 H   0  0  0  0  0  0  0  0  0  0  0  0
   22.6865    9.4130   -0.3838 H   0  0  0  0  0  0  0  0  0  0  0  0
   23.6647    9.5961   -1.8407 H   0  0  0  0  0  0  0  0  0  0  0  0
   24.4074    9.0397   -0.3420 H   0  0  0  0  0  0  0  0  0  0  0  0
   24.0578    5.8331    2.2323 H   0  0  0  0  0  0  0  0  0  0  0  0
   24.4528    7.4500    1.7263 H   0  0  0  0  0  0  0  0  0  0  0  0
   25.5188    4.8992    0.4323 H   0  0  0  0  0  0  0  0  0  0  0  0
   26.4155    5.9575    1.5181 H   0  0  0  0  0  0  0  0  0  0  0  0
   25.9281    6.5332   -0.0764 H   0  0  0  0  0  0  0  0  0  0  0  0
   22.4656    3.9627    0.4097 H   0  0  0  0  0  0  0  0  0  0  0  0
   23.3842    4.2729   -1.0398 H   0  0  0  0  0  0  0  0  0  0  0  0
   20.3959    4.7870   -0.7217 H   0  0  0  0  0  0  0  0  0  0  0  0
   21.1299    3.4333   -1.5822 H   0  0  0  0  0  0  0  0  0  0  0  0
   21.3255    5.0758   -2.1903 H   0  0  0  0  0  0  0  0  0  0  0  0
   14.8221    8.7193   12.7148 H   0  0  0  0  0  0  0  0  0  0  0  0
   13.3372    7.9460   13.1862 H   0  0  0  0  0  0  0  0  0  0  0  0
   13.5042   10.2578   11.2058 H   0  0  0  0  0  0  0  0  0  0  0  0
   13.0398   10.3857   12.9029 H   0  0  0  0  0  0  0  0  0  0  0  0
   12.0259    9.4908   11.7731 H   0  0  0  0  0  0  0  0  0  0  0  0
   12.0110    7.9901    9.5914 H   0  0  0  0  0  0  0  0  0  0  0  0
   11.5412    6.8111   10.7860 H   0  0  0  0  0  0  0  0  0  0  0  0
   13.0095    6.1639    8.1914 H   0  0  0  0  0  0  0  0  0  0  0  0
   11.2854    5.9314    8.4888 H   0  0  0  0  0  0  0  0  0  0  0  0
   12.4760    4.9832    9.3796 H   0  0  0  0  0  0  0  0  0  0  0  0
   15.6114    5.7013   11.9786 H   0  0  0  0  0  0  0  0  0  0  0  0
   14.8480    4.9352   10.6145 H   0  0  0  0  0  0  0  0  0  0  0  0
   13.5400    5.3888   13.3351 H   0  0  0  0  0  0  0  0  0  0  0  0
   14.1552    3.8574   12.7173 H   0  0  0  0  0  0  0  0  0  0  0  0
   12.7579    4.6180   11.9586 H   0  0  0  0  0  0  0  0  0  0  0  0
   32.3531   10.7520    2.4133 H   0  0  0  0  0  0  0  0  0  0  0  0
   39.1826   11.6995    0.5682 H   0  0  0  0  0  0  0  0  0  0  0  0
   38.8025   13.8280    1.4100 H   0  0  0  0  0  0  0  0  0  0  0  0
   40.5191   14.6100    3.1853 H   0  0  0  0  0  0  0  0  0  0  0  0
   32.0084   11.6871    0.2442 H   0  0  0  0  0  0  0  0  0  0  0  0
   30.4323   10.2450   -1.2271 H   0  0  0  0  0  0  0  0  0  0  0  0
   40.4547    9.7350   -4.9312 H   0  0  0  0  0  0  0  0  0  0  0  0
   38.2104    9.6465   -3.6734 H   0  0  0  0  0  0  0  0  0  0  0  0
   43.3017   15.0594   -0.4820 H   0  0  0  0  0  0  0  0  0  0  0  0
   45.0221   14.6977   -0.1702 H   0  0  0  0  0  0  0  0  0  0  0  0
   42.6398   13.0758    0.8800 H   0  0  0  0  0  0  0  0  0  0  0  0
   43.5485   14.2510    1.8433 H   0  0  0  0  0  0  0  0  0  0  0  0
   44.3359   12.7757    1.2760 H   0  0  0  0  0  0  0  0  0  0  0  0
   47.3235   11.7973   -6.3365 H   0  0  0  0  0  0  0  0  0  0  0  0
   49.7210   12.6647   -5.9205 H   0  0  0  0  0  0  0  0  0  0  0  0
   50.0882   13.3241   -3.4096 H   0  0  0  0  0  0  0  0  0  0  0  0
   42.7098   14.6111    6.6954 H   0  0  0  0  0  0  0  0  0  0  0  0
   42.0976   15.2217    5.1869 H   0  0  0  0  0  0  0  0  0  0  0  0
   43.2557   12.4367    5.6345 H   0  0  0  0  0  0  0  0  0  0  0  0
   44.0220   13.7650    4.7675 H   0  0  0  0  0  0  0  0  0  0  0  0
   42.5750   12.9937    4.1106 H   0  0  0  0  0  0  0  0  0  0  0  0
   40.0612   15.1786    8.1575 H   0  0  0  0  0  0  0  0  0  0  0  0
   38.5642   14.4930    7.5823 H   0  0  0  0  0  0  0  0  0  0  0  0
   40.1188   16.7272    6.2061 H   0  0  0  0  0  0  0  0  0  0  0  0
   38.6269   16.9050    7.1280 H   0  0  0  0  0  0  0  0  0  0  0  0
   38.6232   16.0186    5.6026 H   0  0  0  0  0  0  0  0  0  0  0  0
   41.0584   11.2629    6.5266 H   0  0  0  0  0  0  0  0  0  0  0  0
   39.5667   11.6360    7.3394 H   0  0  0  0  0  0  0  0  0  0  0  0
   42.3432   12.4206    8.3369 H   0  0  0  0  0  0  0  0  0  0  0  0
   41.3458   11.1104    8.9654 H   0  0  0  0  0  0  0  0  0  0  0  0
   40.8301   12.7841    9.1617 H   0  0  0  0  0  0  0  0  0  0  0  0
   30.5229    9.0509   -4.3308 H   0  0  0  0  0  0  0  0  0  0  0  0
   29.2630    8.7941   -3.1592 H   0  0  0  0  0  0  0  0  0  0  0  0
   30.0987    6.7819   -5.2928 H   0  0  0  0  0  0  0  0  0  0  0  0
   28.6530    7.7894   -5.3225 H   0  0  0  0  0  0  0  0  0  0  0  0
   28.8243    6.5257   -4.1053 H   0  0  0  0  0  0  0  0  0  0  0  0
   32.2872    5.7724   -4.0575 H   0  0  0  0  0  0  0  0  0  0  0  0
   33.4010    6.2112   -2.7916 H   0  0  0  0  0  0  0  0  0  0  0  0
   32.7667    7.9294   -5.2310 H   0  0  0  0  0  0  0  0  0  0  0  0
   34.2316    6.9837   -4.9708 H   0  0  0  0  0  0  0  0  0  0  0  0
   33.8833    8.3705   -3.9407 H   0  0  0  0  0  0  0  0  0  0  0  0
   31.1783    5.7904   -0.7410 H   0  0  0  0  0  0  0  0  0  0  0  0
   29.9993    5.4389   -1.9736 H   0  0  0  0  0  0  0  0  0  0  0  0
   29.7591    7.6713    0.0903 H   0  0  0  0  0  0  0  0  0  0  0  0
   28.9050    6.1254    0.1302 H   0  0  0  0  0  0  0  0  0  0  0  0
   28.5571    7.2951   -1.1423 H   0  0  0  0  0  0  0  0  0  0  0  0
  1  6  2  0  0  0  0
  2  3  2  0  0  0  0
  2  1  1  0  0  0  0
  3  4  1  0  0  0  0
  4 14  1  0  0  0  0
  4  5  2  0  0  0  0
  5 10  1  0  0  0  0
  6  5  1  0  0  0  0
  6 12  1  0  0  0  0
  7  2  1  0  0  0  0
  8  9  1  0  0  0  0
  8  7  2  0  0  0  0
  9  3  1  0  0  0  0
 10180  1  0  0  0  0
 10 11  2  0  0  0  0
 11 23  1  0  0  0  0
 12 11  1  0  0  0  0
 13  1  1  0  0  0  0
 13 22  1  0  0  0  0
 14 18  1  0  0  0  0
 15 16  1  0  0  0  0
 15 14  2  0  0  0  0
 16 17  2  0  0  0  0
 17 18  1  0  0  0  0
 17 46  1  0  0  0  0
 19 20  1  0  0  0  0
 19 13  2  0  0  0  0
 20 21  2  0  0  0  0
 21 22  1  0  0  0  0
 21 53  1  0  0  0  0
 23 24  1  0  0  0  0
 23 27  2  0  0  0  0
 24 25  1  0  0  0  0
 25 28  1  0  0  0  0
 26 25  2  0  0  0  0
 26185  1  0  0  0  0
 27 26  1  0  0  0  0
 28 29  2  0  0  0  0
 29 37  1  0  0  0  0
 29 30  1  0  0  0  0
 30 38  1  0  0  0  0
 31 30  2  0  0  0  0
 31 39  1  0  0  0  0
 32 31  1  0  0  0  0
 33 28  1  0  0  0  0
 33 32  1  0  0  0  0
 34 32  2  0  0  0  0
 35 34  1  0  0  0  0
 36 35  1  0  0  0  0
 36 33  2  0  0  0  0
 39 42  2  0  0  0  0
 40 41  1  0  0  0  0
 40188  1  0  0  0  0
 40 35  1  0  0  0  0
 41191  1  0  0  0  0
 42192  1  0  0  0  0
 42 43  1  0  0  0  0
 43193  1  0  0  0  0
 44 67  1  0  0  0  0
 44 43  2  0  0  0  0
 45 39  1  0  0  0  0
 45 44  1  0  0  0  0
 46 49  1  0  0  0  0
 47 46  1  0  0  0  0
 47194  1  0  0  0  0
 47 48  1  0  0  0  0
 48196  1  0  0  0  0
 49200  1  0  0  0  0
 49199  1  0  0  0  0
 49 50  1  0  0  0  0
 50201  1  0  0  0  0
 50202  1  0  0  0  0
 51204  1  0  0  0  0
 51205  1  0  0  0  0
 51 46  1  0  0  0  0
 52 51  1  0  0  0  0
 53 56  1  0  0  0  0
 54209  1  0  0  0  0
 54 53  1  0  0  0  0
 54 55  1  0  0  0  0
 55211  1  0  0  0  0
 56215  1  0  0  0  0
 56214  1  0  0  0  0
 56 57  1  0  0  0  0
 57217  1  0  0  0  0
 58219  1  0  0  0  0
 58220  1  0  0  0  0
 58 53  1  0  0  0  0
 59 58  1  0  0  0  0
 60 72  1  0  0  0  0
 61 60  2  0  0  0  0
 62 61  1  0  0  0  0
 63 62  2  0  0  0  0
 63 64  1  0  0  0  0
 64 69  1  0  0  0  0
 64 65  2  0  0  0  0
 65 60  1  0  0  0  0
 65 71  1  0  0  0  0
 66 61  1  0  0  0  0
 66224  1  0  0  0  0
 67 66  2  0  0  0  0
 68 67  1  0  0  0  0
 68 62  1  0  0  0  0
 69 70  2  0  0  0  0
 70 82  1  0  0  0  0
 70 71  1  0  0  0  0
 72 81  1  0  0  0  0
 72 78  2  0  0  0  0
 73 77  1  0  0  0  0
 73 63  1  0  0  0  0
 74 73  2  0  0  0  0
 75 76  2  0  0  0  0
 75 74  1  0  0  0  0
 76 77  1  0  0  0  0
 78 79  1  0  0  0  0
 79229  1  0  0  0  0
 80 79  2  0  0  0  0
 80112  1  0  0  0  0
 81 80  1  0  0  0  0
 82 86  2  0  0  0  0
 83 82  1  0  0  0  0
 83 84  1  0  0  0  0
 84 85  2  0  0  0  0
 85230  1  0  0  0  0
 86 85  1  0  0  0  0
 86231  1  0  0  0  0
 87 84  1  0  0  0  0
 87 88  2  0  0  0  0
 88 96  1  0  0  0  0
 89 88  1  0  0  0  0
 89 97  1  0  0  0  0
 90 89  2  0  0  0  0
 91 92  1  0  0  0  0
 91 90  1  0  0  0  0
 92 87  1  0  0  0  0
 93 91  2  0  0  0  0
 94 93  1  0  0  0  0
 94 95  1  0  0  0  0
 95 92  2  0  0  0  0
 98 90  1  0  0  0  0
 98101  2  0  0  0  0
 99233  1  0  0  0  0
 99232  1  0  0  0  0
 99 94  1  0  0  0  0
100 99  1  0  0  0  0
101237  1  0  0  0  0
102238  1  0  0  0  0
102101  1  0  0  0  0
103102  2  0  0  0  0
104103  1  0  0  0  0
104 98  1  0  0  0  0
105 76  1  0  0  0  0
105108  1  0  0  0  0
106107  1  0  0  0  0
106105  1  0  0  0  0
107241  1  0  0  0  0
107243  1  0  0  0  0
108245  1  0  0  0  0
108244  1  0  0  0  0
109108  1  0  0  0  0
109247  1  0  0  0  0
110105  1  0  0  0  0
110249  1  0  0  0  0
111251  1  0  0  0  0
111110  1  0  0  0  0
112117  1  0  0  0  0
112113  1  0  0  0  0
113254  1  0  0  0  0
113255  1  0  0  0  0
114113  1  0  0  0  0
114257  1  0  0  0  0
115260  1  0  0  0  0
115112  1  0  0  0  0
116263  1  0  0  0  0
116115  1  0  0  0  0
117264  1  0  0  0  0
117118  1  0  0  0  0
118267  1  0  0  0  0
118266  1  0  0  0  0
119120  1  0  0  0  0
120121  2  0  0  0  0
120125  1  0  0  0  0
121127  1  0  0  0  0
122121  1  0  0  0  0
122132  1  0  0  0  0
123122  2  0  0  0  0
124119  2  0  0  0  0
124123  1  0  0  0  0
125126  2  0  0  0  0
126127  1  0  0  0  0
126103  1  0  0  0  0
128270  1  0  0  0  0
128123  1  0  0  0  0
129128  2  0  0  0  0
130129  1  0  0  0  0
130124  1  0  0  0  0
131119  1  0  0  0  0
132136  1  0  0  0  0
133132  2  0  0  0  0
133134  1  0  0  0  0
134135  2  0  0  0  0
135164  1  0  0  0  0
136135  1  0  0  0  0
137131  2  0  0  0  0
137273  1  0  0  0  0
138137  1  0  0  0  0
139138  2  0  0  0  0
139140  1  0  0  0  0
140131  1  0  0  0  0
141142  1  0  0  0  0
141129  1  0  0  0  0
143142  1  0  0  0  0
144145  1  0  0  0  0
144143  2  0  0  0  0
145141  2  0  0  0  0
146143  1  0  0  0  0
146151  1  0  0  0  0
147146  2  0  0  0  0
148147  1  0  0  0  0
148149  2  0  0  0  0
149150  1  0  0  0  0
150151  1  0  0  0  0
150152  2  0  0  0  0
151154  2  0  0  0  0
152153  1  0  0  0  0
153158  1  0  0  0  0
154153  1  0  0  0  0
155147  1  0  0  0  0
156148  1  0  0  0  0
157149  1  0  0  0  0
157163  1  0  0  0  0
158278  1  0  0  0  0
158159  1  0  0  0  0
159281  1  0  0  0  0
159280  1  0  0  0  0
160161  1  0  0  0  0
160157  2  0  0  0  0
161162  2  0  0  0  0
162284  1  0  0  0  0
162163  1  0  0  0  0
164169  1  0  0  0  0
164167  1  0  0  0  0
165164  1  0  0  0  0
165285  1  0  0  0  0
166287  1  0  0  0  0
166165  1  0  0  0  0
167291  1  0  0  0  0
167290  1  0  0  0  0
168293  1  0  0  0  0
168167  1  0  0  0  0
169296  1  0  0  0  0
169170  1  0  0  0  0
170298  1  0  0  0  0
170299  1  0  0  0  0
171139  1  0  0  0  0
171176  1  0  0  0  0
172301  1  0  0  0  0
172171  1  0  0  0  0
173304  1  0  0  0  0
173172  1  0  0  0  0
174306  1  0  0  0  0
174171  1  0  0  0  0
175309  1  0  0  0  0
175174  1  0  0  0  0
176310  1  0  0  0  0
176177  1  0  0  0  0
177312  1  0  0  0  0
177313  1  0  0  0  0
178  7  1  0  0  0  0
179  8  1  0  0  0  0
181 15  1  0  0  0  0
182 16  1  0  0  0  0
183 19  1  0  0  0  0
184 20  1  0  0  0  0
186 27  1  0  0  0  0
187 40  1  0  0  0  0
189 41  1  0  0  0  0
190 41  1  0  0  0  0
195 47  1  0  0  0  0
197 48  1  0  0  0  0
198 48  1  0  0  0  0
203 50  1  0  0  0  0
206 52  1  0  0  0  0
207 52  1  0  0  0  0
208 52  1  0  0  0  0
210 54  1  0  0  0  0
212 55  1  0  0  0  0
213 55  1  0  0  0  0
216 57  1  0  0  0  0
218 57  1  0  0  0  0
221 59  1  0  0  0  0
222 59  1  0  0  0  0
223 59  1  0  0  0  0
225 69  1  0  0  0  0
226 74  1  0  0  0  0
227 75  1  0  0  0  0
228 78  1  0  0  0  0
234100  1  0  0  0  0
235100  1  0  0  0  0
236100  1  0  0  0  0
239106  1  0  0  0  0
240106  1  0  0  0  0
242107  1  0  0  0  0
246109  1  0  0  0  0
248109  1  0  0  0  0
250110  1  0  0  0  0
252111  1  0  0  0  0
253111  1  0  0  0  0
256114  1  0  0  0  0
258114  1  0  0  0  0
259115  1  0  0  0  0
261116  1  0  0  0  0
262116  1  0  0  0  0
265117  1  0  0  0  0
268118  1  0  0  0  0
269125  1  0  0  0  0
271133  1  0  0  0  0
272134  1  0  0  0  0
274138  1  0  0  0  0
275144  1  0  0  0  0
276145  1  0  0  0  0
277158  1  0  0  0  0
279159  1  0  0  0  0
282160  1  0  0  0  0
283161  1  0  0  0  0
286165  1  0  0  0  0
288166  1  0  0  0  0
289166  1  0  0  0  0
292168  1  0  0  0  0
294168  1  0  0  0  0
295169  1  0  0  0  0
297170  1  0  0  0  0
300172  1  0  0  0  0
302173  1  0  0  0  0
303173  1  0  0  0  0
305174  1  0  0  0  0
307175  1  0  0  0  0
308175  1  0  0  0  0
311176  1  0  0  0  0
314177  1  0  0  0  0
M  END
