SCF done       -512.744546848260          0.000904156696
 OpenBabel12282109573D

314340  0  0  0  0  0  0  0  0999 V2000
    4.8126   -3.8675   -3.7308 C   0  0  0  0  0  0  0  0  0  0  0  0
    5.4378   -4.7883   -4.5913 C   0  0  0  0  0  0  0  0  0  0  0  0
    6.8169   -4.6639   -4.8831 C   0  0  0  0  0  0  0  0  0  0  0  0
    7.6172   -3.6481   -4.3716 C   0  0  0  0  0  0  0  0  0  0  0  0
    6.9994   -2.7422   -3.4904 C   0  0  0  0  0  0  0  0  0  0  0  0
    5.6207   -2.8687   -3.1955 C   0  0  0  0  0  0  0  0  0  0  0  0
    4.8669   -5.9186   -5.2471 C   0  0  0  0  0  0  0  0  0  0  0  0
    5.7551   -6.5898   -6.0074 C   0  0  0  0  0  0  0  0  0  0  0  0
    7.3450   -5.9114   -5.9789 S   0  0  0  0  0  0  0  0  0  0  0  0
    7.5942   -1.6622   -2.7917 C   0  0  0  0  0  0  0  0  0  0  0  0
    6.7165   -0.9536   -2.0270 C   0  0  0  0  0  0  0  0  0  0  0  0
    5.0909   -1.6040   -2.1190 S   0  0  0  0  0  0  0  0  0  0  0  0
    3.4025   -3.9343   -3.3972 C   0  0  0  0  0  0  0  0  0  0  0  0
    9.0165   -3.5016   -4.7186 C   0  0  0  0  0  0  0  0  0  0  0  0
    9.6819   -2.3465   -5.0268 C   0  0  0  0  0  0  0  0  0  0  0  0
   11.0462   -2.5724   -5.2828 C   0  0  0  0  0  0  0  0  0  0  0  0
   11.4601   -3.8743   -5.1726 C   0  0  0  0  0  0  0  0  0  0  0  0
   10.0966   -4.8602   -4.7531 S   0  0  0  0  0  0  0  0  0  0  0  0
    2.8313   -3.7135   -2.1737 C   0  0  0  0  0  0  0  0  0  0  0  0
    1.4293   -3.8166   -2.2120 C   0  0  0  0  0  0  0  0  0  0  0  0
    0.8894   -4.1009   -3.4391 C   0  0  0  0  0  0  0  0  0  0  0  0
    2.1789   -4.2550   -4.5885 S   0  0  0  0  0  0  0  0  0  0  0  0
    6.9902    0.1742   -1.2025 C   0  0  0  0  0  0  0  0  0  0  0  0
    8.6080    0.7761   -1.0015 S   0  0  0  0  0  0  0  0  0  0  0  0
    8.0514    2.0339    0.0643 C   0  0  0  0  0  0  0  0  0  0  0  0
    6.6881    1.9537    0.2454 C   0  0  0  0  0  0  0  0  0  0  0  0
    6.0930    0.9092   -0.4620 C   0  0  0  0  0  0  0  0  0  0  0  0
    9.0100    2.9184    0.6690 C   0  0  0  0  0  0  0  0  0  0  0  0
    8.7443    4.1728    1.2090 C   0  0  0  0  0  0  0  0  0  0  0  0
    9.7066    4.9262    1.9136 C   0  0  0  0  0  0  0  0  0  0  0  0
   11.0089    4.4877    2.1360 C   0  0  0  0  0  0  0  0  0  0  0  0
   11.3366    3.2822    1.4760 C   0  0  0  0  0  0  0  0  0  0  0  0
   10.3640    2.5223    0.7686 C   0  0  0  0  0  0  0  0  0  0  0  0
   12.4986    2.6197    1.3904 N   0  0  0  0  0  0  0  0  0  0  0  0
   12.2168    1.5631    0.6816 N   0  0  0  0  0  0  0  0  0  0  0  0
   10.9802    1.4350    0.2895 N   0  0  0  0  0  0  0  0  0  0  0  0
    7.1916    4.8947    1.0004 Cl  0  0  0  0  0  0  0  0  0  0  0  0
    9.2176    6.4851    2.4717 Cl  0  0  0  0  0  0  0  0  0  0  0  0
   11.9645    5.1459    2.9868 C   0  0  0  0  0  0  0  0  0  0  0  0
   13.2191    0.5998    0.3230 C   0  0  0  0  0  0  0  0  0  0  0  0
   13.3682    0.5299   -1.1924 C   0  0  0  0  0  0  0  0  0  0  0  0
   11.7155    5.8958    4.1145 C   0  0  0  0  0  0  0  0  0  0  0  0
   12.8701    6.3479    4.7468 C   0  0  0  0  0  0  0  0  0  0  0  0
   14.0314    5.9533    4.1141 C   0  0  0  0  0  0  0  0  0  0  0  0
   13.6744    4.9783    2.7212 S   0  0  0  0  0  0  0  0  0  0  0  0
   13.1536   -4.6142   -5.4320 Si  0  0  0  0  0  0  0  0  0  0  0  0
   14.4000   -3.6810   -4.3663 C   0  0  0  0  0  0  0  0  0  0  0  0
   13.9531   -3.4652   -2.9158 C   0  0  0  0  0  0  0  0  0  0  0  0
   13.0264   -6.4175   -4.9031 C   0  0  0  0  0  0  0  0  0  0  0  0
   14.2949   -7.2417   -5.1460 C   0  0  0  0  0  0  0  0  0  0  0  0
   13.5733   -4.4565   -7.2634 C   0  0  0  0  0  0  0  0  0  0  0  0
   12.5628   -5.1390   -8.1932 C   0  0  0  0  0  0  0  0  0  0  0  0
   -0.8994   -4.3200   -3.9277 Si  0  0  0  0  0  0  0  0  0  0  0  0
   -1.8179   -2.7168   -3.5544 C   0  0  0  0  0  0  0  0  0  0  0  0
   -1.2075   -1.4761   -4.2168 C   0  0  0  0  0  0  0  0  0  0  0  0
   -0.9018   -4.7007   -5.7729 C   0  0  0  0  0  0  0  0  0  0  0  0
   -2.2952   -4.9230   -6.3698 C   0  0  0  0  0  0  0  0  0  0  0  0
   -1.6117   -5.7561   -2.9345 C   0  0  0  0  0  0  0  0  0  0  0  0
   -0.8199   -7.0625   -3.0648 C   0  0  0  0  0  0  0  0  0  0  0  0
    0.4633   -3.6002   -0.8092 Cl  0  0  0  0  0  0  0  0  0  0  0  0
   12.1185   -1.2960   -5.7000 Cl  0  0  0  0  0  0  0  0  0  0  0  0
   17.6642    8.0271    6.8218 C   0  0  0  0  0  0  0  0  0  0  0  0
   17.0399    7.3108    5.7822 C   0  0  0  0  0  0  0  0  0  0  0  0
   17.8102    6.7272    4.7454 C   0  0  0  0  0  0  0  0  0  0  0  0
   19.1982    6.8219    4.6875 C   0  0  0  0  0  0  0  0  0  0  0  0
   19.8204    7.5839    5.7011 C   0  0  0  0  0  0  0  0  0  0  0  0
   19.0464    8.1458    6.7454 C   0  0  0  0  0  0  0  0  0  0  0  0
   15.6613    7.0431    5.6325 C   0  0  0  0  0  0  0  0  0  0  0  0
   15.3512    6.3076    4.5238 C   0  0  0  0  0  0  0  0  0  0  0  0
   16.7851    5.8791    3.6143 S   0  0  0  0  0  0  0  0  0  0  0  0
   21.1836    7.9517    5.8113 C   0  0  0  0  0  0  0  0  0  0  0  0
   21.4612    8.7337    6.8939 C   0  0  0  0  0  0  0  0  0  0  0  0
   20.0332    9.0595    7.8529 S   0  0  0  0  0  0  0  0  0  0  0  0
   16.9268    8.6391    7.9087 C   0  0  0  0  0  0  0  0  0  0  0  0
   19.9760    6.1761    3.6508 C   0  0  0  0  0  0  0  0  0  0  0  0
   19.6682    6.0041    2.3281 C   0  0  0  0  0  0  0  0  0  0  0  0
   20.6922    5.3456    1.6219 C   0  0  0  0  0  0  0  0  0  0  0  0
   21.7817    4.9725    2.3663 C   0  0  0  0  0  0  0  0  0  0  0  0
   21.5206    5.4623    4.0076 S   0  0  0  0  0  0  0  0  0  0  0  0
   17.2897    8.7009    9.2267 C   0  0  0  0  0  0  0  0  0  0  0  0
   16.3652    9.4226   10.0026 C   0  0  0  0  0  0  0  0  0  0  0  0
   15.2938    9.9397    9.3215 C   0  0  0  0  0  0  0  0  0  0  0  0
   15.4397    9.5002    7.6517 S   0  0  0  0  0  0  0  0  0  0  0  0
   22.7213    9.2710    7.2774 C   0  0  0  0  0  0  0  0  0  0  0  0
   24.1547    8.9623    6.3468 S   0  0  0  0  0  0  0  0  0  0  0  0
   25.1127    9.9422    7.4215 C   0  0  0  0  0  0  0  0  0  0  0  0
   24.3405   10.4390    8.4486 C   0  0  0  0  0  0  0  0  0  0  0  0
   23.0001   10.0617    8.3692 C   0  0  0  0  0  0  0  0  0  0  0  0
   26.5177   10.0885    7.1553 C   0  0  0  0  0  0  0  0  0  0  0  0
   27.3400   11.1221    7.5940 C   0  0  0  0  0  0  0  0  0  0  0  0
   28.7255   11.1877    7.3233 C   0  0  0  0  0  0  0  0  0  0  0  0
   29.4076   10.2205    6.5891 C   0  0  0  0  0  0  0  0  0  0  0  0
   28.5725    9.1887    6.0951 C   0  0  0  0  0  0  0  0  0  0  0  0
   27.1793    9.1254    6.3585 C   0  0  0  0  0  0  0  0  0  0  0  0
   28.8802    8.1319    5.3338 N   0  0  0  0  0  0  0  0  0  0  0  0
   27.7491    7.5070    5.1652 N   0  0  0  0  0  0  0  0  0  0  0  0
   26.7059    8.0331    5.7417 N   0  0  0  0  0  0  0  0  0  0  0  0
   26.6615   12.4453    8.4698 Cl  0  0  0  0  0  0  0  0  0  0  0  0
   29.5537   12.5740    7.9258 Cl  0  0  0  0  0  0  0  0  0  0  0  0
   30.8095   10.1802    6.2781 C   0  0  0  0  0  0  0  0  0  0  0  0
   27.6638    6.3108    4.3758 C   0  0  0  0  0  0  0  0  0  0  0  0
   28.1016    6.5881    2.9433 C   0  0  0  0  0  0  0  0  0  0  0  0
   31.8795   10.9057    6.7601 C   0  0  0  0  0  0  0  0  0  0  0  0
   33.1035   10.5459    6.1949 C   0  0  0  0  0  0  0  0  0  0  0  0
   32.9953    9.5355    5.2674 C   0  0  0  0  0  0  0  0  0  0  0  0
   31.3480    9.0128    5.1015 S   0  0  0  0  0  0  0  0  0  0  0  0
   23.4419    4.2816    1.8690 Si  0  0  0  0  0  0  0  0  0  0  0  0
   24.3923    5.6871    1.0391 C   0  0  0  0  0  0  0  0  0  0  0  0
   24.3283    7.0170    1.8011 C   0  0  0  0  0  0  0  0  0  0  0  0
   24.3024    3.7767    3.4704 C   0  0  0  0  0  0  0  0  0  0  0  0
   25.6782    3.1308    3.2772 C   0  0  0  0  0  0  0  0  0  0  0  0
   23.2313    2.8062    0.7198 C   0  0  0  0  0  0  0  0  0  0  0  0
   22.3585    1.6846    1.2950 C   0  0  0  0  0  0  0  0  0  0  0  0
   13.8653   10.9615    9.9557 Si  0  0  0  0  0  0  0  0  0  0  0  0
   14.5549   12.5159   10.7756 C   0  0  0  0  0  0  0  0  0  0  0  0
   15.8420   13.0679   10.1493 C   0  0  0  0  0  0  0  0  0  0  0  0
   12.7495   11.3684    8.4910 C   0  0  0  0  0  0  0  0  0  0  0  0
   13.3079   12.3966    7.5010 C   0  0  0  0  0  0  0  0  0  0  0  0
   12.9150    9.9054   11.1966 C   0  0  0  0  0  0  0  0  0  0  0  0
   11.7702   10.6455   11.8950 C   0  0  0  0  0  0  0  0  0  0  0  0
   16.5700    9.6409   11.6939 Cl  0  0  0  0  0  0  0  0  0  0  0  0
   20.5857    5.0531   -0.0673 Cl  0  0  0  0  0  0  0  0  0  0  0  0
   35.2383    6.3455    2.1593 C   0  0  0  0  0  0  0  0  0  0  0  0
   35.0629    7.4293    3.0413 C   0  0  0  0  0  0  0  0  0  0  0  0
   36.1759    8.1890    3.4744 C   0  0  0  0  0  0  0  0  0  0  0  0
   37.4818    7.9110    3.0834 C   0  0  0  0  0  0  0  0  0  0  0  0
   37.6579    6.8128    2.2163 C   0  0  0  0  0  0  0  0  0  0  0  0
   36.5409    6.0540    1.7831 C   0  0  0  0  0  0  0  0  0  0  0  0
   33.8601    7.8576    3.6480 C   0  0  0  0  0  0  0  0  0  0  0  0
   34.0183    8.9061    4.5061 C   0  0  0  0  0  0  0  0  0  0  0  0
   35.6871    9.4317    4.5976 S   0  0  0  0  0  0  0  0  0  0  0  0
   38.8586    6.3430    1.6376 C   0  0  0  0  0  0  0  0  0  0  0  0
   38.6948    5.2680    0.8128 C   0  0  0  0  0  0  0  0  0  0  0  0
   37.0179    4.7762    0.6971 S   0  0  0  0  0  0  0  0  0  0  0  0
   34.0853    5.5961    1.6978 C   0  0  0  0  0  0  0  0  0  0  0  0
   38.5923    8.7086    3.5616 C   0  0  0  0  0  0  0  0  0  0  0  0
   38.6177   10.0614    3.7707 C   0  0  0  0  0  0  0  0  0  0  0  0
   39.8546   10.5013    4.2740 C   0  0  0  0  0  0  0  0  0  0  0  0
   40.7935    9.5230    4.4785 C   0  0  0  0  0  0  0  0  0  0  0  0
   40.1095    7.9984    4.0204 S   0  0  0  0  0  0  0  0  0  0  0  0
   32.9045    6.1055    1.2323 C   0  0  0  0  0  0  0  0  0  0  0  0
   31.9760    5.0947    0.9268 C   0  0  0  0  0  0  0  0  0  0  0  0
   32.4005    3.8124    1.1584 C   0  0  0  0  0  0  0  0  0  0  0  0
   34.0304    3.8630    1.7523 S   0  0  0  0  0  0  0  0  0  0  0  0
   39.7258    4.5909    0.1043 C   0  0  0  0  0  0  0  0  0  0  0  0
   41.3775    5.0887    0.3007 S   0  0  0  0  0  0  0  0  0  0  0  0
   41.9306    3.8634   -0.8094 C   0  0  0  0  0  0  0  0  0  0  0  0
   40.8612    3.1372   -1.2924 C   0  0  0  0  0  0  0  0  0  0  0  0
   39.6274    3.5425   -0.7810 C   0  0  0  0  0  0  0  0  0  0  0  0
   43.3420    3.7876   -1.0749 C   0  0  0  0  0  0  0  0  0  0  0  0
   44.0270    2.8091   -1.7913 C   0  0  0  0  0  0  0  0  0  0  0  0
   45.4245    2.8397   -2.0091 C   0  0  0  0  0  0  0  0  0  0  0  0
   46.2542    3.8494   -1.5384 C   0  0  0  0  0  0  0  0  0  0  0  0
   45.5856    4.8352   -0.7784 C   0  0  0  0  0  0  0  0  0  0  0  0
   44.1839    4.8017   -0.5548 C   0  0  0  0  0  0  0  0  0  0  0  0
   46.0638    5.9236   -0.1606 N   0  0  0  0  0  0  0  0  0  0  0  0
   45.0175    6.4730    0.3859 N   0  0  0  0  0  0  0  0  0  0  0  0
   43.8785    5.8685    0.1951 N   0  0  0  0  0  0  0  0  0  0  0  0
   43.1929    1.4484   -2.4414 Cl  0  0  0  0  0  0  0  0  0  0  0  0
   46.1073    1.5042   -2.8632 Cl  0  0  0  0  0  0  0  0  0  0  0  0
   47.6793    3.9497   -1.7311 C   0  0  0  0  0  0  0  0  0  0  0  0
   45.1130    7.6662    1.1777 C   0  0  0  0  0  0  0  0  0  0  0  0
   45.9457    7.4094    2.4276 C   0  0  0  0  0  0  0  0  0  0  0  0
   48.4834    3.4743   -2.7361 C   0  0  0  0  0  0  0  0  0  0  0  0
   49.8390    3.8046   -2.5646 C   0  0  0  0  0  0  0  0  0  0  0  0
   50.0639    4.5238   -1.4324 C   0  0  0  0  0  0  0  0  0  0  0  0
   48.6207    4.8364   -0.5631 S   0  0  0  0  0  0  0  0  0  0  0  0
   42.5386    9.6654    5.1213 Si  0  0  0  0  0  0  0  0  0  0  0  0
   42.5066   10.5019    6.8124 C   0  0  0  0  0  0  0  0  0  0  0  0
   41.2830   10.1779    7.6796 C   0  0  0  0  0  0  0  0  0  0  0  0
   43.2675    7.9271    5.1910 C   0  0  0  0  0  0  0  0  0  0  0  0
   42.7281    7.0324    6.3122 C   0  0  0  0  0  0  0  0  0  0  0  0
   43.5254   10.6923    3.8815 C   0  0  0  0  0  0  0  0  0  0  0  0
   44.9296   11.0690    4.3632 C   0  0  0  0  0  0  0  0  0  0  0  0
   31.4907    2.1978    0.9354 Si  0  0  0  0  0  0  0  0  0  0  0  0
   31.3144    1.8849   -0.9154 C   0  0  0  0  0  0  0  0  0  0  0  0
   32.6526    1.7982   -1.6592 C   0  0  0  0  0  0  0  0  0  0  0  0
   32.5464    0.8790    1.7673 C   0  0  0  0  0  0  0  0  0  0  0  0
   32.0236   -0.5514    1.6000 C   0  0  0  0  0  0  0  0  0  0  0  0
   29.7978    2.3261    1.7612 C   0  0  0  0  0  0  0  0  0  0  0  0
   29.8268    2.9077    3.1793 C   0  0  0  0  0  0  0  0  0  0  0  0
   30.4142    5.4515    0.3070 Cl  0  0  0  0  0  0  0  0  0  0  0  0
   40.1682   12.1574    4.6063 Cl  0  0  0  0  0  0  0  0  0  0  0  0
    3.8386   -6.2104   -5.1427 H   0  0  0  0  0  0  0  0  0  0  0  0
    5.5838   -7.4684   -6.5978 H   0  0  0  0  0  0  0  0  0  0  0  0
    8.6414   -1.4252   -2.8314 H   0  0  0  0  0  0  0  0  0  0  0  0
    9.2135   -1.3829   -5.1089 H   0  0  0  0  0  0  0  0  0  0  0  0
    3.3838   -3.5197   -1.2731 H   0  0  0  0  0  0  0  0  0  0  0  0
    6.1355    2.6046    0.8956 H   0  0  0  0  0  0  0  0  0  0  0  0
    5.0403    0.6890   -0.4383 H   0  0  0  0  0  0  0  0  0  0  0  0
   12.9143   -0.3758    0.7120 H   0  0  0  0  0  0  0  0  0  0  0  0
   14.1450    0.9175    0.8045 H   0  0  0  0  0  0  0  0  0  0  0  0
   12.4112    0.2832   -1.6449 H   0  0  0  0  0  0  0  0  0  0  0  0
   14.0917   -0.2349   -1.4582 H   0  0  0  0  0  0  0  0  0  0  0  0
   13.7073    1.4848   -1.5861 H   0  0  0  0  0  0  0  0  0  0  0  0
   10.7293    6.0857    4.4939 H   0  0  0  0  0  0  0  0  0  0  0  0
   12.8553    6.9509    5.6355 H   0  0  0  0  0  0  0  0  0  0  0  0
   14.6188   -2.7033   -4.8014 H   0  0  0  0  0  0  0  0  0  0  0  0
   15.3531   -4.2154   -4.3546 H   0  0  0  0  0  0  0  0  0  0  0  0
   13.0421   -2.8724   -2.8849 H   0  0  0  0  0  0  0  0  0  0  0  0
   14.7222   -2.9443   -2.3490 H   0  0  0  0  0  0  0  0  0  0  0  0
   13.7555   -4.4165   -2.4283 H   0  0  0  0  0  0  0  0  0  0  0  0
   12.1979   -6.9035   -5.4256 H   0  0  0  0  0  0  0  0  0  0  0  0
   12.7751   -6.4843   -3.8410 H   0  0  0  0  0  0  0  0  0  0  0  0
   14.5489   -7.2502   -6.2029 H   0  0  0  0  0  0  0  0  0  0  0  0
   14.1563   -8.2704   -4.8204 H   0  0  0  0  0  0  0  0  0  0  0  0
   15.1354   -6.8218   -4.5989 H   0  0  0  0  0  0  0  0  0  0  0  0
   14.5632   -4.8731   -7.4654 H   0  0  0  0  0  0  0  0  0  0  0  0
   13.6354   -3.4026   -7.5466 H   0  0  0  0  0  0  0  0  0  0  0  0
   12.5158   -6.2063   -7.9928 H   0  0  0  0  0  0  0  0  0  0  0  0
   12.8405   -4.9987   -9.2356 H   0  0  0  0  0  0  0  0  0  0  0  0
   11.5687   -4.7233   -8.0449 H   0  0  0  0  0  0  0  0  0  0  0  0
   -1.8512   -2.5425   -2.4763 H   0  0  0  0  0  0  0  0  0  0  0  0
   -2.8611   -2.7971   -3.8700 H   0  0  0  0  0  0  0  0  0  0  0  0
   -0.1795   -1.3385   -3.8894 H   0  0  0  0  0  0  0  0  0  0  0  0
   -1.7714   -0.5829   -3.9571 H   0  0  0  0  0  0  0  0  0  0  0  0
   -1.2083   -1.5780   -5.2992 H   0  0  0  0  0  0  0  0  0  0  0  0
   -0.2977   -5.5891   -5.9770 H   0  0  0  0  0  0  0  0  0  0  0  0
   -0.4185   -3.8911   -6.3266 H   0  0  0  0  0  0  0  0  0  0  0  0
   -2.7913   -5.7586   -5.8824 H   0  0  0  0  0  0  0  0  0  0  0  0
   -2.2311   -5.1384   -7.4343 H   0  0  0  0  0  0  0  0  0  0  0  0
   -2.9131   -4.0383   -6.2379 H   0  0  0  0  0  0  0  0  0  0  0  0
   -2.6440   -5.9487   -3.2369 H   0  0  0  0  0  0  0  0  0  0  0  0
   -1.6613   -5.4955   -1.8746 H   0  0  0  0  0  0  0  0  0  0  0  0
   -0.7949   -7.3959   -4.0993 H   0  0  0  0  0  0  0  0  0  0  0  0
   -1.2701   -7.8490   -2.4632 H   0  0  0  0  0  0  0  0  0  0  0  0
    0.2046   -6.9196   -2.7289 H   0  0  0  0  0  0  0  0  0  0  0  0
   14.9212    7.3820    6.3307 H   0  0  0  0  0  0  0  0  0  0  0  0
   21.9475    7.6813    5.1065 H   0  0  0  0  0  0  0  0  0  0  0  0
   18.7725    6.3699    1.8616 H   0  0  0  0  0  0  0  0  0  0  0  0
   18.1602    8.2239    9.6375 H   0  0  0  0  0  0  0  0  0  0  0  0
   24.7301   11.0316    9.2539 H   0  0  0  0  0  0  0  0  0  0  0  0
   22.2495   10.3544    9.0821 H   0  0  0  0  0  0  0  0  0  0  0  0
   26.6270    5.9752    4.4233 H   0  0  0  0  0  0  0  0  0  0  0  0
   28.3166    5.5557    4.8232 H   0  0  0  0  0  0  0  0  0  0  0  0
   27.4277    7.2952    2.4669 H   0  0  0  0  0  0  0  0  0  0  0  0
   28.1034    5.6654    2.3711 H   0  0  0  0  0  0  0  0  0  0  0  0
   29.1064    7.0024    2.9401 H   0  0  0  0  0  0  0  0  0  0  0  0
   31.7970   11.6637    7.5143 H   0  0  0  0  0  0  0  0  0  0  0  0
   34.0424   11.0030    6.4535 H   0  0  0  0  0  0  0  0  0  0  0  0
   24.0064    5.8595    0.0312 H   0  0  0  0  0  0  0  0  0  0  0  0
   25.4427    5.4155    0.9079 H   0  0  0  0  0  0  0  0  0  0  0  0
   23.3000    7.3644    1.8671 H   0  0  0  0  0  0  0  0  0  0  0  0
   24.9116    7.7817    1.2927 H   0  0  0  0  0  0  0  0  0  0  0  0
   24.7106    6.9080    2.8131 H   0  0  0  0  0  0  0  0  0  0  0  0
   23.6768    3.0798    4.0342 H   0  0  0  0  0  0  0  0  0  0  0  0
   24.4181    4.6470    4.1229 H   0  0  0  0  0  0  0  0  0  0  0  0
   25.5887    2.2072    2.7112 H   0  0  0  0  0  0  0  0  0  0  0  0
   26.1348    2.8981    4.2374 H   0  0  0  0  0  0  0  0  0  0  0  0
   26.3428    3.7967    2.7325 H   0  0  0  0  0  0  0  0  0  0  0  0
   24.2093    2.3878    0.4694 H   0  0  0  0  0  0  0  0  0  0  0  0
   22.7961    3.1203   -0.2311 H   0  0  0  0  0  0  0  0  0  0  0  0
   22.7858    1.2988    2.2172 H   0  0  0  0  0  0  0  0  0  0  0  0
   22.2714    0.8623    0.5881 H   0  0  0  0  0  0  0  0  0  0  0  0
   21.3600    2.0559    1.5122 H   0  0  0  0  0  0  0  0  0  0  0  0
   14.7563   12.3228   11.8327 H   0  0  0  0  0  0  0  0  0  0  0  0
   13.8015   13.3085   10.7604 H   0  0  0  0  0  0  0  0  0  0  0  0
   16.6455   12.3403   10.2291 H   0  0  0  0  0  0  0  0  0  0  0  0
   16.1551   13.9780   10.6566 H   0  0  0  0  0  0  0  0  0  0  0  0
   15.6968   13.2948    9.0964 H   0  0  0  0  0  0  0  0  0  0  0  0
   11.7876   11.7423    8.8515 H   0  0  0  0  0  0  0  0  0  0  0  0
   12.5206   10.4556    7.9333 H   0  0  0  0  0  0  0  0  0  0  0  0
   13.4711   13.3518    7.9933 H   0  0  0  0  0  0  0  0  0  0  0  0
   12.6139   12.5528    6.6779 H   0  0  0  0  0  0  0  0  0  0  0  0
   14.2534   12.0547    7.0871 H   0  0  0  0  0  0  0  0  0  0  0  0
   13.5902    9.5263   11.9670 H   0  0  0  0  0  0  0  0  0  0  0  0
   12.4998    9.0203   10.7067 H   0  0  0  0  0  0  0  0  0  0  0  0
   12.1484   11.5117   12.4315 H   0  0  0  0  0  0  0  0  0  0  0  0
   11.2668    9.9952   12.6071 H   0  0  0  0  0  0  0  0  0  0  0  0
   11.0365   10.9885   11.1700 H   0  0  0  0  0  0  0  0  0  0  0  0
   32.9065    7.3895    3.4862 H   0  0  0  0  0  0  0  0  0  0  0  0
   39.8243    6.7829    1.8028 H   0  0  0  0  0  0  0  0  0  0  0  0
   37.8044   10.7248    3.5422 H   0  0  0  0  0  0  0  0  0  0  0  0
   32.7169    7.1532    1.0835 H   0  0  0  0  0  0  0  0  0  0  0  0
   40.9505    2.3432   -2.0075 H   0  0  0  0  0  0  0  0  0  0  0  0
   38.6887    3.0898   -1.0484 H   0  0  0  0  0  0  0  0  0  0  0  0
   44.0918    7.9553    1.4312 H   0  0  0  0  0  0  0  0  0  0  0  0
   45.5814    8.4459    0.5711 H   0  0  0  0  0  0  0  0  0  0  0  0
   45.4741    6.6524    3.0489 H   0  0  0  0  0  0  0  0  0  0  0  0
   46.0363    8.3271    3.0006 H   0  0  0  0  0  0  0  0  0  0  0  0
   46.9372    7.0656    2.1443 H   0  0  0  0  0  0  0  0  0  0  0  0
   48.1181    2.9337   -3.5885 H   0  0  0  0  0  0  0  0  0  0  0  0
   50.6119    3.5164   -3.2543 H   0  0  0  0  0  0  0  0  0  0  0  0
   50.9971    4.8963   -1.0589 H   0  0  0  0  0  0  0  0  0  0  0  0
   42.5489   11.5878    6.6919 H   0  0  0  0  0  0  0  0  0  0  0  0
   43.4048   10.2342    7.3762 H   0  0  0  0  0  0  0  0  0  0  0  0
   40.3723   10.5152    7.1916 H   0  0  0  0  0  0  0  0  0  0  0  0
   41.3561   10.6742    8.6449 H   0  0  0  0  0  0  0  0  0  0  0  0
   41.1977    9.1080    7.8496 H   0  0  0  0  0  0  0  0  0  0  0  0
   44.3535    7.9817    5.3034 H   0  0  0  0  0  0  0  0  0  0  0  0
   43.0902    7.4141    4.2410 H   0  0  0  0  0  0  0  0  0  0  0  0
   42.9558    7.4592    7.2854 H   0  0  0  0  0  0  0  0  0  0  0  0
   43.1759    6.0421    6.2626 H   0  0  0  0  0  0  0  0  0  0  0  0
   41.6502    6.9214    6.2264 H   0  0  0  0  0  0  0  0  0  0  0  0
   42.9929   11.6165    3.6476 H   0  0  0  0  0  0  0  0  0  0  0  0
   43.6198   10.1585    2.9317 H   0  0  0  0  0  0  0  0  0  0  0  0
   44.8706   11.6780    5.2610 H   0  0  0  0  0  0  0  0  0  0  0  0
   45.4629   11.6343    3.6020 H   0  0  0  0  0  0  0  0  0  0  0  0
   45.5096   10.1798    4.5987 H   0  0  0  0  0  0  0  0  0  0  0  0
   30.7204    2.6779   -1.3775 H   0  0  0  0  0  0  0  0  0  0  0  0
   30.7597    0.9606   -1.0948 H   0  0  0  0  0  0  0  0  0  0  0  0
   33.2197    2.7173   -1.5307 H   0  0  0  0  0  0  0  0  0  0  0  0
   32.4935    1.6397   -2.7235 H   0  0  0  0  0  0  0  0  0  0  0  0
   33.2516    0.9757   -1.2771 H   0  0  0  0  0  0  0  0  0  0  0  0
   32.6381    1.0848    2.8374 H   0  0  0  0  0  0  0  0  0  0  0  0
   33.5677    0.9174    1.3788 H   0  0  0  0  0  0  0  0  0  0  0  0
   31.0269   -0.6475    2.0236 H   0  0  0  0  0  0  0  0  0  0  0  0
   32.6764   -1.2631    2.1008 H   0  0  0  0  0  0  0  0  0  0  0  0
   31.9718   -0.8193    0.5478 H   0  0  0  0  0  0  0  0  0  0  0  0
   29.3329    1.3383    1.8082 H   0  0  0  0  0  0  0  0  0  0  0  0
   29.1221    2.9359    1.1574 H   0  0  0  0  0  0  0  0  0  0  0  0
   30.4538    2.3023    3.8286 H   0  0  0  0  0  0  0  0  0  0  0  0
   28.8249    2.9387    3.6024 H   0  0  0  0  0  0  0  0  0  0  0  0
   30.2293    3.9176    3.1662 H   0  0  0  0  0  0  0  0  0  0  0  0
  1 13  1  0  0  0  0
  1  6  2  0  0  0  0
  2  1  1  0  0  0  0
  3  2  2  0  0  0  0
  3  4  1  0  0  0  0
  4  5  2  0  0  0  0
  5  6  1  0  0  0  0
  5 10  1  0  0  0  0
  6 12  1  0  0  0  0
  7184  1  0  0  0  0
  7  2  1  0  0  0  0
  8  9  1  0  0  0  0
  8  7  2  0  0  0  0
  9  3  1  0  0  0  0
 10 11  2  0  0  0  0
 11 23  1  0  0  0  0
 12 11  1  0  0  0  0
 13 19  2  0  0  0  0
 14  4  1  0  0  0  0
 15 14  2  0  0  0  0
 16 17  2  0  0  0  0
 16 15  1  0  0  0  0
 17 18  1  0  0  0  0
 18 14  1  0  0  0  0
 19188  1  0  0  0  0
 20 19  1  0  0  0  0
 20 60  1  0  0  0  0
 21 20  2  0  0  0  0
 22 21  1  0  0  0  0
 22 13  1  0  0  0  0
 23 24  1  0  0  0  0
 23 27  2  0  0  0  0
 24 25  1  0  0  0  0
 25 26  2  0  0  0  0
 25 28  1  0  0  0  0
 26189  1  0  0  0  0
 27190  1  0  0  0  0
 27 26  1  0  0  0  0
 28 33  1  0  0  0  0
 28 29  2  0  0  0  0
 29 30  1  0  0  0  0
 30 31  2  0  0  0  0
 30 38  1  0  0  0  0
 31 39  1  0  0  0  0
 32 31  1  0  0  0  0
 33 32  1  0  0  0  0
 34 32  2  0  0  0  0
 35 34  1  0  0  0  0
 36 35  1  0  0  0  0
 36 33  2  0  0  0  0
 37 29  1  0  0  0  0
 39 42  2  0  0  0  0
 40 35  1  0  0  0  0
 40191  1  0  0  0  0
 40192  1  0  0  0  0
 41 40  1  0  0  0  0
 42196  1  0  0  0  0
 42 43  1  0  0  0  0
 43197  1  0  0  0  0
 44 69  1  0  0  0  0
 44 43  2  0  0  0  0
 45 39  1  0  0  0  0
 45 44  1  0  0  0  0
 46 17  1  0  0  0  0
 46 49  1  0  0  0  0
 46 47  1  0  0  0  0
 47199  1  0  0  0  0
 47 48  1  0  0  0  0
 48200  1  0  0  0  0
 48202  1  0  0  0  0
 48201  1  0  0  0  0
 49204  1  0  0  0  0
 50 49  1  0  0  0  0
 50206  1  0  0  0  0
 50207  1  0  0  0  0
 51 46  1  0  0  0  0
 52212  1  0  0  0  0
 52210  1  0  0  0  0
 52 51  1  0  0  0  0
 53 54  1  0  0  0  0
 53 21  1  0  0  0  0
 53 58  1  0  0  0  0
 54213  1  0  0  0  0
 55216  1  0  0  0  0
 55215  1  0  0  0  0
 55 54  1  0  0  0  0
 56 53  1  0  0  0  0
 57222  1  0  0  0  0
 57220  1  0  0  0  0
 57 56  1  0  0  0  0
 58224  1  0  0  0  0
 59 58  1  0  0  0  0
 59227  1  0  0  0  0
 59226  1  0  0  0  0
 61 16  1  0  0  0  0
 62 74  1  0  0  0  0
 63 62  2  0  0  0  0
 64 63  1  0  0  0  0
 65 64  2  0  0  0  0
 65 66  1  0  0  0  0
 66 71  1  0  0  0  0
 66 67  2  0  0  0  0
 67 62  1  0  0  0  0
 67 73  1  0  0  0  0
 68 63  1  0  0  0  0
 68228  1  0  0  0  0
 69 68  2  0  0  0  0
 70 69  1  0  0  0  0
 70 64  1  0  0  0  0
 71 72  2  0  0  0  0
 72 84  1  0  0  0  0
 72 73  1  0  0  0  0
 74 80  2  0  0  0  0
 75 79  1  0  0  0  0
 75 65  1  0  0  0  0
 76 75  2  0  0  0  0
 77 76  1  0  0  0  0
 77 78  2  0  0  0  0
 78 79  1  0  0  0  0
 80231  1  0  0  0  0
 80 81  1  0  0  0  0
 81121  1  0  0  0  0
 82114  1  0  0  0  0
 82 81  2  0  0  0  0
 83 74  1  0  0  0  0
 83 82  1  0  0  0  0
 84 88  2  0  0  0  0
 85 84  1  0  0  0  0
 85 86  1  0  0  0  0
 86 87  2  0  0  0  0
 87232  1  0  0  0  0
 88 87  1  0  0  0  0
 88233  1  0  0  0  0
 89 86  1  0  0  0  0
 89 90  2  0  0  0  0
 90 98  1  0  0  0  0
 91 90  1  0  0  0  0
 91 99  1  0  0  0  0
 92 91  2  0  0  0  0
 93 94  1  0  0  0  0
 93 92  1  0  0  0  0
 94 89  1  0  0  0  0
 95 93  2  0  0  0  0
 96 95  1  0  0  0  0
 96 97  1  0  0  0  0
 97 94  2  0  0  0  0
100 92  1  0  0  0  0
100103  2  0  0  0  0
101234  1  0  0  0  0
101235  1  0  0  0  0
101 96  1  0  0  0  0
102101  1  0  0  0  0
103239  1  0  0  0  0
104240  1  0  0  0  0
104103  1  0  0  0  0
105104  2  0  0  0  0
106105  1  0  0  0  0
106100  1  0  0  0  0
107 78  1  0  0  0  0
107110  1  0  0  0  0
108109  1  0  0  0  0
108107  1  0  0  0  0
109243  1  0  0  0  0
109245  1  0  0  0  0
110246  1  0  0  0  0
110247  1  0  0  0  0
111110  1  0  0  0  0
111249  1  0  0  0  0
112113  1  0  0  0  0
112107  1  0  0  0  0
113255  1  0  0  0  0
113253  1  0  0  0  0
114115  1  0  0  0  0
114119  1  0  0  0  0
115256  1  0  0  0  0
116258  1  0  0  0  0
116259  1  0  0  0  0
116115  1  0  0  0  0
117261  1  0  0  0  0
117114  1  0  0  0  0
118263  1  0  0  0  0
118117  1  0  0  0  0
119120  1  0  0  0  0
119266  1  0  0  0  0
120268  1  0  0  0  0
120269  1  0  0  0  0
122 77  1  0  0  0  0
123124  1  0  0  0  0
124125  2  0  0  0  0
124129  1  0  0  0  0
125131  1  0  0  0  0
126125  1  0  0  0  0
126136  1  0  0  0  0
127126  2  0  0  0  0
128123  2  0  0  0  0
128127  1  0  0  0  0
129130  2  0  0  0  0
130131  1  0  0  0  0
130105  1  0  0  0  0
132272  1  0  0  0  0
132127  1  0  0  0  0
133132  2  0  0  0  0
134133  1  0  0  0  0
134128  1  0  0  0  0
135144  1  0  0  0  0
135123  1  0  0  0  0
136137  2  0  0  0  0
136140  1  0  0  0  0
137138  1  0  0  0  0
138139  2  0  0  0  0
138183  1  0  0  0  0
139168  1  0  0  0  0
140139  1  0  0  0  0
141135  2  0  0  0  0
142143  2  0  0  0  0
142141  1  0  0  0  0
143144  1  0  0  0  0
145146  1  0  0  0  0
145133  1  0  0  0  0
147146  1  0  0  0  0
148147  2  0  0  0  0
148149  1  0  0  0  0
149145  2  0  0  0  0
150147  1  0  0  0  0
150155  1  0  0  0  0
151150  2  0  0  0  0
152151  1  0  0  0  0
152153  2  0  0  0  0
153154  1  0  0  0  0
154155  1  0  0  0  0
154156  2  0  0  0  0
155158  2  0  0  0  0
156157  1  0  0  0  0
157162  1  0  0  0  0
158157  1  0  0  0  0
159151  1  0  0  0  0
160152  1  0  0  0  0
161153  1  0  0  0  0
161167  1  0  0  0  0
162277  1  0  0  0  0
162163  1  0  0  0  0
163280  1  0  0  0  0
163279  1  0  0  0  0
164165  1  0  0  0  0
164161  2  0  0  0  0
165166  2  0  0  0  0
166284  1  0  0  0  0
166167  1  0  0  0  0
168171  1  0  0  0  0
168169  1  0  0  0  0
169286  1  0  0  0  0
169170  1  0  0  0  0
170289  1  0  0  0  0
170288  1  0  0  0  0
171290  1  0  0  0  0
171172  1  0  0  0  0
172292  1  0  0  0  0
173174  1  0  0  0  0
173168  1  0  0  0  0
174299  1  0  0  0  0
174297  1  0  0  0  0
175143  1  0  0  0  0
175180  1  0  0  0  0
175178  1  0  0  0  0
176175  1  0  0  0  0
177302  1  0  0  0  0
177304  1  0  0  0  0
177176  1  0  0  0  0
178305  1  0  0  0  0
179178  1  0  0  0  0
179307  1  0  0  0  0
179308  1  0  0  0  0
180310  1  0  0  0  0
180181  1  0  0  0  0
181313  1  0  0  0  0
181312  1  0  0  0  0
182142  1  0  0  0  0
185  8  1  0  0  0  0
186 10  1  0  0  0  0
187 15  1  0  0  0  0
193 41  1  0  0  0  0
194 41  1  0  0  0  0
195 41  1  0  0  0  0
198 47  1  0  0  0  0
203 49  1  0  0  0  0
205 50  1  0  0  0  0
208 51  1  0  0  0  0
209 51  1  0  0  0  0
211 52  1  0  0  0  0
214 54  1  0  0  0  0
217 55  1  0  0  0  0
218 56  1  0  0  0  0
219 56  1  0  0  0  0
221 57  1  0  0  0  0
223 58  1  0  0  0  0
225 59  1  0  0  0  0
229 71  1  0  0  0  0
230 76  1  0  0  0  0
236102  1  0  0  0  0
237102  1  0  0  0  0
238102  1  0  0  0  0
241108  1  0  0  0  0
242108  1  0  0  0  0
244109  1  0  0  0  0
248111  1  0  0  0  0
250111  1  0  0  0  0
251112  1  0  0  0  0
252112  1  0  0  0  0
254113  1  0  0  0  0
257115  1  0  0  0  0
260116  1  0  0  0  0
262117  1  0  0  0  0
264118  1  0  0  0  0
265118  1  0  0  0  0
267119  1  0  0  0  0
270120  1  0  0  0  0
271129  1  0  0  0  0
273137  1  0  0  0  0
274141  1  0  0  0  0
275148  1  0  0  0  0
276149  1  0  0  0  0
278162  1  0  0  0  0
281163  1  0  0  0  0
282164  1  0  0  0  0
283165  1  0  0  0  0
285169  1  0  0  0  0
287170  1  0  0  0  0
291171  1  0  0  0  0
293172  1  0  0  0  0
294172  1  0  0  0  0
295173  1  0  0  0  0
296173  1  0  0  0  0
298174  1  0  0  0  0
300176  1  0  0  0  0
301176  1  0  0  0  0
303177  1  0  0  0  0
306178  1  0  0  0  0
309179  1  0  0  0  0
311180  1  0  0  0  0
314181  1  0  0  0  0
M  END
