SCF done       -420.980084119716          0.000679064947
 OpenBabel12282109573D

224250  0  0  0  0  0  0  0  0999 V2000
   -0.8940    5.5192    5.8284 C   0  0  0  0  0  0  0  0  0  0  0  0
   -1.2399    6.1607    7.0313 C   0  0  0  0  0  0  0  0  0  0  0  0
   -0.2414    6.7677    7.8270 C   0  0  0  0  0  0  0  0  0  0  0  0
    1.1103    6.7732    7.4879 C   0  0  0  0  0  0  0  0  0  0  0  0
    1.4592    6.1021    6.2999 C   0  0  0  0  0  0  0  0  0  0  0  0
    0.4577    5.4875    5.5079 C   0  0  0  0  0  0  0  0  0  0  0  0
   -2.5338    6.2911    7.6178 C   0  0  0  0  0  0  0  0  0  0  0  0
   -2.5211    6.9866    8.7718 C   0  0  0  0  0  0  0  0  0  0  0  0
   -0.9422    7.5186    9.2369 S   0  0  0  0  0  0  0  0  0  0  0  0
    2.7483    5.9188    5.7443 C   0  0  0  0  0  0  0  0  0  0  0  0
    2.7499    5.2253    4.5697 C   0  0  0  0  0  0  0  0  0  0  0  0
    1.1371    4.7449    4.0854 S   0  0  0  0  0  0  0  0  0  0  0  0
   -1.9093    4.9418    4.9677 C   0  0  0  0  0  0  0  0  0  0  0  0
    2.0882    7.4451    8.3195 C   0  0  0  0  0  0  0  0  0  0  0  0
    2.1241    7.5068    9.6838 C   0  0  0  0  0  0  0  0  0  0  0  0
    3.1852    8.2780   10.2108 C   0  0  0  0  0  0  0  0  0  0  0  0
    3.9444    8.8150    9.2128 C   0  0  0  0  0  0  0  0  0  0  0  0
    3.3913    8.3782    7.6298 S   0  0  0  0  0  0  0  0  0  0  0  0
   -3.1025    5.4908    4.5961 C   0  0  0  0  0  0  0  0  0  0  0  0
   -3.2494    3.4923    3.4865 C   0  0  0  0  0  0  0  0  0  0  0  0
   -1.7036    3.3632    4.2604 S   0  0  0  0  0  0  0  0  0  0  0  0
    3.8822    4.8873    3.7766 C   0  0  0  0  0  0  0  0  0  0  0  0
    5.4669    5.4395    4.2258 S   0  0  0  0  0  0  0  0  0  0  0  0
    6.1734    4.6388    2.8525 C   0  0  0  0  0  0  0  0  0  0  0  0
    5.2100    3.9945    2.1041 C   0  0  0  0  0  0  0  0  0  0  0  0
    3.9230    4.1376    2.6219 C   0  0  0  0  0  0  0  0  0  0  0  0
    7.5893    4.7223    2.6548 C   0  0  0  0  0  0  0  0  0  0  0  0
    8.3119    4.0739    1.6596 C   0  0  0  0  0  0  0  0  0  0  0  0
    9.7051    4.1659    1.5149 C   0  0  0  0  0  0  0  0  0  0  0  0
   10.5192    4.9243    2.3466 C   0  0  0  0  0  0  0  0  0  0  0  0
    9.8033    5.6139    3.3527 C   0  0  0  0  0  0  0  0  0  0  0  0
    8.3954    5.5105    3.5101 C   0  0  0  0  0  0  0  0  0  0  0  0
   10.2521    6.4363    4.3078 N   0  0  0  0  0  0  0  0  0  0  0  0
    9.1847    6.7796    4.9721 N   0  0  0  0  0  0  0  0  0  0  0  0
    8.0573    6.2726    4.5591 N   0  0  0  0  0  0  0  0  0  0  0  0
   11.9455    5.0259    2.2747 C   0  0  0  0  0  0  0  0  0  0  0  0
    9.2477    7.6841    6.0864 C   0  0  0  0  0  0  0  0  0  0  0  0
   10.3419    7.2615    7.0570 C   0  0  0  0  0  0  0  0  0  0  0  0
   12.8423    4.4114    1.4256 C   0  0  0  0  0  0  0  0  0  0  0  0
   14.1717    4.7348    1.6997 C   0  0  0  0  0  0  0  0  0  0  0  0
   14.3110    5.6058    2.7574 C   0  0  0  0  0  0  0  0  0  0  0  0
   12.7665    6.0344    3.4284 S   0  0  0  0  0  0  0  0  0  0  0  0
    5.3265    9.8087    9.3955 Cl  0  0  0  0  0  0  0  0  0  0  0  0
   -3.8323    2.2120    2.5127 Cl  0  0  0  0  0  0  0  0  0  0  0  0
    7.6770    3.2898    0.7663 F   0  0  0  0  0  0  0  0  0  0  0  0
   10.2456    3.4591    0.5030 F   0  0  0  0  0  0  0  0  0  0  0  0
   -3.8795    4.6757    3.7403 C   0  0  0  0  0  0  0  0  0  0  0  0
   -5.2343    5.0489    3.2283 C   0  0  0  0  0  0  0  0  0  0  0  0
    3.3974    8.5131   11.6719 C   0  0  0  0  0  0  0  0  0  0  0  0
    2.5041    9.6523   12.1655 C   0  0  0  0  0  0  0  0  0  0  0  0
   -6.3165    4.6914    4.2484 C   0  0  0  0  0  0  0  0  0  0  0  0
   17.3038    8.2345    5.7708 C   0  0  0  0  0  0  0  0  0  0  0  0
   16.8937    7.3599    4.7431 C   0  0  0  0  0  0  0  0  0  0  0  0
   17.8539    6.6726    3.9598 C   0  0  0  0  0  0  0  0  0  0  0  0
   19.2256    6.7907    4.1570 C   0  0  0  0  0  0  0  0  0  0  0  0
   19.6358    7.6773    5.1729 C   0  0  0  0  0  0  0  0  0  0  0  0
   18.6769    8.3845    5.9401 C   0  0  0  0  0  0  0  0  0  0  0  0
   15.5736    7.0435    4.3472 C   0  0  0  0  0  0  0  0  0  0  0  0
   15.4994    6.1336    3.3335 C   0  0  0  0  0  0  0  0  0  0  0  0
   17.0859    5.6342    2.7869 S   0  0  0  0  0  0  0  0  0  0  0  0
   20.9571    7.9907    5.5661 C   0  0  0  0  0  0  0  0  0  0  0  0
   21.0340    8.8766    6.6003 C   0  0  0  0  0  0  0  0  0  0  0  0
   19.4494    9.3943    7.1355 S   0  0  0  0  0  0  0  0  0  0  0  0
   16.3589    8.9197    6.6298 C   0  0  0  0  0  0  0  0  0  0  0  0
   20.1660    6.0230    3.3654 C   0  0  0  0  0  0  0  0  0  0  0  0
   20.0827    5.7219    2.0359 C   0  0  0  0  0  0  0  0  0  0  0  0
   21.1326    4.9101    1.5476 C   0  0  0  0  0  0  0  0  0  0  0  0
   22.0070    4.5888    2.5435 C   0  0  0  0  0  0  0  0  0  0  0  0
   21.5754    5.2772    4.0742 S   0  0  0  0  0  0  0  0  0  0  0  0
   16.4564   10.1809    7.1463 C   0  0  0  0  0  0  0  0  0  0  0  0
   14.4881    9.5391    8.1267 C   0  0  0  0  0  0  0  0  0  0  0  0
   14.9166    8.1298    7.2156 S   0  0  0  0  0  0  0  0  0  0  0  0
   22.2275    9.3517    7.2119 C   0  0  0  0  0  0  0  0  0  0  0  0
   23.7455    8.6092    6.8078 S   0  0  0  0  0  0  0  0  0  0  0  0
   24.5958    9.6783    7.8821 C   0  0  0  0  0  0  0  0  0  0  0  0
   23.7267   10.5474    8.5076 C   0  0  0  0  0  0  0  0  0  0  0  0
   22.3943   10.3571    8.1377 C   0  0  0  0  0  0  0  0  0  0  0  0
   26.0162    9.5422    8.0055 C   0  0  0  0  0  0  0  0  0  0  0  0
   26.8671   10.3970    8.6916 C   0  0  0  0  0  0  0  0  0  0  0  0
   28.2526   10.1984    8.7760 C   0  0  0  0  0  0  0  0  0  0  0  0
   28.9310    9.1282    8.2029 C   0  0  0  0  0  0  0  0  0  0  0  0
   28.0885    8.2386    7.4893 C   0  0  0  0  0  0  0  0  0  0  0  0
   26.6849    8.4540    7.3977 C   0  0  0  0  0  0  0  0  0  0  0  0
   28.3571    7.1191    6.7989 N   0  0  0  0  0  0  0  0  0  0  0  0
   27.1976    6.7238    6.3496 N   0  0  0  0  0  0  0  0  0  0  0  0
   26.1720    7.4594    6.6663 N   0  0  0  0  0  0  0  0  0  0  0  0
   30.3405    8.9114    8.3239 C   0  0  0  0  0  0  0  0  0  0  0  0
   27.0552    5.5208    5.5749 C   0  0  0  0  0  0  0  0  0  0  0  0
   25.9526    5.6790    4.5397 C   0  0  0  0  0  0  0  0  0  0  0  0
   31.0452    7.8032    7.9002 C   0  0  0  0  0  0  0  0  0  0  0  0
   32.4073    7.8697    8.1891 C   0  0  0  0  0  0  0  0  0  0  0  0
   32.7718    9.0368    8.8239 C   0  0  0  0  0  0  0  0  0  0  0  0
   31.3983   10.0648    9.0826 S   0  0  0  0  0  0  0  0  0  0  0  0
   23.4166    3.6292    2.4017 Cl  0  0  0  0  0  0  0  0  0  0  0  0
   13.0494    9.5580    9.0530 Cl  0  0  0  0  0  0  0  0  0  0  0  0
   26.3769   11.4851    9.3163 F   0  0  0  0  0  0  0  0  0  0  0  0
   28.9449   11.1201    9.4763 F   0  0  0  0  0  0  0  0  0  0  0  0
   15.3936   10.5519    8.0015 C   0  0  0  0  0  0  0  0  0  0  0  0
   15.2619   11.8987    8.6376 C   0  0  0  0  0  0  0  0  0  0  0  0
   21.2207    4.4327    0.1337 C   0  0  0  0  0  0  0  0  0  0  0  0
   20.2641    3.2621   -0.0979 C   0  0  0  0  0  0  0  0  0  0  0  0
   14.5551   12.8753    7.6962 C   0  0  0  0  0  0  0  0  0  0  0  0
   36.4275   11.8743   10.7065 C   0  0  0  0  0  0  0  0  0  0  0  0
   35.7683   10.7588   10.1524 C   0  0  0  0  0  0  0  0  0  0  0  0
   36.4692    9.5479    9.9327 C   0  0  0  0  0  0  0  0  0  0  0  0
   37.8132    9.3765   10.2525 C   0  0  0  0  0  0  0  0  0  0  0  0
   38.4787   10.5037   10.7786 C   0  0  0  0  0  0  0  0  0  0  0  0
   37.7801   11.7207   10.9799 C   0  0  0  0  0  0  0  0  0  0  0  0
   34.4140   10.6684    9.7519 C   0  0  0  0  0  0  0  0  0  0  0  0
   34.0600    9.4421    9.2725 C   0  0  0  0  0  0  0  0  0  0  0  0
   35.4133    8.3267    9.2698 S   0  0  0  0  0  0  0  0  0  0  0  0
   39.8357   10.6172   11.1573 C   0  0  0  0  0  0  0  0  0  0  0  0
   40.1727   11.8429   11.6548 C   0  0  0  0  0  0  0  0  0  0  0  0
   38.8153   12.9468   11.6609 S   0  0  0  0  0  0  0  0  0  0  0  0
   35.7038   13.0998   10.9792 C   0  0  0  0  0  0  0  0  0  0  0  0
   38.4745    8.0994   10.0729 C   0  0  0  0  0  0  0  0  0  0  0  0
   38.2855    7.1891    9.0714 C   0  0  0  0  0  0  0  0  0  0  0  0
   39.0450    6.0036    9.1999 C   0  0  0  0  0  0  0  0  0  0  0  0
   39.8132    6.0336   10.3267 C   0  0  0  0  0  0  0  0  0  0  0  0
   39.6174    7.4902   11.2431 S   0  0  0  0  0  0  0  0  0  0  0  0
   34.4597   13.2333   11.5260 C   0  0  0  0  0  0  0  0  0  0  0  0
   34.9390   15.4411   11.1509 C   0  0  0  0  0  0  0  0  0  0  0  0
   36.3768   14.6570   10.5803 S   0  0  0  0  0  0  0  0  0  0  0  0
   41.4520   12.2292   12.1428 C   0  0  0  0  0  0  0  0  0  0  0  0
   42.7060   11.0362   12.2999 S   0  0  0  0  0  0  0  0  0  0  0  0
   43.8113   12.2266   12.9177 C   0  0  0  0  0  0  0  0  0  0  0  0
   43.2148   13.4678   12.9882 C   0  0  0  0  0  0  0  0  0  0  0  0
   41.8865   13.4676   12.5587 C   0  0  0  0  0  0  0  0  0  0  0  0
   45.1387   11.8164   13.2689 C   0  0  0  0  0  0  0  0  0  0  0  0
   46.1724   12.6427   13.6832 C   0  0  0  0  0  0  0  0  0  0  0  0
   47.4544   12.1705   14.0060 C   0  0  0  0  0  0  0  0  0  0  0  0
   47.8387   10.8369   13.9508 C   0  0  0  0  0  0  0  0  0  0  0  0
   46.8012    9.9651   13.5341 C   0  0  0  0  0  0  0  0  0  0  0  0
   45.5032   10.4511   13.2103 C   0  0  0  0  0  0  0  0  0  0  0  0
   46.7721    8.6336   13.3625 N   0  0  0  0  0  0  0  0  0  0  0  0
   45.5531    8.3782   12.9749 N   0  0  0  0  0  0  0  0  0  0  0  0
   44.7532    9.3993   12.8660 N   0  0  0  0  0  0  0  0  0  0  0  0
   49.1500   10.3578   14.2812 C   0  0  0  0  0  0  0  0  0  0  0  0
   45.1028    7.0376   12.7169 C   0  0  0  0  0  0  0  0  0  0  0  0
   44.1912    7.0050   11.4994 C   0  0  0  0  0  0  0  0  0  0  0  0
   49.5798    9.0514   14.2481 C   0  0  0  0  0  0  0  0  0  0  0  0
   50.9215    8.9043   14.6303 C   0  0  0  0  0  0  0  0  0  0  0  0
   51.5075   10.0914   14.9512 C   0  0  0  0  0  0  0  0  0  0  0  0
   50.4348   11.4152   14.7949 S   0  0  0  0  0  0  0  0  0  0  0  0
   40.8886    4.8165   10.8659 Cl  0  0  0  0  0  0  0  0  0  0  0  0
   34.8084   17.1453   11.0792 Cl  0  0  0  0  0  0  0  0  0  0  0  0
   45.9795   13.9715   13.7891 F   0  0  0  0  0  0  0  0  0  0  0  0
   48.3497   13.1025   14.3900 F   0  0  0  0  0  0  0  0  0  0  0  0
   34.0076   14.5687   11.6342 C   0  0  0  0  0  0  0  0  0  0  0  0
   32.6585   14.9483   12.1553 C   0  0  0  0  0  0  0  0  0  0  0  0
   39.0391    4.8914    8.2004 C   0  0  0  0  0  0  0  0  0  0  0  0
   40.0595    5.1552    7.0920 C   0  0  0  0  0  0  0  0  0  0  0  0
   31.5815   14.7010   11.0973 C   0  0  0  0  0  0  0  0  0  0  0  0
   -3.4199    5.8580    7.1922 H   0  0  0  0  0  0  0  0  0  0  0  0
   -3.3494    7.2226    9.4109 H   0  0  0  0  0  0  0  0  0  0  0  0
    3.6580    6.2705    6.1943 H   0  0  0  0  0  0  0  0  0  0  0  0
    1.4307    6.9807   10.3142 H   0  0  0  0  0  0  0  0  0  0  0  0
   -3.4080    6.4794    4.8897 H   0  0  0  0  0  0  0  0  0  0  0  0
    5.4263    3.4404    1.2100 H   0  0  0  0  0  0  0  0  0  0  0  0
    3.0428    3.7077    2.1771 H   0  0  0  0  0  0  0  0  0  0  0  0
    8.2607    7.6765    6.5519 H   0  0  0  0  0  0  0  0  0  0  0  0
    9.4572    8.6888    5.7049 H   0  0  0  0  0  0  0  0  0  0  0  0
   10.1210    6.2856    7.4817 H   0  0  0  0  0  0  0  0  0  0  0  0
   10.4179    7.9844    7.8637 H   0  0  0  0  0  0  0  0  0  0  0  0
   11.2953    7.2084    6.5378 H   0  0  0  0  0  0  0  0  0  0  0  0
   12.5475    3.7457    0.6360 H   0  0  0  0  0  0  0  0  0  0  0  0
   15.0118    4.3483    1.1499 H   0  0  0  0  0  0  0  0  0  0  0  0
   -5.4278    4.5200    2.2940 H   0  0  0  0  0  0  0  0  0  0  0  0
   -5.2586    6.1221    3.0306 H   0  0  0  0  0  0  0  0  0  0  0  0
    4.4436    8.7627   11.8549 H   0  0  0  0  0  0  0  0  0  0  0  0
    3.1580    7.5991   12.2185 H   0  0  0  0  0  0  0  0  0  0  0  0
    2.7504   10.5758   11.6470 H   0  0  0  0  0  0  0  0  0  0  0  0
    2.6436    9.8055   13.2327 H   0  0  0  0  0  0  0  0  0  0  0  0
    1.4580    9.4213   11.9785 H   0  0  0  0  0  0  0  0  0  0  0  0
   -6.3101    3.6219    4.4444 H   0  0  0  0  0  0  0  0  0  0  0  0
   -7.2972    4.9692    3.8705 H   0  0  0  0  0  0  0  0  0  0  0  0
   -6.1446    5.2147    5.1864 H   0  0  0  0  0  0  0  0  0  0  0  0
   14.6907    7.4743    4.7811 H   0  0  0  0  0  0  0  0  0  0  0  0
   21.8380    7.5917    5.0989 H   0  0  0  0  0  0  0  0  0  0  0  0
   19.3068    6.1009    1.3960 H   0  0  0  0  0  0  0  0  0  0  0  0
   17.2552   10.8564    6.8999 H   0  0  0  0  0  0  0  0  0  0  0  0
   24.0432   11.2907    9.2157 H   0  0  0  0  0  0  0  0  0  0  0  0
   21.5728   10.9343    8.5241 H   0  0  0  0  0  0  0  0  0  0  0  0
   26.8150    4.6964    6.2554 H   0  0  0  0  0  0  0  0  0  0  0  0
   28.0251    5.3215    5.1146 H   0  0  0  0  0  0  0  0  0  0  0  0
   25.0157    5.9266    5.0308 H   0  0  0  0  0  0  0  0  0  0  0  0
   25.8302    4.7513    3.9892 H   0  0  0  0  0  0  0  0  0  0  0  0
   26.1957    6.4733    3.8388 H   0  0  0  0  0  0  0  0  0  0  0  0
   30.5651    6.9807    7.4038 H   0  0  0  0  0  0  0  0  0  0  0  0
   33.1171    7.0990    7.9456 H   0  0  0  0  0  0  0  0  0  0  0  0
   16.2569   12.2769    8.8779 H   0  0  0  0  0  0  0  0  0  0  0  0
   14.6918   11.8106    9.5639 H   0  0  0  0  0  0  0  0  0  0  0  0
   22.2429    4.1207   -0.0856 H   0  0  0  0  0  0  0  0  0  0  0  0
   20.9587    5.2541   -0.5360 H   0  0  0  0  0  0  0  0  0  0  0  0
   20.5319    2.4242    0.5413 H   0  0  0  0  0  0  0  0  0  0  0  0
   20.3100    2.9369   -1.1342 H   0  0  0  0  0  0  0  0  0  0  0  0
   19.2428    3.5565    0.1320 H   0  0  0  0  0  0  0  0  0  0  0  0
   15.1084   12.9727    6.7650 H   0  0  0  0  0  0  0  0  0  0  0  0
   14.4773   13.8555    8.1596 H   0  0  0  0  0  0  0  0  0  0  0  0
   13.5537   12.5194    7.4663 H   0  0  0  0  0  0  0  0  0  0  0  0
   33.7236   11.4909    9.7893 H   0  0  0  0  0  0  0  0  0  0  0  0
   40.5615    9.8318   11.0598 H   0  0  0  0  0  0  0  0  0  0  0  0
   37.6395    7.3662    8.2309 H   0  0  0  0  0  0  0  0  0  0  0  0
   33.8857   12.3997   11.8892 H   0  0  0  0  0  0  0  0  0  0  0  0
   43.7199   14.3464   13.3442 H   0  0  0  0  0  0  0  0  0  0  0  0
   41.2571   14.3399   12.5450 H   0  0  0  0  0  0  0  0  0  0  0  0
   44.5598    6.6789   13.5981 H   0  0  0  0  0  0  0  0  0  0  0  0
   45.9950    6.4239   12.5791 H   0  0  0  0  0  0  0  0  0  0  0  0
   43.3557    7.6832   11.6491 H   0  0  0  0  0  0  0  0  0  0  0  0
   43.8098    5.9990   11.3515 H   0  0  0  0  0  0  0  0  0  0  0  0
   44.7320    7.3107   10.6074 H   0  0  0  0  0  0  0  0  0  0  0  0
   48.9349    8.2436   13.9573 H   0  0  0  0  0  0  0  0  0  0  0  0
   51.4324    7.9588   14.6664 H   0  0  0  0  0  0  0  0  0  0  0  0
   52.5149   10.2672   15.2734 H   0  0  0  0  0  0  0  0  0  0  0  0
   32.6603   16.0023   12.4360 H   0  0  0  0  0  0  0  0  0  0  0  0
   32.4385   14.3536   13.0442 H   0  0  0  0  0  0  0  0  0  0  0  0
   38.0409    4.8077    7.7675 H   0  0  0  0  0  0  0  0  0  0  0  0
   39.2802    3.9512    8.6993 H   0  0  0  0  0  0  0  0  0  0  0  0
   39.8371    6.0919    6.5862 H   0  0  0  0  0  0  0  0  0  0  0  0
   40.0379    4.3506    6.3613 H   0  0  0  0  0  0  0  0  0  0  0  0
   41.0617    5.2187    7.5092 H   0  0  0  0  0  0  0  0  0  0  0  0
   31.7877   15.2879   10.2053 H   0  0  0  0  0  0  0  0  0  0  0  0
   30.6056   14.9862   11.4813 H   0  0  0  0  0  0  0  0  0  0  0  0
   31.5475   13.6504   10.8186 H   0  0  0  0  0  0  0  0  0  0  0  0
  1  2  1  0  0  0  0
  2  7  1  0  0  0  0
  2  3  2  0  0  0  0
  3  9  1  0  0  0  0
  4  3  1  0  0  0  0
  4 14  1  0  0  0  0
  5  4  2  0  0  0  0
  6  1  2  0  0  0  0
  6  5  1  0  0  0  0
  7  8  2  0  0  0  0
  8  9  1  0  0  0  0
  8155  1  0  0  0  0
 10156  1  0  0  0  0
 10  5  1  0  0  0  0
 11 10  2  0  0  0  0
 12 11  1  0  0  0  0
 12  6  1  0  0  0  0
 13  1  1  0  0  0  0
 14 15  2  0  0  0  0
 15 16  1  0  0  0  0
 15157  1  0  0  0  0
 16 49  1  0  0  0  0
 17 43  1  0  0  0  0
 17 16  2  0  0  0  0
 18 14  1  0  0  0  0
 18 17  1  0  0  0  0
 19158  1  0  0  0  0
 19 13  2  0  0  0  0
 20 47  2  0  0  0  0
 20 21  1  0  0  0  0
 21 13  1  0  0  0  0
 22 23  1  0  0  0  0
 22 11  1  0  0  0  0
 24 23  1  0  0  0  0
 25 26  1  0  0  0  0
 25 24  2  0  0  0  0
 26 22  2  0  0  0  0
 27 24  1  0  0  0  0
 27 32  1  0  0  0  0
 28 27  2  0  0  0  0
 29 28  1  0  0  0  0
 29 30  2  0  0  0  0
 30 31  1  0  0  0  0
 31 32  1  0  0  0  0
 31 33  2  0  0  0  0
 32 35  2  0  0  0  0
 33 34  1  0  0  0  0
 34 37  1  0  0  0  0
 35 34  1  0  0  0  0
 36 30  1  0  0  0  0
 36 42  1  0  0  0  0
 37161  1  0  0  0  0
 37 38  1  0  0  0  0
 38163  1  0  0  0  0
 38164  1  0  0  0  0
 39 40  1  0  0  0  0
 39 36  2  0  0  0  0
 40 41  2  0  0  0  0
 41 59  1  0  0  0  0
 41 42  1  0  0  0  0
 44 20  1  0  0  0  0
 45 28  1  0  0  0  0
 46 29  1  0  0  0  0
 47 19  1  0  0  0  0
 48 47  1  0  0  0  0
 48 51  1  0  0  0  0
 49170  1  0  0  0  0
 49 50  1  0  0  0  0
 49171  1  0  0  0  0
 50173  1  0  0  0  0
 51175  1  0  0  0  0
 51177  1  0  0  0  0
 52 57  1  0  0  0  0
 52 64  1  0  0  0  0
 53 52  2  0  0  0  0
 54 55  2  0  0  0  0
 54 53  1  0  0  0  0
 55 56  1  0  0  0  0
 56 61  1  0  0  0  0
 56 57  2  0  0  0  0
 57 63  1  0  0  0  0
 58 53  1  0  0  0  0
 58178  1  0  0  0  0
 59 58  2  0  0  0  0
 60 59  1  0  0  0  0
 60 54  1  0  0  0  0
 61 62  2  0  0  0  0
 62 63  1  0  0  0  0
 62 73  1  0  0  0  0
 64 70  2  0  0  0  0
 64 72  1  0  0  0  0
 65 69  1  0  0  0  0
 65 55  1  0  0  0  0
 66 65  2  0  0  0  0
 67 66  1  0  0  0  0
 67 68  2  0  0  0  0
 68 69  1  0  0  0  0
 70 98  1  0  0  0  0
 71 95  1  0  0  0  0
 72 71  1  0  0  0  0
 73 77  2  0  0  0  0
 74 73  1  0  0  0  0
 74 75  1  0  0  0  0
 75 78  1  0  0  0  0
 75 76  2  0  0  0  0
 76182  1  0  0  0  0
 77 76  1  0  0  0  0
 77183  1  0  0  0  0
 78 79  2  0  0  0  0
 79 80  1  0  0  0  0
 79 96  1  0  0  0  0
 80 97  1  0  0  0  0
 81 87  1  0  0  0  0
 81 80  2  0  0  0  0
 82 81  1  0  0  0  0
 83 82  1  0  0  0  0
 83 78  1  0  0  0  0
 84 82  2  0  0  0  0
 85 86  1  0  0  0  0
 85 84  1  0  0  0  0
 86 83  2  0  0  0  0
 87 93  1  0  0  0  0
 88184  1  0  0  0  0
 88 85  1  0  0  0  0
 89186  1  0  0  0  0
 89 88  1  0  0  0  0
 90 91  1  0  0  0  0
 90 87  2  0  0  0  0
 91 92  2  0  0  0  0
 92 93  1  0  0  0  0
 92110  1  0  0  0  0
 94 68  1  0  0  0  0
 98 71  2  0  0  0  0
 98 99  1  0  0  0  0
 99191  1  0  0  0  0
 99192  1  0  0  0  0
100 67  1  0  0  0  0
101197  1  0  0  0  0
101100  1  0  0  0  0
101195  1  0  0  0  0
102199  1  0  0  0  0
102 99  1  0  0  0  0
103115  1  0  0  0  0
103108  2  0  0  0  0
104103  1  0  0  0  0
105104  2  0  0  0  0
105106  1  0  0  0  0
106107  2  0  0  0  0
107108  1  0  0  0  0
107112  1  0  0  0  0
108114  1  0  0  0  0
109201  1  0  0  0  0
109104  1  0  0  0  0
110109  2  0  0  0  0
111110  1  0  0  0  0
111105  1  0  0  0  0
112113  2  0  0  0  0
113114  1  0  0  0  0
113124  1  0  0  0  0
115121  2  0  0  0  0
116106  1  0  0  0  0
116120  1  0  0  0  0
117118  1  0  0  0  0
117116  2  0  0  0  0
118119  2  0  0  0  0
119145  1  0  0  0  0
119120  1  0  0  0  0
121149  1  0  0  0  0
121204  1  0  0  0  0
122149  2  0  0  0  0
123115  1  0  0  0  0
123122  1  0  0  0  0
124125  1  0  0  0  0
124128  2  0  0  0  0
125126  1  0  0  0  0
126127  2  0  0  0  0
126129  1  0  0  0  0
127205  1  0  0  0  0
128127  1  0  0  0  0
129130  2  0  0  0  0
130147  1  0  0  0  0
130131  1  0  0  0  0
131148  1  0  0  0  0
132131  2  0  0  0  0
132138  1  0  0  0  0
133132  1  0  0  0  0
134129  1  0  0  0  0
134133  1  0  0  0  0
135133  2  0  0  0  0
136135  1  0  0  0  0
137136  1  0  0  0  0
137134  2  0  0  0  0
138144  1  0  0  0  0
139136  1  0  0  0  0
139207  1  0  0  0  0
140209  1  0  0  0  0
140139  1  0  0  0  0
141138  2  0  0  0  0
141142  1  0  0  0  0
142213  1  0  0  0  0
142143  2  0  0  0  0
143214  1  0  0  0  0
144143  1  0  0  0  0
146122  1  0  0  0  0
149150  1  0  0  0  0
150215  1  0  0  0  0
150216  1  0  0  0  0
151218  1  0  0  0  0
151118  1  0  0  0  0
152221  1  0  0  0  0
152151  1  0  0  0  0
153223  1  0  0  0  0
153150  1  0  0  0  0
154  7  1  0  0  0  0
159 25  1  0  0  0  0
160 26  1  0  0  0  0
162 37  1  0  0  0  0
165 38  1  0  0  0  0
166 39  1  0  0  0  0
167 40  1  0  0  0  0
168 48  1  0  0  0  0
169 48  1  0  0  0  0
172 50  1  0  0  0  0
174 50  1  0  0  0  0
176 51  1  0  0  0  0
179 61  1  0  0  0  0
180 66  1  0  0  0  0
181 70  1  0  0  0  0
185 88  1  0  0  0  0
187 89  1  0  0  0  0
188 89  1  0  0  0  0
189 90  1  0  0  0  0
190 91  1  0  0  0  0
193100  1  0  0  0  0
194100  1  0  0  0  0
196101  1  0  0  0  0
198102  1  0  0  0  0
200102  1  0  0  0  0
202112  1  0  0  0  0
203117  1  0  0  0  0
206128  1  0  0  0  0
208139  1  0  0  0  0
210140  1  0  0  0  0
211140  1  0  0  0  0
212141  1  0  0  0  0
217151  1  0  0  0  0
219152  1  0  0  0  0
220152  1  0  0  0  0
222153  1  0  0  0  0
224153  1  0  0  0  0
M  END
