SCF done       -396.690622197826          0.000426388493
 OpenBabel12282109573D

224250  0  0  0  0  0  0  0  0999 V2000
    4.9372   -3.6848   -4.1499 C   0  0  0  0  0  0  0  0  0  0  0  0
    5.6897   -4.4967   -5.0173 C   0  0  0  0  0  0  0  0  0  0  0  0
    7.0974   -4.3781   -5.0619 C   0  0  0  0  0  0  0  0  0  0  0  0
    7.8162   -3.4792   -4.2776 C   0  0  0  0  0  0  0  0  0  0  0  0
    7.0588   -2.6391   -3.4388 C   0  0  0  0  0  0  0  0  0  0  0  0
    5.6477   -2.7554   -3.4000 C   0  0  0  0  0  0  0  0  0  0  0  0
    5.2149   -5.4851   -5.9299 C   0  0  0  0  0  0  0  0  0  0  0  0
    6.2074   -6.1014   -6.6015 C   0  0  0  0  0  0  0  0  0  0  0  0
    7.7839   -5.5223   -6.1864 S   0  0  0  0  0  0  0  0  0  0  0  0
    7.5223   -1.6140   -2.5785 C   0  0  0  0  0  0  0  0  0  0  0  0
    6.5313   -0.9859   -1.8840 C   0  0  0  0  0  0  0  0  0  0  0  0
    4.9476   -1.6269   -2.2703 S   0  0  0  0  0  0  0  0  0  0  0  0
    3.4992   -3.8361   -4.0351 C   0  0  0  0  0  0  0  0  0  0  0  0
    9.2634   -3.4291   -4.3229 C   0  0  0  0  0  0  0  0  0  0  0  0
   10.0802   -3.5456   -5.4124 C   0  0  0  0  0  0  0  0  0  0  0  0
   11.4512   -3.4759   -5.0946 C   0  0  0  0  0  0  0  0  0  0  0  0
   11.6928   -3.3255   -3.7643 C   0  0  0  0  0  0  0  0  0  0  0  0
   10.2104   -3.2548   -2.8705 S   0  0  0  0  0  0  0  0  0  0  0  0
    2.7800   -4.9926   -3.9321 C   0  0  0  0  0  0  0  0  0  0  0  0
    1.3916   -4.7772   -3.8199 C   0  0  0  0  0  0  0  0  0  0  0  0
    1.0443   -3.4621   -3.8483 C   0  0  0  0  0  0  0  0  0  0  0  0
    2.4447   -2.4519   -3.9998 S   0  0  0  0  0  0  0  0  0  0  0  0
    6.6760    0.0743   -0.9458 C   0  0  0  0  0  0  0  0  0  0  0  0
    8.2505    0.6588   -0.4986 S   0  0  0  0  0  0  0  0  0  0  0  0
    7.5486    1.8354    0.5749 C   0  0  0  0  0  0  0  0  0  0  0  0
    6.1717    1.7514    0.5680 C   0  0  0  0  0  0  0  0  0  0  0  0
    5.6832    0.7608   -0.2830 C   0  0  0  0  0  0  0  0  0  0  0  0
    8.4072    2.7166    1.3069 C   0  0  0  0  0  0  0  0  0  0  0  0
    7.9884    3.7500    2.1361 C   0  0  0  0  0  0  0  0  0  0  0  0
    8.8606    4.6010    2.8304 C   0  0  0  0  0  0  0  0  0  0  0  0
   10.2465    4.5089    2.7733 C   0  0  0  0  0  0  0  0  0  0  0  0
   10.7005    3.4593    1.9400 C   0  0  0  0  0  0  0  0  0  0  0  0
    9.8157    2.5986    1.2324 C   0  0  0  0  0  0  0  0  0  0  0  0
   11.9486    3.0708    1.6514 N   0  0  0  0  0  0  0  0  0  0  0  0
   11.7961    2.0606    0.8418 N   0  0  0  0  0  0  0  0  0  0  0  0
   10.5695    1.7280    0.5503 N   0  0  0  0  0  0  0  0  0  0  0  0
   11.1662    5.3623    3.4625 C   0  0  0  0  0  0  0  0  0  0  0  0
   12.9188    1.3778    0.2666 C   0  0  0  0  0  0  0  0  0  0  0  0
   13.1350    1.8339   -1.1728 C   0  0  0  0  0  0  0  0  0  0  0  0
   10.9091    6.4550    4.2651 C   0  0  0  0  0  0  0  0  0  0  0  0
   12.0609    7.0526    4.7694 C   0  0  0  0  0  0  0  0  0  0  0  0
   13.2235    6.4278    4.3653 C   0  0  0  0  0  0  0  0  0  0  0  0
   12.8776    5.0739    3.3349 S   0  0  0  0  0  0  0  0  0  0  0  0
   12.9977   -3.1743   -3.0609 C   0  0  0  0  0  0  0  0  0  0  0  0
   -0.3104   -2.8549   -3.7230 C   0  0  0  0  0  0  0  0  0  0  0  0
   -0.4955   -2.1966   -2.3543 C   0  0  0  0  0  0  0  0  0  0  0  0
   13.1795   -1.7487   -2.5349 C   0  0  0  0  0  0  0  0  0  0  0  0
    6.6733    3.9901    2.3096 F   0  0  0  0  0  0  0  0  0  0  0  0
    8.2728    5.5499    3.5865 F   0  0  0  0  0  0  0  0  0  0  0  0
   17.0257    9.0049    6.3306 C   0  0  0  0  0  0  0  0  0  0  0  0
   16.3300    8.0024    5.6279 C   0  0  0  0  0  0  0  0  0  0  0  0
   17.0360    6.9433    5.0076 C   0  0  0  0  0  0  0  0  0  0  0  0
   18.4218    6.8198    5.0534 C   0  0  0  0  0  0  0  0  0  0  0  0
   19.1218    7.8444    5.7251 C   0  0  0  0  0  0  0  0  0  0  0  0
   18.4104    8.9094    6.3315 C   0  0  0  0  0  0  0  0  0  0  0  0
   14.9333    7.9014    5.4291 C   0  0  0  0  0  0  0  0  0  0  0  0
   14.5538    6.8000    4.7160 C   0  0  0  0  0  0  0  0  0  0  0  0
   15.9326    5.8306    4.2376 S   0  0  0  0  0  0  0  0  0  0  0  0
   20.5207    7.9939    5.8900 C   0  0  0  0  0  0  0  0  0  0  0  0
   20.8775    9.0996    6.6056 C   0  0  0  0  0  0  0  0  0  0  0  0
   19.4862   10.0352    7.1110 S   0  0  0  0  0  0  0  0  0  0  0  0
   16.3203   10.0578    7.0337 C   0  0  0  0  0  0  0  0  0  0  0  0
   19.0957    5.6886    4.4485 C   0  0  0  0  0  0  0  0  0  0  0  0
   18.7964    5.0563    3.2743 C   0  0  0  0  0  0  0  0  0  0  0  0
   19.6444    3.9668    2.9926 C   0  0  0  0  0  0  0  0  0  0  0  0
   20.5824    3.7461    3.9529 C   0  0  0  0  0  0  0  0  0  0  0  0
   20.4381    4.9030    5.2346 S   0  0  0  0  0  0  0  0  0  0  0  0
   15.2189    9.9448    7.8345 C   0  0  0  0  0  0  0  0  0  0  0  0
   14.7988   11.1739    8.3808 C   0  0  0  0  0  0  0  0  0  0  0  0
   15.5661   12.2287    7.9929 C   0  0  0  0  0  0  0  0  0  0  0  0
   16.8468   11.7144    6.9449 S   0  0  0  0  0  0  0  0  0  0  0  0
   22.1838    9.5345    6.9636 C   0  0  0  0  0  0  0  0  0  0  0  0
   23.5919    8.5706    6.6333 S   0  0  0  0  0  0  0  0  0  0  0  0
   24.6243    9.7609    7.3746 C   0  0  0  0  0  0  0  0  0  0  0  0
   23.8899   10.8337    7.8364 C   0  0  0  0  0  0  0  0  0  0  0  0
   22.5215   10.7036    7.6096 C   0  0  0  0  0  0  0  0  0  0  0  0
   26.0337    9.5263    7.4602 C   0  0  0  0  0  0  0  0  0  0  0  0
   26.9677   10.4089    7.9870 C   0  0  0  0  0  0  0  0  0  0  0  0
   28.3345   10.1195    8.0898 C   0  0  0  0  0  0  0  0  0  0  0  0
   28.9192    8.9249    7.6853 C   0  0  0  0  0  0  0  0  0  0  0  0
   27.9950    8.0096    7.1200 C   0  0  0  0  0  0  0  0  0  0  0  0
   26.6058    8.3106    7.0145 C   0  0  0  0  0  0  0  0  0  0  0  0
   28.1683    6.7809    6.6112 N   0  0  0  0  0  0  0  0  0  0  0  0
   26.9738    6.4061    6.2444 N   0  0  0  0  0  0  0  0  0  0  0  0
   26.0075    7.2550    6.4524 N   0  0  0  0  0  0  0  0  0  0  0  0
   30.3090    8.6224    7.8400 C   0  0  0  0  0  0  0  0  0  0  0  0
   26.7351    5.1384    5.6153 C   0  0  0  0  0  0  0  0  0  0  0  0
   26.3525    5.3367    4.1528 C   0  0  0  0  0  0  0  0  0  0  0  0
   30.9456    7.4418    7.5147 C   0  0  0  0  0  0  0  0  0  0  0  0
   32.3048    7.4421    7.8244 C   0  0  0  0  0  0  0  0  0  0  0  0
   32.7350    8.6253    8.3855 C   0  0  0  0  0  0  0  0  0  0  0  0
   31.4301    9.7582    8.5338 S   0  0  0  0  0  0  0  0  0  0  0  0
   21.6596    2.7169    3.9892 C   0  0  0  0  0  0  0  0  0  0  0  0
   15.4516   13.6592    8.3922 C   0  0  0  0  0  0  0  0  0  0  0  0
   16.5587   14.0459    9.3752 C   0  0  0  0  0  0  0  0  0  0  0  0
   23.0456    3.3556    3.8788 C   0  0  0  0  0  0  0  0  0  0  0  0
   26.5856   11.6181    8.4425 F   0  0  0  0  0  0  0  0  0  0  0  0
   29.1038   11.0839    8.6346 F   0  0  0  0  0  0  0  0  0  0  0  0
   36.4979   11.2854   10.3203 C   0  0  0  0  0  0  0  0  0  0  0  0
   35.7928   10.2090    9.7471 C   0  0  0  0  0  0  0  0  0  0  0  0
   36.4416    8.9707    9.5210 C   0  0  0  0  0  0  0  0  0  0  0  0
   37.7733    8.7348    9.8450 C   0  0  0  0  0  0  0  0  0  0  0  0
   38.4863    9.8206   10.3940 C   0  0  0  0  0  0  0  0  0  0  0  0
   37.8384   11.0626   10.6069 C   0  0  0  0  0  0  0  0  0  0  0  0
   34.4391   10.1808    9.3356 C   0  0  0  0  0  0  0  0  0  0  0  0
   34.0361    8.9737    8.8439 C   0  0  0  0  0  0  0  0  0  0  0  0
   35.3393    7.7999    8.8413 S   0  0  0  0  0  0  0  0  0  0  0  0
   39.8448    9.8671   10.7880 C   0  0  0  0  0  0  0  0  0  0  0  0
   40.2281   11.0684   11.3096 C   0  0  0  0  0  0  0  0  0  0  0  0
   38.9180   12.2299   11.3209 S   0  0  0  0  0  0  0  0  0  0  0  0
   35.8406   12.5440   10.6096 C   0  0  0  0  0  0  0  0  0  0  0  0
   38.3766    7.4326    9.6430 C   0  0  0  0  0  0  0  0  0  0  0  0
   38.1990    6.5726    8.5960 C   0  0  0  0  0  0  0  0  0  0  0  0
   38.9187    5.3687    8.7317 C   0  0  0  0  0  0  0  0  0  0  0  0
   39.6330    5.2910    9.8868 C   0  0  0  0  0  0  0  0  0  0  0  0
   39.4350    6.7279   10.8344 S   0  0  0  0  0  0  0  0  0  0  0  0
   34.6131   12.7486   11.1739 C   0  0  0  0  0  0  0  0  0  0  0  0
   34.2854   14.1116   11.3157 C   0  0  0  0  0  0  0  0  0  0  0  0
   35.2504   14.9517   10.8526 C   0  0  0  0  0  0  0  0  0  0  0  0
   36.6070   14.0635   10.2407 S   0  0  0  0  0  0  0  0  0  0  0  0
   41.5093   11.4225   11.8169 C   0  0  0  0  0  0  0  0  0  0  0  0
   42.7914   10.2523   11.9020 S   0  0  0  0  0  0  0  0  0  0  0  0
   43.8679   11.4285   12.6001 C   0  0  0  0  0  0  0  0  0  0  0  0
   43.2405   12.6482   12.7445 C   0  0  0  0  0  0  0  0  0  0  0  0
   41.9164   12.6434   12.3073 C   0  0  0  0  0  0  0  0  0  0  0  0
   45.2056   11.0434   12.9382 C   0  0  0  0  0  0  0  0  0  0  0  0
   46.1823   11.8764   13.4656 C   0  0  0  0  0  0  0  0  0  0  0  0
   47.4802   11.4461   13.7812 C   0  0  0  0  0  0  0  0  0  0  0  0
   47.9410   10.1484   13.6068 C   0  0  0  0  0  0  0  0  0  0  0  0
   46.9661    9.2713   13.0686 C   0  0  0  0  0  0  0  0  0  0  0  0
   45.6493    9.7127   12.7503 C   0  0  0  0  0  0  0  0  0  0  0  0
   47.0238    7.9655   12.7660 N   0  0  0  0  0  0  0  0  0  0  0  0
   45.8345    7.6805   12.3136 N   0  0  0  0  0  0  0  0  0  0  0  0
   44.9758    8.6593   12.2753 N   0  0  0  0  0  0  0  0  0  0  0  0
   49.2668    9.7081   13.9338 C   0  0  0  0  0  0  0  0  0  0  0  0
   45.4966    6.3662   11.8472 C   0  0  0  0  0  0  0  0  0  0  0  0
   45.4033    6.3516   10.3253 C   0  0  0  0  0  0  0  0  0  0  0  0
   49.7716    8.4372   13.7857 C   0  0  0  0  0  0  0  0  0  0  0  0
   51.1066    8.3237   14.2023 C   0  0  0  0  0  0  0  0  0  0  0  0
   51.6129    9.5008   14.6638 C   0  0  0  0  0  0  0  0  0  0  0  0
   50.4715   10.7745   14.6004 S   0  0  0  0  0  0  0  0  0  0  0  0
   40.5347    4.2023   10.3584 C   0  0  0  0  0  0  0  0  0  0  0  0
   35.2682   16.4412   10.8576 C   0  0  0  0  0  0  0  0  0  0  0  0
   36.2635   16.9804   11.8868 C   0  0  0  0  0  0  0  0  0  0  0  0
   41.9975    4.6511   10.3444 C   0  0  0  0  0  0  0  0  0  0  0  0
   45.9156   13.1756   13.7028 F   0  0  0  0  0  0  0  0  0  0  0  0
   48.3085   12.3825   14.2858 F   0  0  0  0  0  0  0  0  0  0  0  0
    4.1724   -5.6981   -6.0789 H   0  0  0  0  0  0  0  0  0  0  0  0
    6.1248   -6.8725   -7.3424 H   0  0  0  0  0  0  0  0  0  0  0  0
    8.5531   -1.3284   -2.4761 H   0  0  0  0  0  0  0  0  0  0  0  0
    9.7120   -3.6401   -6.4178 H   0  0  0  0  0  0  0  0  0  0  0  0
   12.2318   -3.5376   -5.8322 H   0  0  0  0  0  0  0  0  0  0  0  0
    3.2356   -5.9664   -3.8955 H   0  0  0  0  0  0  0  0  0  0  0  0
    0.6755   -5.5742   -3.7223 H   0  0  0  0  0  0  0  0  0  0  0  0
    5.5358    2.3822    1.1602 H   0  0  0  0  0  0  0  0  0  0  0  0
    4.6380    0.5461   -0.4207 H   0  0  0  0  0  0  0  0  0  0  0  0
   12.7118    0.3058    0.2950 H   0  0  0  0  0  0  0  0  0  0  0  0
   13.7859    1.6127    0.8859 H   0  0  0  0  0  0  0  0  0  0  0  0
   12.2447    1.6316   -1.7627 H   0  0  0  0  0  0  0  0  0  0  0  0
   13.9739    1.2987   -1.6072 H   0  0  0  0  0  0  0  0  0  0  0  0
   13.3447    2.9003   -1.2028 H   0  0  0  0  0  0  0  0  0  0  0  0
    9.9207    6.8143    4.4812 H   0  0  0  0  0  0  0  0  0  0  0  0
   12.0460    7.9118    5.4146 H   0  0  0  0  0  0  0  0  0  0  0  0
   13.8031   -3.4182   -3.7567 H   0  0  0  0  0  0  0  0  0  0  0  0
   13.0469   -3.8733   -2.2219 H   0  0  0  0  0  0  0  0  0  0  0  0
   -1.0606   -3.6364   -3.8612 H   0  0  0  0  0  0  0  0  0  0  0  0
   -0.4506   -2.1028   -4.5034 H   0  0  0  0  0  0  0  0  0  0  0  0
   -0.3707   -2.9309   -1.5616 H   0  0  0  0  0  0  0  0  0  0  0  0
   -1.4892   -1.7630   -2.2748 H   0  0  0  0  0  0  0  0  0  0  0  0
    0.2416   -1.4092   -2.2141 H   0  0  0  0  0  0  0  0  0  0  0  0
   13.1584   -1.0379   -3.3580 H   0  0  0  0  0  0  0  0  0  0  0  0
   14.1310   -1.6561   -2.0167 H   0  0  0  0  0  0  0  0  0  0  0  0
   12.3770   -1.5004   -1.8438 H   0  0  0  0  0  0  0  0  0  0  0  0
   14.2390    8.6406    5.7815 H   0  0  0  0  0  0  0  0  0  0  0  0
   21.2553    7.3213    5.4870 H   0  0  0  0  0  0  0  0  0  0  0  0
   18.0164    5.3832    2.6110 H   0  0  0  0  0  0  0  0  0  0  0  0
   19.5582    3.3664    2.1041 H   0  0  0  0  0  0  0  0  0  0  0  0
   14.7520    9.0026    8.0610 H   0  0  0  0  0  0  0  0  0  0  0  0
   13.9541   11.2705    9.0401 H   0  0  0  0  0  0  0  0  0  0  0  0
   24.3244   11.6828    8.3290 H   0  0  0  0  0  0  0  0  0  0  0  0
   21.7900   11.4355    7.9037 H   0  0  0  0  0  0  0  0  0  0  0  0
   25.9224    4.6400    6.1499 H   0  0  0  0  0  0  0  0  0  0  0  0
   27.6542    4.5585    5.7105 H   0  0  0  0  0  0  0  0  0  0  0  0
   25.4644    5.9598    4.0873 H   0  0  0  0  0  0  0  0  0  0  0  0
   26.1445    4.3760    3.6916 H   0  0  0  0  0  0  0  0  0  0  0  0
   27.1621    5.8190    3.6105 H   0  0  0  0  0  0  0  0  0  0  0  0
   30.4196    6.6165    7.0723 H   0  0  0  0  0  0  0  0  0  0  0  0
   32.9659    6.6113    7.6518 H   0  0  0  0  0  0  0  0  0  0  0  0
   21.5058    2.0197    3.1629 H   0  0  0  0  0  0  0  0  0  0  0  0
   21.6001    2.1549    4.9252 H   0  0  0  0  0  0  0  0  0  0  0  0
   14.4751   13.8196    8.8540 H   0  0  0  0  0  0  0  0  0  0  0  0
   15.5214   14.2957    7.5066 H   0  0  0  0  0  0  0  0  0  0  0  0
   16.5000   13.4321   10.2712 H   0  0  0  0  0  0  0  0  0  0  0  0
   16.4624   15.0904    9.6609 H   0  0  0  0  0  0  0  0  0  0  0  0
   17.5346   13.8971    8.9186 H   0  0  0  0  0  0  0  0  0  0  0  0
   23.1359    3.9031    2.9432 H   0  0  0  0  0  0  0  0  0  0  0  0
   23.8167    2.5896    3.9112 H   0  0  0  0  0  0  0  0  0  0  0  0
   23.2048    4.0489    4.7016 H   0  0  0  0  0  0  0  0  0  0  0  0
   33.7829   11.0309    9.3828 H   0  0  0  0  0  0  0  0  0  0  0  0
   40.5339    9.0488   10.6880 H   0  0  0  0  0  0  0  0  0  0  0  0
   37.6009    6.8090    7.7347 H   0  0  0  0  0  0  0  0  0  0  0  0
   38.9036    4.5855    7.9943 H   0  0  0  0  0  0  0  0  0  0  0  0
   33.9814   11.9487   11.5169 H   0  0  0  0  0  0  0  0  0  0  0  0
   33.3605   14.4548   11.7445 H   0  0  0  0  0  0  0  0  0  0  0  0
   43.7201   13.5162   13.1564 H   0  0  0  0  0  0  0  0  0  0  0  0
   41.2666   13.5000   12.3431 H   0  0  0  0  0  0  0  0  0  0  0  0
   44.5347    6.0882   12.2843 H   0  0  0  0  0  0  0  0  0  0  0  0
   46.2775    5.6915   12.2012 H   0  0  0  0  0  0  0  0  0  0  0  0
   44.6487    7.0614    9.9965 H   0  0  0  0  0  0  0  0  0  0  0  0
   45.1276    5.3590    9.9822 H   0  0  0  0  0  0  0  0  0  0  0  0
   46.3592    6.6234    9.8842 H   0  0  0  0  0  0  0  0  0  0  0  0
   49.1844    7.6303   13.3897 H   0  0  0  0  0  0  0  0  0  0  0  0
   51.6689    7.4080   14.1627 H   0  0  0  0  0  0  0  0  0  0  0  0
   52.5972    9.6965   15.0410 H   0  0  0  0  0  0  0  0  0  0  0  0
   40.4070    3.3338    9.7089 H   0  0  0  0  0  0  0  0  0  0  0  0
   40.2603    3.9115   11.3758 H   0  0  0  0  0  0  0  0  0  0  0  0
   34.2644   16.8035   11.0889 H   0  0  0  0  0  0  0  0  0  0  0  0
   35.5452   16.8089    9.8663 H   0  0  0  0  0  0  0  0  0  0  0  0
   35.9977   16.6390   12.8847 H   0  0  0  0  0  0  0  0  0  0  0  0
   36.2636   18.0675   11.8788 H   0  0  0  0  0  0  0  0  0  0  0  0
   37.2672   16.6292   11.6581 H   0  0  0  0  0  0  0  0  0  0  0  0
   42.2974    4.9257    9.3355 H   0  0  0  0  0  0  0  0  0  0  0  0
   42.6420    3.8486   10.6953 H   0  0  0  0  0  0  0  0  0  0  0  0
   42.1285    5.5160   10.9909 H   0  0  0  0  0  0  0  0  0  0  0  0
  1 13  1  0  0  0  0
  1  6  2  0  0  0  0
  2  1  1  0  0  0  0
  3  2  2  0  0  0  0
  3  4  1  0  0  0  0
  4  5  2  0  0  0  0
  5  6  1  0  0  0  0
  5 10  1  0  0  0  0
  6 12  1  0  0  0  0
  7  2  1  0  0  0  0
  8  9  1  0  0  0  0
  8  7  2  0  0  0  0
  9  3  1  0  0  0  0
 10150  1  0  0  0  0
 10 11  2  0  0  0  0
 11 23  1  0  0  0  0
 12 11  1  0  0  0  0
 13 22  1  0  0  0  0
 13 19  2  0  0  0  0
 14  4  1  0  0  0  0
 14 18  1  0  0  0  0
 15 16  1  0  0  0  0
 15 14  2  0  0  0  0
 16 17  2  0  0  0  0
 17 44  1  0  0  0  0
 17 18  1  0  0  0  0
 19153  1  0  0  0  0
 19 20  1  0  0  0  0
 20154  1  0  0  0  0
 21 20  2  0  0  0  0
 21 45  1  0  0  0  0
 22 21  1  0  0  0  0
 23 24  1  0  0  0  0
 23 27  2  0  0  0  0
 24 25  1  0  0  0  0
 25 28  1  0  0  0  0
 26 25  2  0  0  0  0
 26155  1  0  0  0  0
 27 26  1  0  0  0  0
 28 29  2  0  0  0  0
 29 48  1  0  0  0  0
 29 30  1  0  0  0  0
 30 49  1  0  0  0  0
 31 30  2  0  0  0  0
 31 37  1  0  0  0  0
 32 31  1  0  0  0  0
 33 28  1  0  0  0  0
 33 32  1  0  0  0  0
 34 32  2  0  0  0  0
 35 34  1  0  0  0  0
 36 35  1  0  0  0  0
 36 33  2  0  0  0  0
 37 40  2  0  0  0  0
 38157  1  0  0  0  0
 38 35  1  0  0  0  0
 38158  1  0  0  0  0
 39 38  1  0  0  0  0
 40162  1  0  0  0  0
 40 41  1  0  0  0  0
 41163  1  0  0  0  0
 42 57  1  0  0  0  0
 42 41  2  0  0  0  0
 43 37  1  0  0  0  0
 43 42  1  0  0  0  0
 44 47  1  0  0  0  0
 44165  1  0  0  0  0
 45 46  1  0  0  0  0
 46169  1  0  0  0  0
 46170  1  0  0  0  0
 46168  1  0  0  0  0
 47172  1  0  0  0  0
 47173  1  0  0  0  0
 50 55  1  0  0  0  0
 50 62  1  0  0  0  0
 51 50  2  0  0  0  0
 52 53  2  0  0  0  0
 52 51  1  0  0  0  0
 53 54  1  0  0  0  0
 54 59  1  0  0  0  0
 54 55  2  0  0  0  0
 55 61  1  0  0  0  0
 56 51  1  0  0  0  0
 56174  1  0  0  0  0
 57 56  2  0  0  0  0
 58 57  1  0  0  0  0
 58 52  1  0  0  0  0
 59 60  2  0  0  0  0
 60 72  1  0  0  0  0
 60 61  1  0  0  0  0
 62 68  2  0  0  0  0
 63 53  1  0  0  0  0
 63 67  1  0  0  0  0
 64 63  2  0  0  0  0
 65 64  1  0  0  0  0
 65 66  2  0  0  0  0
 66 93  1  0  0  0  0
 66 67  1  0  0  0  0
 68178  1  0  0  0  0
 68 69  1  0  0  0  0
 69179  1  0  0  0  0
 70 69  2  0  0  0  0
 70 94  1  0  0  0  0
 71 62  1  0  0  0  0
 71 70  1  0  0  0  0
 72 76  2  0  0  0  0
 73 72  1  0  0  0  0
 73 74  1  0  0  0  0
 74 77  1  0  0  0  0
 74 75  2  0  0  0  0
 75180  1  0  0  0  0
 76 75  1  0  0  0  0
 76181  1  0  0  0  0
 77 78  2  0  0  0  0
 78 79  1  0  0  0  0
 78 97  1  0  0  0  0
 79 98  1  0  0  0  0
 80 86  1  0  0  0  0
 80 79  2  0  0  0  0
 81 80  1  0  0  0  0
 82 81  1  0  0  0  0
 82 77  1  0  0  0  0
 83 81  2  0  0  0  0
 84 85  1  0  0  0  0
 84 83  1  0  0  0  0
 85 82  2  0  0  0  0
 86 92  1  0  0  0  0
 87183  1  0  0  0  0
 87182  1  0  0  0  0
 87 84  1  0  0  0  0
 88 87  1  0  0  0  0
 89 90  1  0  0  0  0
 89 86  2  0  0  0  0
 90 91  2  0  0  0  0
 91 92  1  0  0  0  0
 91106  1  0  0  0  0
 93190  1  0  0  0  0
 94191  1  0  0  0  0
 94 95  1  0  0  0  0
 95194  1  0  0  0  0
 95193  1  0  0  0  0
 96197  1  0  0  0  0
 96 93  1  0  0  0  0
 96198  1  0  0  0  0
 99104  2  0  0  0  0
 99111  1  0  0  0  0
100 99  1  0  0  0  0
101100  2  0  0  0  0
101102  1  0  0  0  0
102103  2  0  0  0  0
103104  1  0  0  0  0
103108  1  0  0  0  0
104110  1  0  0  0  0
105199  1  0  0  0  0
105100  1  0  0  0  0
106105  2  0  0  0  0
107106  1  0  0  0  0
107101  1  0  0  0  0
108109  2  0  0  0  0
109110  1  0  0  0  0
109121  1  0  0  0  0
111117  2  0  0  0  0
112102  1  0  0  0  0
112116  1  0  0  0  0
113114  1  0  0  0  0
113112  2  0  0  0  0
114115  2  0  0  0  0
115142  1  0  0  0  0
115116  1  0  0  0  0
117118  1  0  0  0  0
117203  1  0  0  0  0
118204  1  0  0  0  0
119143  1  0  0  0  0
119118  2  0  0  0  0
120111  1  0  0  0  0
120119  1  0  0  0  0
121122  1  0  0  0  0
121125  2  0  0  0  0
122123  1  0  0  0  0
123124  2  0  0  0  0
123126  1  0  0  0  0
124205  1  0  0  0  0
125206  1  0  0  0  0
125124  1  0  0  0  0
126127  2  0  0  0  0
127146  1  0  0  0  0
127128  1  0  0  0  0
128147  1  0  0  0  0
129128  2  0  0  0  0
129135  1  0  0  0  0
130129  1  0  0  0  0
131126  1  0  0  0  0
131130  1  0  0  0  0
132130  2  0  0  0  0
133132  1  0  0  0  0
134133  1  0  0  0  0
134131  2  0  0  0  0
135141  1  0  0  0  0
136208  1  0  0  0  0
136207  1  0  0  0  0
136133  1  0  0  0  0
137136  1  0  0  0  0
138135  2  0  0  0  0
138139  1  0  0  0  0
139140  2  0  0  0  0
140214  1  0  0  0  0
141140  1  0  0  0  0
142216  1  0  0  0  0
143217  1  0  0  0  0
143144  1  0  0  0  0
144219  1  0  0  0  0
145142  1  0  0  0  0
145223  1  0  0  0  0
145224  1  0  0  0  0
148  7  1  0  0  0  0
149  8  1  0  0  0  0
151 15  1  0  0  0  0
152 16  1  0  0  0  0
156 27  1  0  0  0  0
159 39  1  0  0  0  0
160 39  1  0  0  0  0
161 39  1  0  0  0  0
164 44  1  0  0  0  0
166 45  1  0  0  0  0
167 45  1  0  0  0  0
171 47  1  0  0  0  0
175 59  1  0  0  0  0
176 64  1  0  0  0  0
177 65  1  0  0  0  0
184 88  1  0  0  0  0
185 88  1  0  0  0  0
186 88  1  0  0  0  0
187 89  1  0  0  0  0
188 90  1  0  0  0  0
189 93  1  0  0  0  0
192 94  1  0  0  0  0
195 95  1  0  0  0  0
196 96  1  0  0  0  0
200108  1  0  0  0  0
201113  1  0  0  0  0
202114  1  0  0  0  0
209137  1  0  0  0  0
210137  1  0  0  0  0
211137  1  0  0  0  0
212138  1  0  0  0  0
213139  1  0  0  0  0
215142  1  0  0  0  0
218143  1  0  0  0  0
220144  1  0  0  0  0
221144  1  0  0  0  0
222145  1  0  0  0  0
M  END
