SCF done       -513.804777767399          0.000430230382
 OpenBabel12282109573D

314340  0  0  0  0  0  0  0  0999 V2000
    4.2067   -3.4872   -3.7108 C   0  0  0  0  0  0  0  0  0  0  0  0
    4.9128   -4.3307   -4.5882 C   0  0  0  0  0  0  0  0  0  0  0  0
    6.2961   -4.1297   -4.8105 C   0  0  0  0  0  0  0  0  0  0  0  0
    7.0226   -3.1076   -4.2112 C   0  0  0  0  0  0  0  0  0  0  0  0
    6.3238   -2.2841   -3.3102 C   0  0  0  0  0  0  0  0  0  0  0  0
    4.9415   -2.4854   -3.0836 C   0  0  0  0  0  0  0  0  0  0  0  0
    4.4252   -5.4481   -5.3280 C   0  0  0  0  0  0  0  0  0  0  0  0
    5.3768   -6.0377   -6.0793 C   0  0  0  0  0  0  0  0  0  0  0  0
    6.9301   -5.2903   -5.9443 S   0  0  0  0  0  0  0  0  0  0  0  0
    6.8392   -1.2221   -2.5295 C   0  0  0  0  0  0  0  0  0  0  0  0
    5.9001   -0.5936   -1.7670 C   0  0  0  0  0  0  0  0  0  0  0  0
    4.3105   -1.3047   -1.9642 S   0  0  0  0  0  0  0  0  0  0  0  0
    2.7864   -3.6312   -3.4537 C   0  0  0  0  0  0  0  0  0  0  0  0
    8.4259   -2.8654   -4.4814 C   0  0  0  0  0  0  0  0  0  0  0  0
    9.0297   -1.6569   -4.6989 C   0  0  0  0  0  0  0  0  0  0  0  0
   10.4185   -1.7829   -4.8780 C   0  0  0  0  0  0  0  0  0  0  0  0
   10.9112   -3.0591   -4.7965 C   0  0  0  0  0  0  0  0  0  0  0  0
    9.5935   -4.1492   -4.5064 S   0  0  0  0  0  0  0  0  0  0  0  0
    2.1469   -3.5090   -2.2505 C   0  0  0  0  0  0  0  0  0  0  0  0
    0.7536   -3.6601   -2.3689 C   0  0  0  0  0  0  0  0  0  0  0  0
    0.2878   -3.8835   -3.6382 C   0  0  0  0  0  0  0  0  0  0  0  0
    1.6384   -3.9195   -4.7255 S   0  0  0  0  0  0  0  0  0  0  0  0
    6.1197    0.5002   -0.8838 C   0  0  0  0  0  0  0  0  0  0  0  0
    7.7318    1.0972   -0.6250 S   0  0  0  0  0  0  0  0  0  0  0  0
    7.1455    2.3017    0.4825 C   0  0  0  0  0  0  0  0  0  0  0  0
    5.7751    2.2245    0.6201 C   0  0  0  0  0  0  0  0  0  0  0  0
    5.1998    1.2101   -0.1457 C   0  0  0  0  0  0  0  0  0  0  0  0
    8.0851    3.1779    1.1140 C   0  0  0  0  0  0  0  0  0  0  0  0
    7.7729    4.2068    1.9926 C   0  0  0  0  0  0  0  0  0  0  0  0
    8.7320    5.0137    2.6215 C   0  0  0  0  0  0  0  0  0  0  0  0
   10.1045    4.8798    2.4401 C   0  0  0  0  0  0  0  0  0  0  0  0
   10.4494    3.8574    1.5242 C   0  0  0  0  0  0  0  0  0  0  0  0
    9.4750    3.0374    0.8910 C   0  0  0  0  0  0  0  0  0  0  0  0
   11.6506    3.4488    1.0938 N   0  0  0  0  0  0  0  0  0  0  0  0
   11.3884    2.4680    0.2759 N   0  0  0  0  0  0  0  0  0  0  0  0
   10.1305    2.1694    0.1121 N   0  0  0  0  0  0  0  0  0  0  0  0
    6.4873    4.4735    2.2954 F   0  0  0  0  0  0  0  0  0  0  0  0
    8.2432    5.9547    3.4537 F   0  0  0  0  0  0  0  0  0  0  0  0
   11.1042    5.6414    3.1266 C   0  0  0  0  0  0  0  0  0  0  0  0
   12.4301    1.7389   -0.3937 C   0  0  0  0  0  0  0  0  0  0  0  0
   12.1039    1.5740   -1.8716 C   0  0  0  0  0  0  0  0  0  0  0  0
   10.9405    6.6188    4.0869 C   0  0  0  0  0  0  0  0  0  0  0  0
   12.1438    7.0947    4.5994 C   0  0  0  0  0  0  0  0  0  0  0  0
   13.2520    6.4959    4.0360 C   0  0  0  0  0  0  0  0  0  0  0  0
   12.7915    5.3284    2.8370 S   0  0  0  0  0  0  0  0  0  0  0  0
   12.6670   -3.6687   -4.9639 Si  0  0  0  0  0  0  0  0  0  0  0  0
   13.7717   -2.6746   -3.8002 C   0  0  0  0  0  0  0  0  0  0  0  0
   13.2010   -2.4905   -2.3891 C   0  0  0  0  0  0  0  0  0  0  0  0
   12.6456   -5.4903   -4.4865 C   0  0  0  0  0  0  0  0  0  0  0  0
   13.9762   -6.2182   -4.7044 C   0  0  0  0  0  0  0  0  0  0  0  0
   13.1863   -3.4298   -6.7607 C   0  0  0  0  0  0  0  0  0  0  0  0
   12.2821   -4.1510   -7.7677 C   0  0  0  0  0  0  0  0  0  0  0  0
   -1.4650   -4.1185   -4.2374 Si  0  0  0  0  0  0  0  0  0  0  0  0
   -2.4533   -2.5761   -3.7930 C   0  0  0  0  0  0  0  0  0  0  0  0
   -1.8379   -1.2687   -4.3057 C   0  0  0  0  0  0  0  0  0  0  0  0
   -1.3562   -4.3531   -6.1038 C   0  0  0  0  0  0  0  0  0  0  0  0
   -2.7083   -4.5551   -6.7954 C   0  0  0  0  0  0  0  0  0  0  0  0
   -2.1788   -5.6485   -3.3975 C   0  0  0  0  0  0  0  0  0  0  0  0
   -1.3331   -6.9146   -3.5770 C   0  0  0  0  0  0  0  0  0  0  0  0
   -0.2899   -3.5699   -1.0085 Cl  0  0  0  0  0  0  0  0  0  0  0  0
   11.4258   -0.4217   -5.1707 Cl  0  0  0  0  0  0  0  0  0  0  0  0
   17.1423    7.9604    6.7847 C   0  0  0  0  0  0  0  0  0  0  0  0
   16.4179    7.4638    5.6845 C   0  0  0  0  0  0  0  0  0  0  0  0
   17.0971    6.9469    4.5543 C   0  0  0  0  0  0  0  0  0  0  0  0
   18.4869    6.9174    4.4452 C   0  0  0  0  0  0  0  0  0  0  0  0
   19.2157    7.4157    5.5480 C   0  0  0  0  0  0  0  0  0  0  0  0
   18.5270    7.8980    6.6894 C   0  0  0  0  0  0  0  0  0  0  0  0
   15.0149    7.3379    5.5669 C   0  0  0  0  0  0  0  0  0  0  0  0
   14.6067    6.7477    4.4059 C   0  0  0  0  0  0  0  0  0  0  0  0
   15.9618    6.3192    3.3855 S   0  0  0  0  0  0  0  0  0  0  0  0
   20.6192    7.5511    5.6952 C   0  0  0  0  0  0  0  0  0  0  0  0
   21.0026    8.0723    6.8964 C   0  0  0  0  0  0  0  0  0  0  0  0
   19.6296    8.4517    7.9155 S   0  0  0  0  0  0  0  0  0  0  0  0
   16.4960    8.5277    7.9507 C   0  0  0  0  0  0  0  0  0  0  0  0
   19.1330    6.3878    3.2629 C   0  0  0  0  0  0  0  0  0  0  0  0
   18.6927    6.4509    1.9668 C   0  0  0  0  0  0  0  0  0  0  0  0
   19.5597    5.7987    1.0734 C   0  0  0  0  0  0  0  0  0  0  0  0
   20.6658    5.2166    1.6372 C   0  0  0  0  0  0  0  0  0  0  0  0
   20.6192    5.4909    3.3465 S   0  0  0  0  0  0  0  0  0  0  0  0
   16.8619    8.3989    9.2623 C   0  0  0  0  0  0  0  0  0  0  0  0
   16.0377    9.1441   10.1264 C   0  0  0  0  0  0  0  0  0  0  0  0
   15.0439    9.8676    9.5197 C   0  0  0  0  0  0  0  0  0  0  0  0
   15.1323    9.5959    7.8079 S   0  0  0  0  0  0  0  0  0  0  0  0
   22.3153    8.3083    7.3920 C   0  0  0  0  0  0  0  0  0  0  0  0
   23.7387    8.0854    6.4186 S   0  0  0  0  0  0  0  0  0  0  0  0
   24.7623    8.5533    7.7473 C   0  0  0  0  0  0  0  0  0  0  0  0
   24.0143    8.8561    8.8664 C   0  0  0  0  0  0  0  0  0  0  0  0
   22.6434    8.7235    8.6645 C   0  0  0  0  0  0  0  0  0  0  0  0
   26.1823    8.6229    7.5770 C   0  0  0  0  0  0  0  0  0  0  0  0
   27.0945    8.9030    8.5862 C   0  0  0  0  0  0  0  0  0  0  0  0
   28.4721    9.0326    8.3709 C   0  0  0  0  0  0  0  0  0  0  0  0
   29.0897    8.9130    7.1314 C   0  0  0  0  0  0  0  0  0  0  0  0
   28.1899    8.5882    6.0847 C   0  0  0  0  0  0  0  0  0  0  0  0
   26.7901    8.4381    6.3124 C   0  0  0  0  0  0  0  0  0  0  0  0
   28.3992    8.3617    4.7795 N   0  0  0  0  0  0  0  0  0  0  0  0
   27.2161    8.0975    4.2981 N   0  0  0  0  0  0  0  0  0  0  0  0
   26.2240    8.1251    5.1419 N   0  0  0  0  0  0  0  0  0  0  0  0
   26.6817    9.0742    9.8569 F   0  0  0  0  0  0  0  0  0  0  0  0
   29.2146    9.3112    9.4615 F   0  0  0  0  0  0  0  0  0  0  0  0
   30.4890    9.1243    6.9187 C   0  0  0  0  0  0  0  0  0  0  0  0
   27.0186    7.7779    2.9121 C   0  0  0  0  0  0  0  0  0  0  0  0
   25.9437    8.6707    2.3068 C   0  0  0  0  0  0  0  0  0  0  0  0
   31.1647    9.1181    5.7150 C   0  0  0  0  0  0  0  0  0  0  0  0
   32.5215    9.4148    5.8408 C   0  0  0  0  0  0  0  0  0  0  0  0
   32.9089    9.6446    7.1435 C   0  0  0  0  0  0  0  0  0  0  0  0
   31.5689    9.4894    8.2323 S   0  0  0  0  0  0  0  0  0  0  0  0
   22.0925    4.3236    0.8336 Si  0  0  0  0  0  0  0  0  0  0  0  0
   22.8585    5.4514   -0.4752 C   0  0  0  0  0  0  0  0  0  0  0  0
   22.8185    6.9512   -0.1556 C   0  0  0  0  0  0  0  0  0  0  0  0
   23.3299    3.9057    2.1954 C   0  0  0  0  0  0  0  0  0  0  0  0
   24.1518    5.0875    2.7225 C   0  0  0  0  0  0  0  0  0  0  0  0
   21.4363    2.7425    0.0445 C   0  0  0  0  0  0  0  0  0  0  0  0
   22.4896    1.9583   -0.7443 C   0  0  0  0  0  0  0  0  0  0  0  0
   13.7085   10.9753   10.2133 Si  0  0  0  0  0  0  0  0  0  0  0  0
   14.4112   12.0422   11.5973 C   0  0  0  0  0  0  0  0  0  0  0  0
   15.6709   12.8284   11.2142 C   0  0  0  0  0  0  0  0  0  0  0  0
   13.1366   12.0415    8.7675 C   0  0  0  0  0  0  0  0  0  0  0  0
   12.0167   13.0290    9.1080 C   0  0  0  0  0  0  0  0  0  0  0  0
   12.2837    9.8965   10.8213 C   0  0  0  0  0  0  0  0  0  0  0  0
   12.6841    8.8007   11.8155 C   0  0  0  0  0  0  0  0  0  0  0  0
   16.2855    9.1326   11.8259 Cl  0  0  0  0  0  0  0  0  0  0  0  0
   19.2535    5.7377   -0.6159 Cl  0  0  0  0  0  0  0  0  0  0  0  0
   36.5046   10.7830   10.4164 C   0  0  0  0  0  0  0  0  0  0  0  0
   35.8659   10.5162    9.1888 C   0  0  0  0  0  0  0  0  0  0  0  0
   36.5689   10.6768    7.9696 C   0  0  0  0  0  0  0  0  0  0  0  0
   37.8813   11.1306    7.9003 C   0  0  0  0  0  0  0  0  0  0  0  0
   38.5168   11.4158    9.1261 C   0  0  0  0  0  0  0  0  0  0  0  0
   37.8187   11.2319   10.3455 C   0  0  0  0  0  0  0  0  0  0  0  0
   34.5196   10.1416    8.9727 C   0  0  0  0  0  0  0  0  0  0  0  0
   34.1898    9.9914    7.6572 C   0  0  0  0  0  0  0  0  0  0  0  0
   35.5519   10.3068    6.6007 S   0  0  0  0  0  0  0  0  0  0  0  0
   39.8518   11.8346    9.3432 C   0  0  0  0  0  0  0  0  0  0  0  0
   40.1788   11.9741   10.6606 C   0  0  0  0  0  0  0  0  0  0  0  0
   38.8338   11.5899   11.7153 S   0  0  0  0  0  0  0  0  0  0  0  0
   35.8389   10.5949   11.6889 C   0  0  0  0  0  0  0  0  0  0  0  0
   38.5469   11.3076    6.6257 C   0  0  0  0  0  0  0  0  0  0  0  0
   38.4850   10.4927    5.5289 C   0  0  0  0  0  0  0  0  0  0  0  0
   39.2473   10.9840    4.4529 C   0  0  0  0  0  0  0  0  0  0  0  0
   39.8804   12.1791    4.6742 C   0  0  0  0  0  0  0  0  0  0  0  0
   39.5281   12.7005    6.2917 S   0  0  0  0  0  0  0  0  0  0  0  0
   35.9346   11.3741   12.8103 C   0  0  0  0  0  0  0  0  0  0  0  0
   35.1640   10.8729   13.8748 C   0  0  0  0  0  0  0  0  0  0  0  0
   34.4847    9.7102   13.6189 C   0  0  0  0  0  0  0  0  0  0  0  0
   34.8082    9.2273   11.9876 S   0  0  0  0  0  0  0  0  0  0  0  0
   41.4255   12.3840   11.2109 C   0  0  0  0  0  0  0  0  0  0  0  0
   42.7227   12.9338   10.1922 S   0  0  0  0  0  0  0  0  0  0  0  0
   43.7444   13.1982   11.5761 C   0  0  0  0  0  0  0  0  0  0  0  0
   43.0889   12.8729   12.7451 C   0  0  0  0  0  0  0  0  0  0  0  0
   41.7862   12.4206   12.5396 C   0  0  0  0  0  0  0  0  0  0  0  0
   45.0731   13.7014   11.3877 C   0  0  0  0  0  0  0  0  0  0  0  0
   46.0184   13.8852   12.3871 C   0  0  0  0  0  0  0  0  0  0  0  0
   47.3071   14.3887   12.1525 C   0  0  0  0  0  0  0  0  0  0  0  0
   47.7867   14.7655   10.9055 C   0  0  0  0  0  0  0  0  0  0  0  0
   46.8418   14.5945    9.8630 C   0  0  0  0  0  0  0  0  0  0  0  0
   45.5373   14.0746   10.1043 C   0  0  0  0  0  0  0  0  0  0  0  0
   46.9232   14.8490    8.5483 N   0  0  0  0  0  0  0  0  0  0  0  0
   45.7603   14.5012    8.0738 N   0  0  0  0  0  0  0  0  0  0  0  0
   44.8962   14.0364    8.9308 N   0  0  0  0  0  0  0  0  0  0  0  0
   45.7298   13.5732   13.6652 F   0  0  0  0  0  0  0  0  0  0  0  0
   48.1050   14.5013   13.2330 F   0  0  0  0  0  0  0  0  0  0  0  0
   49.1043   15.2795   10.6655 C   0  0  0  0  0  0  0  0  0  0  0  0
   45.4323   14.6589    6.6855 C   0  0  0  0  0  0  0  0  0  0  0  0
   44.3317   15.7006    6.5220 C   0  0  0  0  0  0  0  0  0  0  0  0
   49.6297   15.6634    9.4534 C   0  0  0  0  0  0  0  0  0  0  0  0
   50.9522   16.1216    9.5480 C   0  0  0  0  0  0  0  0  0  0  0  0
   51.4285   16.0863   10.8237 C   0  0  0  0  0  0  0  0  0  0  0  0
   50.2737   15.4932   11.9381 S   0  0  0  0  0  0  0  0  0  0  0  0
   41.0875   13.1611    3.6473 Si  0  0  0  0  0  0  0  0  0  0  0  0
   40.6163   13.1385    1.8263 C   0  0  0  0  0  0  0  0  0  0  0  0
   39.1881   13.6163    1.5402 C   0  0  0  0  0  0  0  0  0  0  0  0
   41.0472   14.9191    4.3309 C   0  0  0  0  0  0  0  0  0  0  0  0
   41.8215   15.9427    3.4937 C   0  0  0  0  0  0  0  0  0  0  0  0
   42.7953   12.3991    3.9307 C   0  0  0  0  0  0  0  0  0  0  0  0
   43.0224   11.9017    5.3641 C   0  0  0  0  0  0  0  0  0  0  0  0
   33.3017    8.7434   14.6940 Si  0  0  0  0  0  0  0  0  0  0  0  0
   31.7919    9.8322   14.9933 C   0  0  0  0  0  0  0  0  0  0  0  0
   31.1452   10.3679   13.7097 C   0  0  0  0  0  0  0  0  0  0  0  0
   32.8499    7.1980   13.7157 C   0  0  0  0  0  0  0  0  0  0  0  0
   31.8665    6.2637   14.4280 C   0  0  0  0  0  0  0  0  0  0  0  0
   34.1676    8.3000   16.3085 C   0  0  0  0  0  0  0  0  0  0  0  0
   35.5133    7.5892   16.1233 C   0  0  0  0  0  0  0  0  0  0  0  0
   35.0776   11.6735   15.3912 Cl  0  0  0  0  0  0  0  0  0  0  0  0
   39.3780   10.1197    2.9741 Cl  0  0  0  0  0  0  0  0  0  0  0  0
    3.4080   -5.7903   -5.2872 H   0  0  0  0  0  0  0  0  0  0  0  0
    5.2732   -6.8901   -6.7217 H   0  0  0  0  0  0  0  0  0  0  0  0
    7.8756   -0.9395   -2.5106 H   0  0  0  0  0  0  0  0  0  0  0  0
    8.5033   -0.7226   -4.7672 H   0  0  0  0  0  0  0  0  0  0  0  0
    2.6461   -3.3519   -1.3124 H   0  0  0  0  0  0  0  0  0  0  0  0
    5.2058    2.8755    1.2566 H   0  0  0  0  0  0  0  0  0  0  0  0
    4.1461    0.9946   -0.1672 H   0  0  0  0  0  0  0  0  0  0  0  0
   12.5217    0.7549    0.0783 H   0  0  0  0  0  0  0  0  0  0  0  0
   13.3536    2.2989   -0.2366 H   0  0  0  0  0  0  0  0  0  0  0  0
   11.1395    1.0859   -1.9831 H   0  0  0  0  0  0  0  0  0  0  0  0
   12.8646    0.9666   -2.3530 H   0  0  0  0  0  0  0  0  0  0  0  0
   12.0638    2.5411   -2.3663 H   0  0  0  0  0  0  0  0  0  0  0  0
    9.9837    6.9772    4.4155 H   0  0  0  0  0  0  0  0  0  0  0  0
   12.2080    7.8622    5.3488 H   0  0  0  0  0  0  0  0  0  0  0  0
   13.9718   -1.6847   -4.2168 H   0  0  0  0  0  0  0  0  0  0  0  0
   14.7484   -3.1570   -3.7128 H   0  0  0  0  0  0  0  0  0  0  0  0
   12.2546   -1.9568   -2.4298 H   0  0  0  0  0  0  0  0  0  0  0  0
   13.8893   -1.9240   -1.7650 H   0  0  0  0  0  0  0  0  0  0  0  0
   13.0263   -3.4539   -1.9170 H   0  0  0  0  0  0  0  0  0  0  0  0
   11.8718   -6.0168   -5.0519 H   0  0  0  0  0  0  0  0  0  0  0  0
   12.3631   -5.6046   -3.4364 H   0  0  0  0  0  0  0  0  0  0  0  0
   14.2625   -6.1859   -5.7525 H   0  0  0  0  0  0  0  0  0  0  0  0
   13.9007   -7.2610   -4.4038 H   0  0  0  0  0  0  0  0  0  0  0  0
   14.7680   -5.7527   -4.1225 H   0  0  0  0  0  0  0  0  0  0  0  0
   14.2124   -3.7745   -6.9100 H   0  0  0  0  0  0  0  0  0  0  0  0
   13.1942   -2.3664   -7.0141 H   0  0  0  0  0  0  0  0  0  0  0  0
   12.2869   -5.2232   -7.5897 H   0  0  0  0  0  0  0  0  0  0  0  0
   12.6183   -3.9719   -8.7866 H   0  0  0  0  0  0  0  0  0  0  0  0
   11.2571   -3.7984   -7.6784 H   0  0  0  0  0  0  0  0  0  0  0  0
   -2.5618   -2.4959   -2.7088 H   0  0  0  0  0  0  0  0  0  0  0  0
   -3.4709   -2.6538   -4.1838 H   0  0  0  0  0  0  0  0  0  0  0  0
   -0.8368   -1.1368   -3.9017 H   0  0  0  0  0  0  0  0  0  0  0  0
   -2.4420   -0.4146   -4.0075 H   0  0  0  0  0  0  0  0  0  0  0  0
   -1.7680   -1.2757   -5.3907 H   0  0  0  0  0  0  0  0  0  0  0  0
   -0.7205   -5.2108   -6.3407 H   0  0  0  0  0  0  0  0  0  0  0  0
   -0.8623   -3.4934   -6.5649 H   0  0  0  0  0  0  0  0  0  0  0  0
   -3.2144   -5.4314   -6.3981 H   0  0  0  0  0  0  0  0  0  0  0  0
   -2.5787   -4.6928   -7.8668 H   0  0  0  0  0  0  0  0  0  0  0  0
   -3.3506   -3.6923   -6.6383 H   0  0  0  0  0  0  0  0  0  0  0  0
   -3.1844   -5.8508   -3.7744 H   0  0  0  0  0  0  0  0  0  0  0  0
   -2.2983   -5.4712   -2.3261 H   0  0  0  0  0  0  0  0  0  0  0  0
   -1.2310   -7.1631   -4.6304 H   0  0  0  0  0  0  0  0  0  0  0  0
   -1.7912   -7.7605   -3.0691 H   0  0  0  0  0  0  0  0  0  0  0  0
   -0.3378   -6.7665   -3.1644 H   0  0  0  0  0  0  0  0  0  0  0  0
   14.3291    7.6379    6.3355 H   0  0  0  0  0  0  0  0  0  0  0  0
   21.3386    7.2821    4.9448 H   0  0  0  0  0  0  0  0  0  0  0  0
   17.8097    6.9735    1.6498 H   0  0  0  0  0  0  0  0  0  0  0  0
   17.6614    7.7715    9.6101 H   0  0  0  0  0  0  0  0  0  0  0  0
   24.4400    9.1720    9.7996 H   0  0  0  0  0  0  0  0  0  0  0  0
   21.9029    8.9194    9.4197 H   0  0  0  0  0  0  0  0  0  0  0  0
   26.7140    6.7293    2.8404 H   0  0  0  0  0  0  0  0  0  0  0  0
   27.9829    7.9108    2.4190 H   0  0  0  0  0  0  0  0  0  0  0  0
   25.0213    8.5634    2.8714 H   0  0  0  0  0  0  0  0  0  0  0  0
   25.7653    8.3863    1.2739 H   0  0  0  0  0  0  0  0  0  0  0  0
   26.2519    9.7130    2.3341 H   0  0  0  0  0  0  0  0  0  0  0  0
   30.6680    8.9090    4.7859 H   0  0  0  0  0  0  0  0  0  0  0  0
   33.2096    9.4655    5.0154 H   0  0  0  0  0  0  0  0  0  0  0  0
   22.3544    5.3041   -1.4339 H   0  0  0  0  0  0  0  0  0  0  0  0
   23.9006    5.1657   -0.6457 H   0  0  0  0  0  0  0  0  0  0  0  0
   21.7901    7.2957   -0.0892 H   0  0  0  0  0  0  0  0  0  0  0  0
   23.3182    7.5229   -0.9350 H   0  0  0  0  0  0  0  0  0  0  0  0
   23.3053    7.1620    0.7928 H   0  0  0  0  0  0  0  0  0  0  0  0
   24.0308    3.1446    1.8425 H   0  0  0  0  0  0  0  0  0  0  0  0
   22.8074    3.4553    3.0438 H   0  0  0  0  0  0  0  0  0  0  0  0
   24.7510    5.5151    1.9223 H   0  0  0  0  0  0  0  0  0  0  0  0
   24.8179    4.7670    3.5208 H   0  0  0  0  0  0  0  0  0  0  0  0
   23.5008    5.8619    3.1198 H   0  0  0  0  0  0  0  0  0  0  0  0
   20.6108    2.9741   -0.6327 H   0  0  0  0  0  0  0  0  0  0  0  0
   21.0166    2.0799    0.8061 H   0  0  0  0  0  0  0  0  0  0  0  0
   22.9043    2.5716   -1.5402 H   0  0  0  0  0  0  0  0  0  0  0  0
   22.0543    1.0672   -1.1911 H   0  0  0  0  0  0  0  0  0  0  0  0
   23.3041    1.6494   -0.0940 H   0  0  0  0  0  0  0  0  0  0  0  0
   14.6464   11.4335   12.4729 H   0  0  0  0  0  0  0  0  0  0  0  0
   13.6522   12.7541   11.9329 H   0  0  0  0  0  0  0  0  0  0  0  0
   16.4682   12.1499   10.9208 H   0  0  0  0  0  0  0  0  0  0  0  0
   16.0221   13.4251   12.0533 H   0  0  0  0  0  0  0  0  0  0  0  0
   15.4691   13.4963   10.3803 H   0  0  0  0  0  0  0  0  0  0  0  0
   12.7915   11.4060    7.9471 H   0  0  0  0  0  0  0  0  0  0  0  0
   13.9774   12.6086    8.3591 H   0  0  0  0  0  0  0  0  0  0  0  0
   11.1380   12.5001    9.4683 H   0  0  0  0  0  0  0  0  0  0  0  0
   11.7315   13.6076    8.2320 H   0  0  0  0  0  0  0  0  0  0  0  0
   12.3389   13.7206    9.8822 H   0  0  0  0  0  0  0  0  0  0  0  0
   11.7861    9.4167    9.9733 H   0  0  0  0  0  0  0  0  0  0  0  0
   11.5226   10.5209   11.2965 H   0  0  0  0  0  0  0  0  0  0  0  0
   13.3958    8.1156   11.3616 H   0  0  0  0  0  0  0  0  0  0  0  0
   11.8138    8.2297   12.1318 H   0  0  0  0  0  0  0  0  0  0  0  0
   13.1468    9.2341   12.6981 H   0  0  0  0  0  0  0  0  0  0  0  0
   33.7999   10.0025    9.7582 H   0  0  0  0  0  0  0  0  0  0  0  0
   40.5649   12.0140    8.5600 H   0  0  0  0  0  0  0  0  0  0  0  0
   37.9528    9.5600    5.4982 H   0  0  0  0  0  0  0  0  0  0  0  0
   36.4955   12.2884   12.8678 H   0  0  0  0  0  0  0  0  0  0  0  0
   43.5324   12.9623   13.7188 H   0  0  0  0  0  0  0  0  0  0  0  0
   41.1206   12.1228   13.3306 H   0  0  0  0  0  0  0  0  0  0  0  0
   45.0934   13.6945    6.2999 H   0  0  0  0  0  0  0  0  0  0  0  0
   46.3485   14.9622    6.1767 H   0  0  0  0  0  0  0  0  0  0  0  0
   43.4569   15.4007    7.0935 H   0  0  0  0  0  0  0  0  0  0  0  0
   44.0583   15.7894    5.4755 H   0  0  0  0  0  0  0  0  0  0  0  0
   44.6684   16.6705    6.8804 H   0  0  0  0  0  0  0  0  0  0  0  0
   49.0657   15.6084    8.5415 H   0  0  0  0  0  0  0  0  0  0  0  0
   51.5279   16.4631    8.7064 H   0  0  0  0  0  0  0  0  0  0  0  0
   52.3983   16.3762   11.1770 H   0  0  0  0  0  0  0  0  0  0  0  0
   40.7286   12.1358    1.4090 H   0  0  0  0  0  0  0  0  0  0  0  0
   41.3090   13.7682    1.2620 H   0  0  0  0  0  0  0  0  0  0  0  0
   38.4667   12.9719    2.0362 H   0  0  0  0  0  0  0  0  0  0  0  0
   38.9829   13.6003    0.4719 H   0  0  0  0  0  0  0  0  0  0  0  0
   39.0412   14.6311    1.9017 H   0  0  0  0  0  0  0  0  0  0  0  0
   41.4472   14.9327    5.3483 H   0  0  0  0  0  0  0  0  0  0  0  0
   40.0163   15.2705    4.4231 H   0  0  0  0  0  0  0  0  0  0  0  0
   42.8501   15.6220    3.3437 H   0  0  0  0  0  0  0  0  0  0  0  0
   41.8317   16.9155    3.9811 H   0  0  0  0  0  0  0  0  0  0  0  0
   41.3629   16.0581    2.5153 H   0  0  0  0  0  0  0  0  0  0  0  0
   43.5796   13.1208    3.6873 H   0  0  0  0  0  0  0  0  0  0  0  0
   42.9531   11.5554    3.2542 H   0  0  0  0  0  0  0  0  0  0  0  0
   42.8635   12.7006    6.0847 H   0  0  0  0  0  0  0  0  0  0  0  0
   44.0326   11.5156    5.4859 H   0  0  0  0  0  0  0  0  0  0  0  0
   42.3266   11.0996    5.5974 H   0  0  0  0  0  0  0  0  0  0  0  0
   32.0600   10.6872   15.6194 H   0  0  0  0  0  0  0  0  0  0  0  0
   31.0338    9.2827   15.5567 H   0  0  0  0  0  0  0  0  0  0  0  0
   31.8550   10.9745   13.1519 H   0  0  0  0  0  0  0  0  0  0  0  0
   30.2793   10.9836   13.9421 H   0  0  0  0  0  0  0  0  0  0  0  0
   30.8201    9.5528   13.0685 H   0  0  0  0  0  0  0  0  0  0  0  0
   33.7495    6.6255   13.4730 H   0  0  0  0  0  0  0  0  0  0  0  0
   32.4162    7.4763   12.7513 H   0  0  0  0  0  0  0  0  0  0  0  0
   32.2793    5.9214   15.3738 H   0  0  0  0  0  0  0  0  0  0  0  0
   31.6487    5.3913   13.8155 H   0  0  0  0  0  0  0  0  0  0  0  0
   30.9310    6.7782   14.6319 H   0  0  0  0  0  0  0  0  0  0  0  0
   33.5222    7.6607   16.9159 H   0  0  0  0  0  0  0  0  0  0  0  0
   34.3383    9.1966   16.9086 H   0  0  0  0  0  0  0  0  0  0  0  0
   35.3840    6.6553   15.5817 H   0  0  0  0  0  0  0  0  0  0  0  0
   35.9681    7.3660   17.0859 H   0  0  0  0  0  0  0  0  0  0  0  0
   36.1988    8.2170   15.5587 H   0  0  0  0  0  0  0  0  0  0  0  0
  1 13  1  0  0  0  0
  1  6  2  0  0  0  0
  2  1  1  0  0  0  0
  3  2  2  0  0  0  0
  3  4  1  0  0  0  0
  4  5  2  0  0  0  0
  5  6  1  0  0  0  0
  5 10  1  0  0  0  0
  6 12  1  0  0  0  0
  7184  1  0  0  0  0
  7  2  1  0  0  0  0
  8  9  1  0  0  0  0
  8  7  2  0  0  0  0
  9  3  1  0  0  0  0
 10186  1  0  0  0  0
 10 11  2  0  0  0  0
 11 23  1  0  0  0  0
 12 11  1  0  0  0  0
 13 19  2  0  0  0  0
 14  4  1  0  0  0  0
 15 14  2  0  0  0  0
 16 17  2  0  0  0  0
 16 15  1  0  0  0  0
 17 18  1  0  0  0  0
 18 14  1  0  0  0  0
 19188  1  0  0  0  0
 20 19  1  0  0  0  0
 20 60  1  0  0  0  0
 21 20  2  0  0  0  0
 22 21  1  0  0  0  0
 22 13  1  0  0  0  0
 23 24  1  0  0  0  0
 23 27  2  0  0  0  0
 24 25  1  0  0  0  0
 25 26  2  0  0  0  0
 25 28  1  0  0  0  0
 26189  1  0  0  0  0
 27 26  1  0  0  0  0
 28 29  2  0  0  0  0
 29 37  1  0  0  0  0
 29 30  1  0  0  0  0
 30 38  1  0  0  0  0
 31 30  2  0  0  0  0
 31 39  1  0  0  0  0
 32 31  1  0  0  0  0
 33 28  1  0  0  0  0
 33 32  1  0  0  0  0
 34 32  2  0  0  0  0
 35 34  1  0  0  0  0
 36 35  1  0  0  0  0
 36 33  2  0  0  0  0
 39 42  2  0  0  0  0
 40192  1  0  0  0  0
 40191  1  0  0  0  0
 40 35  1  0  0  0  0
 41 40  1  0  0  0  0
 42196  1  0  0  0  0
 42 43  1  0  0  0  0
 43197  1  0  0  0  0
 44 69  1  0  0  0  0
 44 43  2  0  0  0  0
 45 39  1  0  0  0  0
 45 44  1  0  0  0  0
 46 17  1  0  0  0  0
 46 49  1  0  0  0  0
 46 47  1  0  0  0  0
 47199  1  0  0  0  0
 47 48  1  0  0  0  0
 48202  1  0  0  0  0
 48201  1  0  0  0  0
 49204  1  0  0  0  0
 50 49  1  0  0  0  0
 50206  1  0  0  0  0
 50207  1  0  0  0  0
 51 46  1  0  0  0  0
 52212  1  0  0  0  0
 52210  1  0  0  0  0
 52 51  1  0  0  0  0
 53 54  1  0  0  0  0
 53 21  1  0  0  0  0
 53 58  1  0  0  0  0
 54213  1  0  0  0  0
 55216  1  0  0  0  0
 55215  1  0  0  0  0
 55 54  1  0  0  0  0
 56 53  1  0  0  0  0
 57222  1  0  0  0  0
 57220  1  0  0  0  0
 57 56  1  0  0  0  0
 58224  1  0  0  0  0
 59 58  1  0  0  0  0
 59227  1  0  0  0  0
 59226  1  0  0  0  0
 61 16  1  0  0  0  0
 62 74  1  0  0  0  0
 63 62  2  0  0  0  0
 64 63  1  0  0  0  0
 65 64  2  0  0  0  0
 65 66  1  0  0  0  0
 66 71  1  0  0  0  0
 66 67  2  0  0  0  0
 67 62  1  0  0  0  0
 67 73  1  0  0  0  0
 68 63  1  0  0  0  0
 68228  1  0  0  0  0
 69 68  2  0  0  0  0
 70 69  1  0  0  0  0
 70 64  1  0  0  0  0
 71 72  2  0  0  0  0
 72 84  1  0  0  0  0
 72 73  1  0  0  0  0
 74 80  2  0  0  0  0
 75 79  1  0  0  0  0
 75 65  1  0  0  0  0
 76 75  2  0  0  0  0
 77 78  2  0  0  0  0
 77 76  1  0  0  0  0
 78 79  1  0  0  0  0
 80231  1  0  0  0  0
 80 81  1  0  0  0  0
 81121  1  0  0  0  0
 82 81  2  0  0  0  0
 82114  1  0  0  0  0
 83 74  1  0  0  0  0
 83 82  1  0  0  0  0
 84 88  2  0  0  0  0
 85 84  1  0  0  0  0
 85 86  1  0  0  0  0
 86 87  2  0  0  0  0
 87232  1  0  0  0  0
 88 87  1  0  0  0  0
 88233  1  0  0  0  0
 89 86  1  0  0  0  0
 89 90  2  0  0  0  0
 90 98  1  0  0  0  0
 91 90  1  0  0  0  0
 91 99  1  0  0  0  0
 92 91  2  0  0  0  0
 93 94  1  0  0  0  0
 93 92  1  0  0  0  0
 94 89  1  0  0  0  0
 95 93  2  0  0  0  0
 96 95  1  0  0  0  0
 96 97  1  0  0  0  0
 97 94  2  0  0  0  0
100 92  1  0  0  0  0
100106  1  0  0  0  0
101 96  1  0  0  0  0
102238  1  0  0  0  0
102236  1  0  0  0  0
102101  1  0  0  0  0
103104  1  0  0  0  0
103100  2  0  0  0  0
104105  2  0  0  0  0
105130  1  0  0  0  0
105106  1  0  0  0  0
107 78  1  0  0  0  0
107110  1  0  0  0  0
108109  1  0  0  0  0
108107  1  0  0  0  0
109243  1  0  0  0  0
109245  1  0  0  0  0
110111  1  0  0  0  0
110247  1  0  0  0  0
111250  1  0  0  0  0
111249  1  0  0  0  0
112252  1  0  0  0  0
112107  1  0  0  0  0
113255  1  0  0  0  0
113112  1  0  0  0  0
114119  1  0  0  0  0
114115  1  0  0  0  0
115257  1  0  0  0  0
115256  1  0  0  0  0
116115  1  0  0  0  0
116259  1  0  0  0  0
117118  1  0  0  0  0
117114  1  0  0  0  0
118263  1  0  0  0  0
118265  1  0  0  0  0
119267  1  0  0  0  0
119120  1  0  0  0  0
120269  1  0  0  0  0
120270  1  0  0  0  0
122 77  1  0  0  0  0
123135  1  0  0  0  0
124123  2  0  0  0  0
125124  1  0  0  0  0
126125  2  0  0  0  0
126127  1  0  0  0  0
127132  1  0  0  0  0
127128  2  0  0  0  0
128123  1  0  0  0  0
128134  1  0  0  0  0
129124  1  0  0  0  0
129271  1  0  0  0  0
130129  2  0  0  0  0
131130  1  0  0  0  0
131125  1  0  0  0  0
132133  2  0  0  0  0
133145  1  0  0  0  0
133134  1  0  0  0  0
135144  1  0  0  0  0
135141  2  0  0  0  0
136126  1  0  0  0  0
137136  2  0  0  0  0
138139  2  0  0  0  0
138137  1  0  0  0  0
139140  1  0  0  0  0
140136  1  0  0  0  0
141274  1  0  0  0  0
141142  1  0  0  0  0
142182  1  0  0  0  0
143142  2  0  0  0  0
143175  1  0  0  0  0
144143  1  0  0  0  0
145149  2  0  0  0  0
146145  1  0  0  0  0
146147  1  0  0  0  0
147148  2  0  0  0  0
148275  1  0  0  0  0
149148  1  0  0  0  0
149276  1  0  0  0  0
150147  1  0  0  0  0
150151  2  0  0  0  0
151159  1  0  0  0  0
152151  1  0  0  0  0
152160  1  0  0  0  0
153152  2  0  0  0  0
154155  1  0  0  0  0
154153  1  0  0  0  0
155150  1  0  0  0  0
156154  2  0  0  0  0
157156  1  0  0  0  0
157158  1  0  0  0  0
158155  2  0  0  0  0
161153  1  0  0  0  0
161167  1  0  0  0  0
162157  1  0  0  0  0
163162  1  0  0  0  0
163281  1  0  0  0  0
163279  1  0  0  0  0
164165  1  0  0  0  0
164161  2  0  0  0  0
165166  2  0  0  0  0
166284  1  0  0  0  0
166167  1  0  0  0  0
168173  1  0  0  0  0
168171  1  0  0  0  0
168139  1  0  0  0  0
169168  1  0  0  0  0
170169  1  0  0  0  0
170289  1  0  0  0  0
170287  1  0  0  0  0
171291  1  0  0  0  0
171290  1  0  0  0  0
172293  1  0  0  0  0
172171  1  0  0  0  0
173174  1  0  0  0  0
174298  1  0  0  0  0
174299  1  0  0  0  0
174297  1  0  0  0  0
175176  1  0  0  0  0
175180  1  0  0  0  0
176301  1  0  0  0  0
176300  1  0  0  0  0
177303  1  0  0  0  0
177176  1  0  0  0  0
178179  1  0  0  0  0
178175  1  0  0  0  0
179309  1  0  0  0  0
179307  1  0  0  0  0
180311  1  0  0  0  0
180310  1  0  0  0  0
181180  1  0  0  0  0
181313  1  0  0  0  0
183138  1  0  0  0  0
185  8  1  0  0  0  0
187 15  1  0  0  0  0
190 27  1  0  0  0  0
193 41  1  0  0  0  0
194 41  1  0  0  0  0
195 41  1  0  0  0  0
198 47  1  0  0  0  0
200 48  1  0  0  0  0
203 49  1  0  0  0  0
205 50  1  0  0  0  0
208 51  1  0  0  0  0
209 51  1  0  0  0  0
211 52  1  0  0  0  0
214 54  1  0  0  0  0
217 55  1  0  0  0  0
218 56  1  0  0  0  0
219 56  1  0  0  0  0
221 57  1  0  0  0  0
223 58  1  0  0  0  0
225 59  1  0  0  0  0
229 71  1  0  0  0  0
230 76  1  0  0  0  0
234101  1  0  0  0  0
235101  1  0  0  0  0
237102  1  0  0  0  0
239103  1  0  0  0  0
240104  1  0  0  0  0
241108  1  0  0  0  0
242108  1  0  0  0  0
244109  1  0  0  0  0
246110  1  0  0  0  0
248111  1  0  0  0  0
251112  1  0  0  0  0
253113  1  0  0  0  0
254113  1  0  0  0  0
258116  1  0  0  0  0
260116  1  0  0  0  0
261117  1  0  0  0  0
262117  1  0  0  0  0
264118  1  0  0  0  0
266119  1  0  0  0  0
268120  1  0  0  0  0
272132  1  0  0  0  0
273137  1  0  0  0  0
277162  1  0  0  0  0
278162  1  0  0  0  0
280163  1  0  0  0  0
282164  1  0  0  0  0
283165  1  0  0  0  0
285169  1  0  0  0  0
286169  1  0  0  0  0
288170  1  0  0  0  0
292172  1  0  0  0  0
294172  1  0  0  0  0
295173  1  0  0  0  0
296173  1  0  0  0  0
302177  1  0  0  0  0
304177  1  0  0  0  0
305178  1  0  0  0  0
306178  1  0  0  0  0
308179  1  0  0  0  0
312181  1  0  0  0  0
314181  1  0  0  0  0
M  END
