SCF done       -425.746319743659          0.000395072291
 OpenBabel12282109573D

251280  0  0  0  0  0  0  0  0999 V2000
   -1.8056   -7.2680    3.6942 C   0  0  0  0  0  0  0  0  0  0  0  0
   -3.2040   -7.1749    3.8270 C   0  0  0  0  0  0  0  0  0  0  0  0
   -3.8241   -7.5081    5.0540 C   0  0  0  0  0  0  0  0  0  0  0  0
   -3.1268   -7.9394    6.1779 C   0  0  0  0  0  0  0  0  0  0  0  0
   -1.7326   -8.0595    6.0367 C   0  0  0  0  0  0  0  0  0  0  0  0
   -1.1113   -7.7274    4.8103 C   0  0  0  0  0  0  0  0  0  0  0  0
   -4.1513   -6.7852    2.8497 C   0  0  0  0  0  0  0  0  0  0  0  0
   -5.4415   -6.7650    3.2948 C   0  0  0  0  0  0  0  0  0  0  0  0
   -5.5469   -7.2612    4.9732 S   0  0  0  0  0  0  0  0  0  0  0  0
   -0.7807   -8.5007    7.0030 C   0  0  0  0  0  0  0  0  0  0  0  0
    0.4864   -8.4752    6.5448 C   0  0  0  0  0  0  0  0  0  0  0  0
    0.6185   -7.9301    4.9093 S   0  0  0  0  0  0  0  0  0  0  0  0
   -1.1125   -6.8873    2.4808 C   0  0  0  0  0  0  0  0  0  0  0  0
   -3.8246   -8.2362    7.4141 C   0  0  0  0  0  0  0  0  0  0  0  0
   -0.0440   -7.5007    1.8892 C   0  0  0  0  0  0  0  0  0  0  0  0
    0.4112   -6.8378    0.7326 C   0  0  0  0  0  0  0  0  0  0  0  0
   -0.2887   -5.7075    0.4425 C   0  0  0  0  0  0  0  0  0  0  0  0
   -1.5511   -5.4484    1.5997 S   0  0  0  0  0  0  0  0  0  0  0  0
   -5.0211   -8.8782    7.5658 C   0  0  0  0  0  0  0  0  0  0  0  0
   -5.4416   -8.9692    8.9074 C   0  0  0  0  0  0  0  0  0  0  0  0
   -4.5834   -8.3846    9.7861 C   0  0  0  0  0  0  0  0  0  0  0  0
   -3.2138   -7.7162    8.9607 S   0  0  0  0  0  0  0  0  0  0  0  0
   -0.1186   -4.7738   -0.7057 C   0  0  0  0  0  0  0  0  0  0  0  0
   -1.2686   -4.9077   -1.7061 C   0  0  0  0  0  0  0  0  0  0  0  0
   -4.6763   -8.3161   11.2714 C   0  0  0  0  0  0  0  0  0  0  0  0
   -3.6880   -9.2782   11.9340 C   0  0  0  0  0  0  0  0  0  0  0  0
   -6.5865   -6.4412    2.5059 C   0  0  0  0  0  0  0  0  0  0  0  0
   -7.8969   -6.1809    2.8585 C   0  0  0  0  0  0  0  0  0  0  0  0
   -8.7049   -5.9128    1.7413 C   0  0  0  0  0  0  0  0  0  0  0  0
   -8.0450   -5.9661    0.5384 C   0  0  0  0  0  0  0  0  0  0  0  0
   -6.3653   -6.3403    0.7749 S   0  0  0  0  0  0  0  0  0  0  0  0
   -8.4571   -6.2030    4.2453 C   0  0  0  0  0  0  0  0  0  0  0  0
   -8.9791   -7.5967    4.5997 C   0  0  0  0  0  0  0  0  0  0  0  0
   -8.5791   -5.7962   -0.7686 C   0  0  0  0  0  0  0  0  0  0  0  0
  -10.2685   -5.3698   -0.9803 S   0  0  0  0  0  0  0  0  0  0  0  0
  -10.0996   -5.4468   -2.6972 C   0  0  0  0  0  0  0  0  0  0  0  0
   -8.7974   -5.7753   -3.0764 C   0  0  0  0  0  0  0  0  0  0  0  0
   -7.9454   -5.9641   -1.9718 C   0  0  0  0  0  0  0  0  0  0  0  0
  -11.0705   -5.2691   -3.6915 C   0  0  0  0  0  0  0  0  0  0  0  0
  -10.6963   -5.4642   -5.0205 C   0  0  0  0  0  0  0  0  0  0  0  0
   -9.4397   -5.7680   -5.3917 O   0  0  0  0  0  0  0  0  0  0  0  0
   -8.4253   -5.9260   -4.4736 C   0  0  0  0  0  0  0  0  0  0  0  0
  -12.7497   -4.8746   -3.5628 S   0  0  0  0  0  0  0  0  0  0  0  0
  -12.9434   -5.0021   -5.2955 C   0  0  0  0  0  0  0  0  0  0  0  0
  -11.7610   -5.3210   -5.9217 C   0  0  0  0  0  0  0  0  0  0  0  0
  -14.2220   -4.8145   -5.8834 C   0  0  0  0  0  0  0  0  0  0  0  0
  -15.3652   -4.3379   -5.2828 C   0  0  0  0  0  0  0  0  0  0  0  0
  -16.4875   -4.3035   -6.1209 C   0  0  0  0  0  0  0  0  0  0  0  0
  -16.1993   -4.7867   -7.3904 C   0  0  0  0  0  0  0  0  0  0  0  0
  -14.5239   -5.2378   -7.5387 S   0  0  0  0  0  0  0  0  0  0  0  0
  -17.8308   -3.7870   -5.6996 C   0  0  0  0  0  0  0  0  0  0  0  0
  -17.8077   -2.9976   -4.3953 C   0  0  0  0  0  0  0  0  0  0  0  0
   -7.3228   -6.1827   -4.8834 O   0  0  0  0  0  0  0  0  0  0  0  0
  -18.1453   -6.0120  -12.0950 C   0  0  0  0  0  0  0  0  0  0  0  0
  -19.5001   -6.1641  -12.4567 C   0  0  0  0  0  0  0  0  0  0  0  0
  -20.5258   -5.8099  -11.5480 C   0  0  0  0  0  0  0  0  0  0  0  0
  -20.2811   -5.3409  -10.2622 C   0  0  0  0  0  0  0  0  0  0  0  0
  -18.9284   -5.2837   -9.8700 C   0  0  0  0  0  0  0  0  0  0  0  0
  -17.9009   -5.6058  -10.7885 C   0  0  0  0  0  0  0  0  0  0  0  0
  -20.0231   -6.6864  -13.6623 C   0  0  0  0  0  0  0  0  0  0  0  0
  -21.3883   -6.7015  -13.7225 C   0  0  0  0  0  0  0  0  0  0  0  0
  -22.0998   -6.0435  -12.2597 S   0  0  0  0  0  0  0  0  0  0  0  0
  -18.4160   -4.9644   -8.5895 C   0  0  0  0  0  0  0  0  0  0  0  0
  -17.0526   -4.9901   -8.5156 C   0  0  0  0  0  0  0  0  0  0  0  0
  -16.3312   -5.4175  -10.0586 S   0  0  0  0  0  0  0  0  0  0  0  0
  -17.0862   -6.2627  -13.0482 C   0  0  0  0  0  0  0  0  0  0  0  0
  -21.3566   -4.9332   -9.3818 C   0  0  0  0  0  0  0  0  0  0  0  0
  -17.0550   -5.9344  -14.3757 C   0  0  0  0  0  0  0  0  0  0  0  0
  -15.8593   -6.3133  -15.0155 C   0  0  0  0  0  0  0  0  0  0  0  0
  -14.9777   -6.9393  -14.1887 C   0  0  0  0  0  0  0  0  0  0  0  0
  -15.6098   -7.0584  -12.5801 S   0  0  0  0  0  0  0  0  0  0  0  0
  -22.5897   -5.4992   -9.2217 C   0  0  0  0  0  0  0  0  0  0  0  0
  -23.4008   -4.8218   -8.2891 C   0  0  0  0  0  0  0  0  0  0  0  0
  -22.8054   -3.7270   -7.7438 C   0  0  0  0  0  0  0  0  0  0  0  0
  -21.2061   -3.5157   -8.3769 S   0  0  0  0  0  0  0  0  0  0  0  0
  -13.6130   -7.4486  -14.4988 C   0  0  0  0  0  0  0  0  0  0  0  0
  -12.5368   -6.5636  -13.8665 C   0  0  0  0  0  0  0  0  0  0  0  0
  -23.3350   -2.7900   -6.7137 C   0  0  0  0  0  0  0  0  0  0  0  0
  -22.5045   -2.8415   -5.4306 C   0  0  0  0  0  0  0  0  0  0  0  0
  -22.1741   -7.2479  -14.7783 C   0  0  0  0  0  0  0  0  0  0  0  0
  -23.5427   -7.2228  -14.9915 C   0  0  0  0  0  0  0  0  0  0  0  0
  -23.9105   -7.9521  -16.1318 C   0  0  0  0  0  0  0  0  0  0  0  0
  -22.8569   -8.5361  -16.7942 C   0  0  0  0  0  0  0  0  0  0  0  0
  -21.3508   -8.1662  -16.0146 S   0  0  0  0  0  0  0  0  0  0  0  0
  -24.5061   -6.5029  -14.0985 C   0  0  0  0  0  0  0  0  0  0  0  0
  -25.9284   -6.4404  -14.6413 C   0  0  0  0  0  0  0  0  0  0  0  0
  -22.9051   -9.3921  -17.9282 C   0  0  0  0  0  0  0  0  0  0  0  0
  -24.4530   -9.8117  -18.6426 S   0  0  0  0  0  0  0  0  0  0  0  0
  -23.6764  -10.8639  -19.7700 C   0  0  0  0  0  0  0  0  0  0  0  0
  -22.2905  -10.8691  -19.6062 C   0  0  0  0  0  0  0  0  0  0  0  0
  -21.8680  -10.0274  -18.5599 C   0  0  0  0  0  0  0  0  0  0  0  0
  -24.2477  -11.6960  -20.7410 C   0  0  0  0  0  0  0  0  0  0  0  0
  -23.4019  -12.5137  -21.4897 C   0  0  0  0  0  0  0  0  0  0  0  0
  -22.0639  -12.5046  -21.3523 O   0  0  0  0  0  0  0  0  0  0  0  0
  -21.4292  -11.6984  -20.4334 C   0  0  0  0  0  0  0  0  0  0  0  0
  -25.9050  -11.9486  -21.1659 S   0  0  0  0  0  0  0  0  0  0  0  0
  -25.4512  -13.1701  -22.3314 C   0  0  0  0  0  0  0  0  0  0  0  0
  -24.0882  -13.3481  -22.3837 C   0  0  0  0  0  0  0  0  0  0  0  0
  -26.4552  -13.8597  -23.0603 C   0  0  0  0  0  0  0  0  0  0  0  0
  -27.8098  -13.6138  -23.0616 C   0  0  0  0  0  0  0  0  0  0  0  0
  -28.5559  -14.4921  -23.8578 C   0  0  0  0  0  0  0  0  0  0  0  0
  -27.7512  -15.4379  -24.4781 C   0  0  0  0  0  0  0  0  0  0  0  0
  -26.0724  -15.2155  -24.0732 S   0  0  0  0  0  0  0  0  0  0  0  0
  -30.0479  -14.4379  -23.9944 C   0  0  0  0  0  0  0  0  0  0  0  0
  -30.7288  -13.5180  -22.9873 C   0  0  0  0  0  0  0  0  0  0  0  0
  -20.2276  -11.7401  -20.3750 O   0  0  0  0  0  0  0  0  0  0  0  0
  -27.8180  -19.9518  -27.1291 C   0  0  0  0  0  0  0  0  0  0  0  0
  -28.8866  -20.5221  -27.8505 C   0  0  0  0  0  0  0  0  0  0  0  0
  -30.0968  -19.8073  -28.0136 C   0  0  0  0  0  0  0  0  0  0  0  0
  -30.3199  -18.5412  -27.4835 C   0  0  0  0  0  0  0  0  0  0  0  0
  -29.2741  -18.0001  -26.7084 C   0  0  0  0  0  0  0  0  0  0  0  0
  -28.0613  -18.7131  -26.5477 C   0  0  0  0  0  0  0  0  0  0  0  0
  -28.9444  -21.7995  -28.4552 C   0  0  0  0  0  0  0  0  0  0  0  0
  -30.1210  -22.0658  -29.0977 C   0  0  0  0  0  0  0  0  0  0  0  0
  -31.2330  -20.7154  -28.9727 S   0  0  0  0  0  0  0  0  0  0  0  0
  -29.2691  -16.7778  -25.9934 C   0  0  0  0  0  0  0  0  0  0  0  0
  -28.1052  -16.5330  -25.3227 C   0  0  0  0  0  0  0  0  0  0  0  0
  -26.9374  -17.8219  -25.5613 S   0  0  0  0  0  0  0  0  0  0  0  0
  -26.5419  -20.6271  -27.0251 C   0  0  0  0  0  0  0  0  0  0  0  0
  -31.5630  -17.8361  -27.7233 C   0  0  0  0  0  0  0  0  0  0  0  0
  -25.8687  -21.3094  -28.0005 C   0  0  0  0  0  0  0  0  0  0  0  0
  -24.6425  -21.8446  -27.5610 C   0  0  0  0  0  0  0  0  0  0  0  0
  -24.3729  -21.5790  -26.2536 C   0  0  0  0  0  0  0  0  0  0  0  0
  -25.6417  -20.6436  -25.5344 S   0  0  0  0  0  0  0  0  0  0  0  0
  -32.8289  -18.3489  -27.7721 C   0  0  0  0  0  0  0  0  0  0  0  0
  -33.8138  -17.3859  -28.0683 C   0  0  0  0  0  0  0  0  0  0  0  0
  -33.3113  -16.1373  -28.2656 C   0  0  0  0  0  0  0  0  0  0  0  0
  -31.5892  -16.1278  -28.0724 S   0  0  0  0  0  0  0  0  0  0  0  0
  -23.2049  -22.0156  -25.4390 C   0  0  0  0  0  0  0  0  0  0  0  0
  -23.5956  -23.1225  -24.4573 C   0  0  0  0  0  0  0  0  0  0  0  0
  -34.0424  -14.8720  -28.5546 C   0  0  0  0  0  0  0  0  0  0  0  0
  -34.0546  -13.9484  -27.3346 C   0  0  0  0  0  0  0  0  0  0  0  0
  -30.4510  -23.2871  -29.7568 C   0  0  0  0  0  0  0  0  0  0  0  0
  -31.5769  -23.6734  -30.4610 C   0  0  0  0  0  0  0  0  0  0  0  0
  -31.4858  -24.9949  -30.9262 C   0  0  0  0  0  0  0  0  0  0  0  0
  -30.3135  -25.6322  -30.6016 C   0  0  0  0  0  0  0  0  0  0  0  0
  -29.2728  -24.5783  -29.6948 S   0  0  0  0  0  0  0  0  0  0  0  0
  -32.8007  -22.8451  -30.6931 C   0  0  0  0  0  0  0  0  0  0  0  0
  -33.7821  -22.9841  -29.5278 C   0  0  0  0  0  0  0  0  0  0  0  0
  -29.9219  -26.9649  -30.9060 C   0  0  0  0  0  0  0  0  0  0  0  0
  -31.0141  -28.0221  -31.7837 S   0  0  0  0  0  0  0  0  0  0  0  0
  -29.8698  -29.3125  -31.7048 C   0  0  0  0  0  0  0  0  0  0  0  0
  -28.7054  -28.9337  -31.0361 C   0  0  0  0  0  0  0  0  0  0  0  0
  -28.7501  -27.5997  -30.5882 C   0  0  0  0  0  0  0  0  0  0  0  0
  -29.9718  -30.6198  -32.2005 C   0  0  0  0  0  0  0  0  0  0  0  0
  -28.8978  -31.4851  -32.0016 C   0  0  0  0  0  0  0  0  0  0  0  0
  -27.7714  -31.1234  -31.3619 O   0  0  0  0  0  0  0  0  0  0  0  0
  -27.5990  -29.8578  -30.8468 C   0  0  0  0  0  0  0  0  0  0  0  0
  -31.2585  -31.4013  -33.0526 S   0  0  0  0  0  0  0  0  0  0  0  0
  -30.3430  -32.8870  -33.1347 C   0  0  0  0  0  0  0  0  0  0  0  0
  -29.1139  -32.7661  -32.5330 C   0  0  0  0  0  0  0  0  0  0  0  0
  -30.8981  -34.0333  -33.7707 C   0  0  0  0  0  0  0  0  0  0  0  0
  -32.1295  -34.1611  -34.3620 C   0  0  0  0  0  0  0  0  0  0  0  0
  -32.3654  -35.4424  -34.9029 C   0  0  0  0  0  0  0  0  0  0  0  0
  -31.3022  -36.2746  -34.7097 C   0  0  0  0  0  0  0  0  0  0  0  0
  -30.0024  -35.5230  -33.8774 S   0  0  0  0  0  0  0  0  0  0  0  0
  -33.6479  -35.8432  -35.5607 C   0  0  0  0  0  0  0  0  0  0  0  0
  -34.7191  -36.1511  -34.5132 C   0  0  0  0  0  0  0  0  0  0  0  0
  -26.5638  -29.6086  -30.2857 O   0  0  0  0  0  0  0  0  0  0  0  0
   -3.8945   -6.5311    1.8374 H   0  0  0  0  0  0  0  0  0  0  0  0
   -1.0435   -8.8272    7.9920 H   0  0  0  0  0  0  0  0  0  0  0  0
    1.3813   -8.7559    7.0648 H   0  0  0  0  0  0  0  0  0  0  0  0
    0.3816   -8.4199    2.2491 H   0  0  0  0  0  0  0  0  0  0  0  0
    1.2355   -7.1885    0.1370 H   0  0  0  0  0  0  0  0  0  0  0  0
   -5.5685   -9.3063    6.7457 H   0  0  0  0  0  0  0  0  0  0  0  0
   -6.3549   -9.4513    9.2087 H   0  0  0  0  0  0  0  0  0  0  0  0
    0.8293   -4.9962   -1.2002 H   0  0  0  0  0  0  0  0  0  0  0  0
   -0.0809   -3.7441   -0.3405 H   0  0  0  0  0  0  0  0  0  0  0  0
   -1.3188   -5.9233   -2.0921 H   0  0  0  0  0  0  0  0  0  0  0  0
   -1.1249   -4.2255   -2.5400 H   0  0  0  0  0  0  0  0  0  0  0  0
   -2.2159   -4.6742   -1.2251 H   0  0  0  0  0  0  0  0  0  0  0  0
   -5.6951   -8.5713   11.5707 H   0  0  0  0  0  0  0  0  0  0  0  0
   -4.4647   -7.2982   11.6082 H   0  0  0  0  0  0  0  0  0  0  0  0
   -3.8854  -10.3002   11.6179 H   0  0  0  0  0  0  0  0  0  0  0  0
   -3.7768   -9.2251   13.0162 H   0  0  0  0  0  0  0  0  0  0  0  0
   -2.6685   -9.0209   11.6555 H   0  0  0  0  0  0  0  0  0  0  0  0
   -9.7557   -5.6898    1.8130 H   0  0  0  0  0  0  0  0  0  0  0  0
   -9.2796   -5.4867    4.3005 H   0  0  0  0  0  0  0  0  0  0  0  0
   -7.6965   -5.9047    4.9677 H   0  0  0  0  0  0  0  0  0  0  0  0
   -9.7576   -7.8982    3.9024 H   0  0  0  0  0  0  0  0  0  0  0  0
   -9.3908   -7.5981    5.6056 H   0  0  0  0  0  0  0  0  0  0  0  0
   -8.1739   -8.3255    4.5549 H   0  0  0  0  0  0  0  0  0  0  0  0
   -6.9082   -6.2284   -2.0673 H   0  0  0  0  0  0  0  0  0  0  0  0
  -11.6654   -5.4454   -6.9841 H   0  0  0  0  0  0  0  0  0  0  0  0
  -15.3670   -4.0214   -4.2557 H   0  0  0  0  0  0  0  0  0  0  0  0
  -18.5164   -4.6329   -5.5869 H   0  0  0  0  0  0  0  0  0  0  0  0
  -18.2214   -3.1485   -6.4967 H   0  0  0  0  0  0  0  0  0  0  0  0
  -17.5354   -3.6336   -3.5568 H   0  0  0  0  0  0  0  0  0  0  0  0
  -18.7961   -2.5877   -4.2000 H   0  0  0  0  0  0  0  0  0  0  0  0
  -17.1011   -2.1735   -4.4567 H   0  0  0  0  0  0  0  0  0  0  0  0
  -19.4095   -7.0778  -14.4535 H   0  0  0  0  0  0  0  0  0  0  0  0
  -19.0518   -4.7814   -7.7477 H   0  0  0  0  0  0  0  0  0  0  0  0
  -17.8461   -5.3971  -14.8678 H   0  0  0  0  0  0  0  0  0  0  0  0
  -15.6617   -6.1287  -16.0567 H   0  0  0  0  0  0  0  0  0  0  0  0
  -22.8955   -6.3979   -9.7257 H   0  0  0  0  0  0  0  0  0  0  0  0
  -24.3956   -5.1401   -8.0319 H   0  0  0  0  0  0  0  0  0  0  0  0
  -13.4839   -7.4708  -15.5829 H   0  0  0  0  0  0  0  0  0  0  0  0
  -13.5055   -8.4679  -14.1197 H   0  0  0  0  0  0  0  0  0  0  0  0
  -12.6158   -5.5457  -14.2416 H   0  0  0  0  0  0  0  0  0  0  0  0
  -11.5471   -6.9462  -14.1025 H   0  0  0  0  0  0  0  0  0  0  0  0
  -12.6547   -6.5432  -12.7854 H   0  0  0  0  0  0  0  0  0  0  0  0
  -24.3706   -3.0593   -6.4967 H   0  0  0  0  0  0  0  0  0  0  0  0
  -23.3240   -1.7687   -7.1041 H   0  0  0  0  0  0  0  0  0  0  0  0
  -22.5042   -3.8486   -5.0199 H   0  0  0  0  0  0  0  0  0  0  0  0
  -22.9144   -2.1626   -4.6872 H   0  0  0  0  0  0  0  0  0  0  0  0
  -21.4767   -2.5522   -5.6378 H   0  0  0  0  0  0  0  0  0  0  0  0
  -24.9230   -8.0697  -16.4726 H   0  0  0  0  0  0  0  0  0  0  0  0
  -24.1391   -5.4856  -13.9336 H   0  0  0  0  0  0  0  0  0  0  0  0
  -24.5152   -6.9970  -13.1217 H   0  0  0  0  0  0  0  0  0  0  0  0
  -25.9476   -5.9650  -15.6192 H   0  0  0  0  0  0  0  0  0  0  0  0
  -26.5503   -5.8581  -13.9656 H   0  0  0  0  0  0  0  0  0  0  0  0
  -26.3582   -7.4357  -14.7246 H   0  0  0  0  0  0  0  0  0  0  0  0
  -20.8374   -9.9104  -18.2788 H   0  0  0  0  0  0  0  0  0  0  0  0
  -23.6049  -14.0520  -23.0351 H   0  0  0  0  0  0  0  0  0  0  0  0
  -28.2328  -12.8109  -22.4859 H   0  0  0  0  0  0  0  0  0  0  0  0
  -30.4426  -15.4512  -23.8779 H   0  0  0  0  0  0  0  0  0  0  0  0
  -30.2969  -14.1009  -25.0056 H   0  0  0  0  0  0  0  0  0  0  0  0
  -30.4737  -13.8043  -21.9698 H   0  0  0  0  0  0  0  0  0  0  0  0
  -31.8081  -13.5880  -23.1022 H   0  0  0  0  0  0  0  0  0  0  0  0
  -30.4389  -12.4823  -23.1453 H   0  0  0  0  0  0  0  0  0  0  0  0
  -28.1490  -22.5199  -28.3917 H   0  0  0  0  0  0  0  0  0  0  0  0
  -30.1019  -16.1046  -25.9979 H   0  0  0  0  0  0  0  0  0  0  0  0
  -26.2198  -21.3872  -29.0140 H   0  0  0  0  0  0  0  0  0  0  0  0
  -23.9803  -22.4049  -28.1972 H   0  0  0  0  0  0  0  0  0  0  0  0
  -33.0570  -19.3785  -27.5643 H   0  0  0  0  0  0  0  0  0  0  0  0
  -34.8626  -17.6156  -28.1353 H   0  0  0  0  0  0  0  0  0  0  0  0
  -22.8086  -21.1648  -24.8795 H   0  0  0  0  0  0  0  0  0  0  0  0
  -22.4244  -22.3784  -26.1109 H   0  0  0  0  0  0  0  0  0  0  0  0
  -24.3658  -22.7665  -23.7768 H   0  0  0  0  0  0  0  0  0  0  0  0
  -22.7316  -23.4320  -23.8748 H   0  0  0  0  0  0  0  0  0  0  0  0
  -23.9810  -23.9860  -24.9947 H   0  0  0  0  0  0  0  0  0  0  0  0
  -35.0671  -15.1169  -28.8417 H   0  0  0  0  0  0  0  0  0  0  0  0
  -33.5669  -14.3531  -29.3907 H   0  0  0  0  0  0  0  0  0  0  0  0
  -34.5293  -14.4432  -26.4902 H   0  0  0  0  0  0  0  0  0  0  0  0
  -34.6024  -13.0362  -27.5568 H   0  0  0  0  0  0  0  0  0  0  0  0
  -33.0376  -13.6836  -27.0536 H   0  0  0  0  0  0  0  0  0  0  0  0
  -32.2654  -25.4761  -31.4916 H   0  0  0  0  0  0  0  0  0  0  0  0
  -33.2831  -23.1868  -31.6112 H   0  0  0  0  0  0  0  0  0  0  0  0
  -32.5321  -21.7958  -30.8216 H   0  0  0  0  0  0  0  0  0  0  0  0
  -34.0819  -24.0228  -29.4078 H   0  0  0  0  0  0  0  0  0  0  0  0
  -34.6691  -22.3834  -29.7113 H   0  0  0  0  0  0  0  0  0  0  0  0
  -33.3224  -22.6489  -28.6016 H   0  0  0  0  0  0  0  0  0  0  0  0
  -27.9454  -27.1325  -30.0507 H   0  0  0  0  0  0  0  0  0  0  0  0
  -28.3974  -33.5639  -32.4742 H   0  0  0  0  0  0  0  0  0  0  0  0
  -32.8376  -33.3523  -34.4066 H   0  0  0  0  0  0  0  0  0  0  0  0
  -31.2043  -37.2977  -35.0149 H   0  0  0  0  0  0  0  0  0  0  0  0
  -33.4806  -36.7246  -36.1819 H   0  0  0  0  0  0  0  0  0  0  0  0
  -33.9926  -35.0300  -36.2027 H   0  0  0  0  0  0  0  0  0  0  0  0
  -34.3984  -36.9710  -33.8746 H   0  0  0  0  0  0  0  0  0  0  0  0
  -35.6511  -36.4323  -34.9974 H   0  0  0  0  0  0  0  0  0  0  0  0
  -34.9014  -35.2803  -33.8878 H   0  0  0  0  0  0  0  0  0  0  0  0
  1  2  2  0  0  0  0
  1  6  1  0  0  0  0
  2  3  1  0  0  0  0
  3  4  2  0  0  0  0
  4 14  1  0  0  0  0
  5  4  1  0  0  0  0
  5 10  1  0  0  0  0
  6 12  1  0  0  0  0
  6  5  2  0  0  0  0
  7  8  2  0  0  0  0
  7  2  1  0  0  0  0
  8  9  1  0  0  0  0
  9  3  1  0  0  0  0
 10161  1  0  0  0  0
 11 10  2  0  0  0  0
 11162  1  0  0  0  0
 12 11  1  0  0  0  0
 13  1  1  0  0  0  0
 14 19  2  0  0  0  0
 14 22  1  0  0  0  0
 15163  1  0  0  0  0
 15 13  2  0  0  0  0
 16 15  1  0  0  0  0
 17 16  2  0  0  0  0
 17 18  1  0  0  0  0
 18 13  1  0  0  0  0
 19 20  1  0  0  0  0
 20166  1  0  0  0  0
 20 21  2  0  0  0  0
 21 25  1  0  0  0  0
 22 21  1  0  0  0  0
 23168  1  0  0  0  0
 23 17  1  0  0  0  0
 24171  1  0  0  0  0
 24 23  1  0  0  0  0
 25172  1  0  0  0  0
 25173  1  0  0  0  0
 25 26  1  0  0  0  0
 26175  1  0  0  0  0
 27 28  2  0  0  0  0
 27  8  1  0  0  0  0
 28 32  1  0  0  0  0
 29177  1  0  0  0  0
 29 28  1  0  0  0  0
 30 31  1  0  0  0  0
 30 29  2  0  0  0  0
 31 27  1  0  0  0  0
 32178  1  0  0  0  0
 32 33  1  0  0  0  0
 32179  1  0  0  0  0
 33181  1  0  0  0  0
 34 30  1  0  0  0  0
 35 34  1  0  0  0  0
 36 35  1  0  0  0  0
 37 36  2  0  0  0  0
 37 38  1  0  0  0  0
 38 34  2  0  0  0  0
 39 43  1  0  0  0  0
 39 36  1  0  0  0  0
 40 39  2  0  0  0  0
 41 40  1  0  0  0  0
 41 42  1  0  0  0  0
 42 37  1  0  0  0  0
 44 43  1  0  0  0  0
 45 44  2  0  0  0  0
 45 40  1  0  0  0  0
 46 44  1  0  0  0  0
 46 47  2  0  0  0  0
 47185  1  0  0  0  0
 48 51  1  0  0  0  0
 48 47  1  0  0  0  0
 49 48  2  0  0  0  0
 50 49  1  0  0  0  0
 50 46  1  0  0  0  0
 51186  1  0  0  0  0
 51 52  1  0  0  0  0
 52189  1  0  0  0  0
 52188  1  0  0  0  0
 53 42  2  0  0  0  0
 54 59  1  0  0  0  0
 55 54  2  0  0  0  0
 55 56  1  0  0  0  0
 56 57  2  0  0  0  0
 57 58  1  0  0  0  0
 57 67  1  0  0  0  0
 58 63  1  0  0  0  0
 59 65  1  0  0  0  0
 59 58  2  0  0  0  0
 60 55  1  0  0  0  0
 61 60  2  0  0  0  0
 61 62  1  0  0  0  0
 62 56  1  0  0  0  0
 63 64  2  0  0  0  0
 63192  1  0  0  0  0
 64 49  1  0  0  0  0
 65 64  1  0  0  0  0
 66 71  1  0  0  0  0
 66 54  1  0  0  0  0
 67 72  2  0  0  0  0
 67 75  1  0  0  0  0
 68 66  2  0  0  0  0
 69 68  1  0  0  0  0
 69 70  2  0  0  0  0
 70 71  1  0  0  0  0
 72 73  1  0  0  0  0
 73196  1  0  0  0  0
 73 74  2  0  0  0  0
 74 78  1  0  0  0  0
 75 74  1  0  0  0  0
 76 70  1  0  0  0  0
 76198  1  0  0  0  0
 76 77  1  0  0  0  0
 77201  1  0  0  0  0
 78202  1  0  0  0  0
 78 79  1  0  0  0  0
 79204  1  0  0  0  0
 79205  1  0  0  0  0
 80 61  1  0  0  0  0
 81 80  2  0  0  0  0
 81 85  1  0  0  0  0
 82 81  1  0  0  0  0
 83 82  2  0  0  0  0
 83 84  1  0  0  0  0
 84 80  1  0  0  0  0
 85208  1  0  0  0  0
 85209  1  0  0  0  0
 86 85  1  0  0  0  0
 86211  1  0  0  0  0
 87 83  1  0  0  0  0
 88 87  1  0  0  0  0
 89 90  2  0  0  0  0
 89 88  1  0  0  0  0
 90 91  1  0  0  0  0
 91213  1  0  0  0  0
 91 87  2  0  0  0  0
 92 89  1  0  0  0  0
 93 94  1  0  0  0  0
 93 92  2  0  0  0  0
 94 95  1  0  0  0  0
 95106  2  0  0  0  0
 95 90  1  0  0  0  0
 96 92  1  0  0  0  0
 97 96  1  0  0  0  0
 98 97  2  0  0  0  0
 98 93  1  0  0  0  0
 99 97  1  0  0  0  0
100 99  2  0  0  0  0
100215  1  0  0  0  0
101100  1  0  0  0  0
102103  1  0  0  0  0
102101  2  0  0  0  0
103 99  1  0  0  0  0
104216  1  0  0  0  0
104101  1  0  0  0  0
104105  1  0  0  0  0
105218  1  0  0  0  0
107119  1  0  0  0  0
107112  2  0  0  0  0
108107  1  0  0  0  0
109108  2  0  0  0  0
109110  1  0  0  0  0
110111  2  0  0  0  0
111112  1  0  0  0  0
111116  1  0  0  0  0
112118  1  0  0  0  0
113221  1  0  0  0  0
113108  1  0  0  0  0
114115  1  0  0  0  0
114113  2  0  0  0  0
115109  1  0  0  0  0
116117  2  0  0  0  0
117102  1  0  0  0  0
118117  1  0  0  0  0
119124  1  0  0  0  0
120110  1  0  0  0  0
121122  1  0  0  0  0
121119  2  0  0  0  0
122123  2  0  0  0  0
123124  1  0  0  0  0
123129  1  0  0  0  0
125120  2  0  0  0  0
125225  1  0  0  0  0
126125  1  0  0  0  0
127128  1  0  0  0  0
127126  2  0  0  0  0
128120  1  0  0  0  0
129227  1  0  0  0  0
129130  1  0  0  0  0
130230  1  0  0  0  0
130229  1  0  0  0  0
131127  1  0  0  0  0
131132  1  0  0  0  0
132236  1  0  0  0  0
132234  1  0  0  0  0
133137  1  0  0  0  0
133114  1  0  0  0  0
134133  2  0  0  0  0
135136  2  0  0  0  0
135134  1  0  0  0  0
136137  1  0  0  0  0
138134  1  0  0  0  0
138139  1  0  0  0  0
139240  1  0  0  0  0
139242  1  0  0  0  0
140136  1  0  0  0  0
140144  2  0  0  0  0
141142  1  0  0  0  0
141140  1  0  0  0  0
142143  2  0  0  0  0
143148  1  0  0  0  0
143144  1  0  0  0  0
144243  1  0  0  0  0
145146  2  0  0  0  0
145142  1  0  0  0  0
146147  1  0  0  0  0
147148  1  0  0  0  0
148159  2  0  0  0  0
149145  1  0  0  0  0
150149  1  0  0  0  0
150151  2  0  0  0  0
151244  1  0  0  0  0
151146  1  0  0  0  0
152150  1  0  0  0  0
153152  2  0  0  0  0
154155  2  0  0  0  0
154153  1  0  0  0  0
155156  1  0  0  0  0
156152  1  0  0  0  0
157154  1  0  0  0  0
157158  1  0  0  0  0
158251  1  0  0  0  0
158249  1  0  0  0  0
160  7  1  0  0  0  0
164 16  1  0  0  0  0
165 19  1  0  0  0  0
167 23  1  0  0  0  0
169 24  1  0  0  0  0
170 24  1  0  0  0  0
174 26  1  0  0  0  0
176 26  1  0  0  0  0
180 33  1  0  0  0  0
182 33  1  0  0  0  0
183 38  1  0  0  0  0
184 45  1  0  0  0  0
187 51  1  0  0  0  0
190 52  1  0  0  0  0
191 60  1  0  0  0  0
193 68  1  0  0  0  0
194 69  1  0  0  0  0
195 72  1  0  0  0  0
197 76  1  0  0  0  0
199 77  1  0  0  0  0
200 77  1  0  0  0  0
203 78  1  0  0  0  0
206 79  1  0  0  0  0
207 82  1  0  0  0  0
210 86  1  0  0  0  0
212 86  1  0  0  0  0
214 98  1  0  0  0  0
217104  1  0  0  0  0
219105  1  0  0  0  0
220105  1  0  0  0  0
222116  1  0  0  0  0
223121  1  0  0  0  0
224122  1  0  0  0  0
226126  1  0  0  0  0
228129  1  0  0  0  0
231130  1  0  0  0  0
232131  1  0  0  0  0
233131  1  0  0  0  0
235132  1  0  0  0  0
237135  1  0  0  0  0
238138  1  0  0  0  0
239138  1  0  0  0  0
241139  1  0  0  0  0
245153  1  0  0  0  0
246155  1  0  0  0  0
247157  1  0  0  0  0
248157  1  0  0  0  0
250158  1  0  0  0  0
M  END
