P-FP.mol
  xtb     01102215583D
 energy: -464.722194979621 gnorm: 0.000234763771 xtb: 6.4.1 (unknown)
242268  0     0  0            999 V2000
   10.0014   -1.3589    5.5769 F   0  0  0  0  0  0  0  0  0  0  0  0
   10.2828   -0.3214    4.7665 C   0  0  0  0  0  0  0  0  0  0  0  0
    9.5985    0.8740    5.0196 C   0  0  0  0  0  0  0  0  0  0  0  0
    8.7285    0.8641    6.0473 F   0  0  0  0  0  0  0  0  0  0  0  0
    9.7345    2.0215    4.2489 C   0  0  0  0  0  0  0  0  0  0  0  0
    8.8875    3.1699    4.3658 C   0  0  0  0  0  0  0  0  0  0  0  0
    8.8912    4.2835    3.5501 C   0  0  0  0  0  0  0  0  0  0  0  0
    7.8177    5.1416    3.7814 C   0  0  0  0  0  0  0  0  0  0  0  0
    6.9871    4.7041    4.7905 C   0  0  0  0  0  0  0  0  0  0  0  0
    5.7085    5.2252    5.1531 C   0  0  0  0  0  0  0  0  0  0  0  0
    4.8621    4.8784    6.1716 C   0  0  0  0  0  0  0  0  0  0  0  0
    3.6278    5.5335    5.9158 C   0  0  0  0  0  0  0  0  0  0  0  0
    2.3759    5.5221    6.5518 C   0  0  0  0  0  0  0  0  0  0  0  0
    2.0846    4.7720    7.7743 C   0  0  0  0  0  0  0  0  0  0  0  0
    2.5907    3.4901    7.9752 C   0  0  0  0  0  0  0  0  0  0  0  0
    2.2838    2.8117    9.1368 C   0  0  0  0  0  0  0  0  0  0  0  0
    2.7868    1.5709    9.3024 F   0  0  0  0  0  0  0  0  0  0  0  0
    1.4846    3.3402   10.1450 C   0  0  0  0  0  0  0  0  0  0  0  0
    0.9859    4.6144    9.8991 C   0  0  0  0  0  0  0  0  0  0  0  0
    0.1933    5.1876   10.8305 F   0  0  0  0  0  0  0  0  0  0  0  0
    1.2649    5.3296    8.7528 C   0  0  0  0  0  0  0  0  0  0  0  0
    1.1479    2.5639   11.3834 C   0  0  0  0  0  0  0  0  0  0  0  0
   -0.0291    1.6203   11.1251 C   0  0  0  0  0  0  0  0  0  0  0  0
    1.3911    6.2386    5.8831 C   0  0  0  0  0  0  0  0  0  0  0  0
    1.6005    6.9524    4.6737 C   0  0  0  0  0  0  0  0  0  0  0  0
    0.3050    7.3461    4.2465 C   0  0  0  0  0  0  0  0  0  0  0  0
   -0.5766    6.8703    5.1798 C   0  0  0  0  0  0  0  0  0  0  0  0
   -2.0022    6.8052    5.1402 C   0  0  0  0  0  0  0  0  0  0  0  0
   -2.8695    6.3923    6.1278 C   0  0  0  0  0  0  0  0  0  0  0  0
   -4.1790    6.2401    5.6730 C   0  0  0  0  0  0  0  0  0  0  0  0
   -4.3269    6.5140    4.3281 C   0  0  0  0  0  0  0  0  0  0  0  0
   -5.4751    6.2425    3.5166 C   0  0  0  0  0  0  0  0  0  0  0  0
   -6.6570    5.6608    4.0415 C   0  0  0  0  0  0  0  0  0  0  0  0
   -7.0239    5.4328    5.3096 N   0  0  0  0  0  0  0  0  0  0  0  0
   -5.4904    6.3756    2.1338 C   0  0  0  0  0  0  0  0  0  0  0  0
   -4.4514    6.9632    1.5102 F   0  0  0  0  0  0  0  0  0  0  0  0
   -6.5061    5.8706    1.3134 C   0  0  0  0  0  0  0  0  0  0  0  0
   -6.3374    6.0209   -0.0139 F   0  0  0  0  0  0  0  0  0  0  0  0
   -7.6238    5.1983    1.7902 C   0  0  0  0  0  0  0  0  0  0  0  0
   -7.7021    5.1624    3.2052 C   0  0  0  0  0  0  0  0  0  0  0  0
   -8.6468    4.6589    4.0106 N   0  0  0  0  0  0  0  0  0  0  0  0
   -8.1890    4.8564    5.2148 N   0  0  0  0  0  0  0  0  0  0  0  0
   -8.9066    4.4146    6.3763 C   0  0  0  0  0  0  0  0  0  0  0  0
   -8.5433    2.9698    6.7066 C   0  0  0  0  0  0  0  0  0  0  0  0
   -8.5524    4.5011    0.9513 C   0  0  0  0  0  0  0  0  0  0  0  0
   -9.7288    3.8896    1.3361 C   0  0  0  0  0  0  0  0  0  0  0  0
  -10.3319    3.1592    0.3134 C   0  0  0  0  0  0  0  0  0  0  0  0
   -9.6164    3.1976   -0.8649 C   0  0  0  0  0  0  0  0  0  0  0  0
   -9.8382    2.4897   -2.0817 C   0  0  0  0  0  0  0  0  0  0  0  0
  -10.7889    1.5731   -2.4473 C   0  0  0  0  0  0  0  0  0  0  0  0
  -10.4338    1.1165   -3.7458 C   0  0  0  0  0  0  0  0  0  0  0  0
  -10.9721    0.1507   -4.6121 C   0  0  0  0  0  0  0  0  0  0  0  0
  -12.2034   -0.5859   -4.3243 C   0  0  0  0  0  0  0  0  0  0  0  0
  -13.2981    0.0618   -3.7565 C   0  0  0  0  0  0  0  0  0  0  0  0
  -14.4514   -0.6494   -3.4948 C   0  0  0  0  0  0  0  0  0  0  0  0
  -15.4938    0.0116   -2.9448 F   0  0  0  0  0  0  0  0  0  0  0  0
  -14.5887   -2.0067   -3.7599 C   0  0  0  0  0  0  0  0  0  0  0  0
  -13.4764   -2.6153   -4.3335 C   0  0  0  0  0  0  0  0  0  0  0  0
  -13.5398   -3.9335   -4.6074 F   0  0  0  0  0  0  0  0  0  0  0  0
  -12.3066   -1.9432   -4.6203 C   0  0  0  0  0  0  0  0  0  0  0  0
  -15.8604   -2.7582   -3.5007 C   0  0  0  0  0  0  0  0  0  0  0  0
  -16.7037   -2.8384   -4.7755 C   0  0  0  0  0  0  0  0  0  0  0  0
  -10.2260   -0.0587   -5.7649 C   0  0  0  0  0  0  0  0  0  0  0  0
   -9.0515    0.6655   -6.1051 C   0  0  0  0  0  0  0  0  0  0  0  0
   -8.6170    0.1116   -7.3382 C   0  0  0  0  0  0  0  0  0  0  0  0
   -9.5195   -0.8659   -7.6682 C   0  0  0  0  0  0  0  0  0  0  0  0
   -9.5553   -1.7633   -8.7745 C   0  0  0  0  0  0  0  0  0  0  0  0
  -10.8107   -2.9486   -8.8967 S   0  0  0  0  0  0  0  0  0  0  0  0
   -8.6661   -1.8553   -9.8249 C   0  0  0  0  0  0  0  0  0  0  0  0
   -8.9861   -2.8749  -10.7178 C   0  0  0  0  0  0  0  0  0  0  0  0
  -10.1230   -3.5748  -10.3657 C   0  0  0  0  0  0  0  0  0  0  0  0
  -10.6937   -4.6840  -11.0709 C   0  0  0  0  0  0  0  0  0  0  0  0
  -10.0870   -5.2405  -12.2257 C   0  0  0  0  0  0  0  0  0  0  0  0
   -8.9597   -4.8977  -12.8643 N   0  0  0  0  0  0  0  0  0  0  0  0
  -11.8691   -5.3224  -10.7018 C   0  0  0  0  0  0  0  0  0  0  0  0
  -12.5496   -4.8891   -9.6234 F   0  0  0  0  0  0  0  0  0  0  0  0
  -12.4170   -6.4152  -11.3889 C   0  0  0  0  0  0  0  0  0  0  0  0
  -13.5668   -6.9149  -10.8961 F   0  0  0  0  0  0  0  0  0  0  0  0
  -11.8453   -6.9879  -12.5157 C   0  0  0  0  0  0  0  0  0  0  0  0
  -10.6431   -6.3557  -12.9226 C   0  0  0  0  0  0  0  0  0  0  0  0
   -9.8233   -6.6292  -13.9473 N   0  0  0  0  0  0  0  0  0  0  0  0
   -8.8706   -5.7462  -13.8494 N   0  0  0  0  0  0  0  0  0  0  0  0
   -7.8028   -5.6799  -14.8060 C   0  0  0  0  0  0  0  0  0  0  0  0
   -8.1570   -4.7152  -15.9338 C   0  0  0  0  0  0  0  0  0  0  0  0
  -12.3930   -8.1129  -13.2181 C   0  0  0  0  0  0  0  0  0  0  0  0
  -11.8712   -8.7240  -14.3348 C   0  0  0  0  0  0  0  0  0  0  0  0
  -12.6432   -9.8072  -14.7804 C   0  0  0  0  0  0  0  0  0  0  0  0
  -13.7449  -10.0179  -14.0076 C   0  0  0  0  0  0  0  0  0  0  0  0
  -13.8650   -8.8992  -12.7190 S   0  0  0  0  0  0  0  0  0  0  0  0
  -10.5008   -0.9666   -6.7291 O   0  0  0  0  0  0  0  0  0  0  0  0
   -8.5286    1.6511   -5.2528 C   0  0  0  0  0  0  0  0  0  0  0  0
   -7.3304    2.4337   -5.5601 C   0  0  0  0  0  0  0  0  0  0  0  0
   -6.4020    2.7294   -4.5644 C   0  0  0  0  0  0  0  0  0  0  0  0
   -5.2820    3.4720   -4.8753 C   0  0  0  0  0  0  0  0  0  0  0  0
   -5.0217    3.9678   -6.1489 C   0  0  0  0  0  0  0  0  0  0  0  0
   -5.9738    3.6563   -7.1124 C   0  0  0  0  0  0  0  0  0  0  0  0
   -5.7900    4.1086   -8.3726 F   0  0  0  0  0  0  0  0  0  0  0  0
   -7.1056    2.9119   -6.8489 C   0  0  0  0  0  0  0  0  0  0  0  0
   -3.7804    4.7494   -6.4615 C   0  0  0  0  0  0  0  0  0  0  0  0
   -2.6226    3.8079   -6.8018 C   0  0  0  0  0  0  0  0  0  0  0  0
   -4.3927    3.7274   -3.8952 F   0  0  0  0  0  0  0  0  0  0  0  0
   -9.2415    1.8162   -4.0726 C   0  0  0  0  0  0  0  0  0  0  0  0
   -8.9106    2.6548   -3.0660 O   0  0  0  0  0  0  0  0  0  0  0  0
   -8.2019    4.1843   -0.7216 S   0  0  0  0  0  0  0  0  0  0  0  0
   -2.8205    7.0393    3.6330 S   0  0  0  0  0  0  0  0  0  0  0  0
    0.0736    6.2383    6.1990 O   0  0  0  0  0  0  0  0  0  0  0  0
    2.8702    7.0297    4.0781 C   0  0  0  0  0  0  0  0  0  0  0  0
    3.1329    7.8039    2.8656 C   0  0  0  0  0  0  0  0  0  0  0  0
    2.5136    9.0375    2.6724 C   0  0  0  0  0  0  0  0  0  0  0  0
    2.7777    9.7632    1.5293 C   0  0  0  0  0  0  0  0  0  0  0  0
    2.1678   10.9581    1.3784 F   0  0  0  0  0  0  0  0  0  0  0  0
    3.6487    9.3331    0.5343 C   0  0  0  0  0  0  0  0  0  0  0  0
    3.8872   10.1202   -0.7197 C   0  0  0  0  0  0  0  0  0  0  0  0
    2.8864    9.7138   -1.8043 C   0  0  0  0  0  0  0  0  0  0  0  0
    4.2496    8.1007    0.7662 C   0  0  0  0  0  0  0  0  0  0  0  0
    5.1124    7.6225   -0.1569 F   0  0  0  0  0  0  0  0  0  0  0  0
    4.0179    7.3413    1.8941 C   0  0  0  0  0  0  0  0  0  0  0  0
    3.8429    6.2753    4.7220 C   0  0  0  0  0  0  0  0  0  0  0  0
    5.1135    6.0988    4.2911 O   0  0  0  0  0  0  0  0  0  0  0  0
    7.5545    3.2234    5.4842 S   0  0  0  0  0  0  0  0  0  0  0  0
   10.7162    1.9071    3.2319 C   0  0  0  0  0  0  0  0  0  0  0  0
   11.1541    2.8092    2.3435 N   0  0  0  0  0  0  0  0  0  0  0  0
   12.0408    2.1684    1.6358 N   0  0  0  0  0  0  0  0  0  0  0  0
   12.7227    2.7946    0.5393 C   0  0  0  0  0  0  0  0  0  0  0  0
   11.8829    2.7029   -0.7314 C   0  0  0  0  0  0  0  0  0  0  0  0
   11.1807   -0.4939    3.7208 C   0  0  0  0  0  0  0  0  0  0  0  0
   11.4177    0.6901    2.9769 C   0  0  0  0  0  0  0  0  0  0  0  0
   12.2437    0.9193    1.9467 N   0  0  0  0  0  0  0  0  0  0  0  0
   11.7536   -1.7550    3.3571 C   0  0  0  0  0  0  0  0  0  0  0  0
   12.6462   -1.9896    2.3297 C   0  0  0  0  0  0  0  0  0  0  0  0
   12.9307   -3.3403    2.1434 C   0  0  0  0  0  0  0  0  0  0  0  0
   12.2581   -4.1566    3.0286 C   0  0  0  0  0  0  0  0  0  0  0  0
   11.2782   -3.2421    4.1226 S   0  0  0  0  0  0  0  0  0  0  0  0
   12.2462   -5.5809    3.0878 C   0  0  0  0  0  0  0  0  0  0  0  0
   12.8188   -6.5181    2.2688 C   0  0  0  0  0  0  0  0  0  0  0  0
   12.4117   -7.7887    2.7597 C   0  0  0  0  0  0  0  0  0  0  0  0
   11.6070   -7.5066    3.8958 C   0  0  0  0  0  0  0  0  0  0  0  0
   11.5113   -6.1692    4.0717 O   0  0  0  0  0  0  0  0  0  0  0  0
   11.0404   -8.4737    4.7161 C   0  0  0  0  0  0  0  0  0  0  0  0
   10.2313   -8.1316    5.8876 C   0  0  0  0  0  0  0  0  0  0  0  0
    9.3231   -7.0771    5.8375 C   0  0  0  0  0  0  0  0  0  0  0  0
    8.5661   -6.7764    6.9513 C   0  0  0  0  0  0  0  0  0  0  0  0
    7.6810   -5.7639    6.8667 F   0  0  0  0  0  0  0  0  0  0  0  0
    8.6678   -7.4673    8.1545 C   0  0  0  0  0  0  0  0  0  0  0  0
    7.8103   -7.1410    9.3409 C   0  0  0  0  0  0  0  0  0  0  0  0
    6.5075   -7.9435    9.3000 C   0  0  0  0  0  0  0  0  0  0  0  0
    9.5933   -8.5044    8.1669 C   0  0  0  0  0  0  0  0  0  0  0  0
    9.7524   -9.2142    9.3052 F   0  0  0  0  0  0  0  0  0  0  0  0
   10.3658   -8.8459    7.0757 C   0  0  0  0  0  0  0  0  0  0  0  0
   11.3131   -9.7917    4.3229 C   0  0  0  0  0  0  0  0  0  0  0  0
   10.8954  -11.0701    4.8080 C   0  0  0  0  0  0  0  0  0  0  0  0
   11.4472  -11.9853    3.9801 C   0  0  0  0  0  0  0  0  0  0  0  0
   12.1837  -11.4165    3.0002 O   0  0  0  0  0  0  0  0  0  0  0  0
   12.1101  -10.0763    3.1850 C   0  0  0  0  0  0  0  0  0  0  0  0
   12.6724   -9.1075    2.3586 C   0  0  0  0  0  0  0  0  0  0  0  0
   13.4303   -9.4467    1.1544 C   0  0  0  0  0  0  0  0  0  0  0  0
   13.2617   -8.7110   -0.0170 C   0  0  0  0  0  0  0  0  0  0  0  0
   13.9664   -9.0606   -1.1500 C   0  0  0  0  0  0  0  0  0  0  0  0
   13.7771   -8.3273   -2.2688 F   0  0  0  0  0  0  0  0  0  0  0  0
   14.8597  -10.1249   -1.1976 C   0  0  0  0  0  0  0  0  0  0  0  0
   15.5802  -10.5110   -2.4549 C   0  0  0  0  0  0  0  0  0  0  0  0
   14.7412  -11.4984   -3.2699 C   0  0  0  0  0  0  0  0  0  0  0  0
   14.9937  -10.8392   -0.0116 C   0  0  0  0  0  0  0  0  0  0  0  0
   15.8437  -11.8873    0.0131 F   0  0  0  0  0  0  0  0  0  0  0  0
   14.3086  -10.5277    1.1447 C   0  0  0  0  0  0  0  0  0  0  0  0
    9.6425    4.4345    2.7980 H   0  0  0  0  0  0  0  0  0  0  0  0
    7.6308    6.0443    3.2285 H   0  0  0  0  0  0  0  0  0  0  0  0
    5.1071    4.2334    6.9895 H   0  0  0  0  0  0  0  0  0  0  0  0
    3.1921    3.0036    7.2252 H   0  0  0  0  0  0  0  0  0  0  0  0
    0.8518    6.3176    8.6321 H   0  0  0  0  0  0  0  0  0  0  0  0
    0.8909    3.2562   12.1864 H   0  0  0  0  0  0  0  0  0  0  0  0
    2.0173    1.9786   11.6886 H   0  0  0  0  0  0  0  0  0  0  0  0
   -0.9054    2.1835   10.8111 H   0  0  0  0  0  0  0  0  0  0  0  0
   -0.2739    1.0734   12.0320 H   0  0  0  0  0  0  0  0  0  0  0  0
    0.2230    0.9048   10.3458 H   0  0  0  0  0  0  0  0  0  0  0  0
    0.0424    7.8608    3.3455 H   0  0  0  0  0  0  0  0  0  0  0  0
   -2.5490    6.1921    7.1342 H   0  0  0  0  0  0  0  0  0  0  0  0
   -5.0018    5.9105    6.2794 H   0  0  0  0  0  0  0  0  0  0  0  0
   -8.6357    5.0768    7.2004 H   0  0  0  0  0  0  0  0  0  0  0  0
   -9.9728    4.5001    6.1587 H   0  0  0  0  0  0  0  0  0  0  0  0
   -7.4789    2.8872    6.9120 H   0  0  0  0  0  0  0  0  0  0  0  0
   -8.7915    2.3207    5.8705 H   0  0  0  0  0  0  0  0  0  0  0  0
   -9.0958    2.6416    7.5821 H   0  0  0  0  0  0  0  0  0  0  0  0
  -10.1113    3.9703    2.3364 H   0  0  0  0  0  0  0  0  0  0  0  0
  -11.2470    2.6075    0.4265 H   0  0  0  0  0  0  0  0  0  0  0  0
  -11.6123    1.2457   -1.8483 H   0  0  0  0  0  0  0  0  0  0  0  0
  -13.2702    1.1186   -3.5464 H   0  0  0  0  0  0  0  0  0  0  0  0
  -11.4847   -2.4815   -5.0619 H   0  0  0  0  0  0  0  0  0  0  0  0
  -16.4283   -2.2534   -2.7178 H   0  0  0  0  0  0  0  0  0  0  0  0
  -15.6195   -3.7687   -3.1651 H   0  0  0  0  0  0  0  0  0  0  0  0
  -16.1553   -3.3539   -5.5604 H   0  0  0  0  0  0  0  0  0  0  0  0
  -17.6239   -3.3828   -4.5799 H   0  0  0  0  0  0  0  0  0  0  0  0
  -16.9577   -1.8403   -5.1258 H   0  0  0  0  0  0  0  0  0  0  0  0
   -7.7419    0.3758   -7.8933 H   0  0  0  0  0  0  0  0  0  0  0  0
   -7.8167   -1.2062   -9.9334 H   0  0  0  0  0  0  0  0  0  0  0  0
   -8.4197   -3.1159  -11.5976 H   0  0  0  0  0  0  0  0  0  0  0  0
   -6.9084   -5.3405  -14.2800 H   0  0  0  0  0  0  0  0  0  0  0  0
   -7.6503   -6.6876  -15.1961 H   0  0  0  0  0  0  0  0  0  0  0  0
   -8.3276   -3.7185  -15.5347 H   0  0  0  0  0  0  0  0  0  0  0  0
   -7.3424   -4.6716  -16.6508 H   0  0  0  0  0  0  0  0  0  0  0  0
   -9.0570   -5.0483  -16.4447 H   0  0  0  0  0  0  0  0  0  0  0  0
  -10.9635   -8.3892  -14.8001 H   0  0  0  0  0  0  0  0  0  0  0  0
  -12.3933  -10.4064  -15.6376 H   0  0  0  0  0  0  0  0  0  0  0  0
  -14.4991  -10.7715  -14.1210 H   0  0  0  0  0  0  0  0  0  0  0  0
   -6.5377    2.3814   -3.5541 H   0  0  0  0  0  0  0  0  0  0  0  0
   -7.8176    2.7358   -7.6386 H   0  0  0  0  0  0  0  0  0  0  0  0
   -3.5097    5.3549   -5.5950 H   0  0  0  0  0  0  0  0  0  0  0  0
   -3.9718    5.4112   -7.3075 H   0  0  0  0  0  0  0  0  0  0  0  0
   -2.4100    3.1504   -5.9619 H   0  0  0  0  0  0  0  0  0  0  0  0
   -2.8705    3.1983   -7.6680 H   0  0  0  0  0  0  0  0  0  0  0  0
   -1.7282    4.3832   -7.0266 H   0  0  0  0  0  0  0  0  0  0  0  0
    1.8495    9.4476    3.4154 H   0  0  0  0  0  0  0  0  0  0  0  0
    4.9022    9.9356   -1.0756 H   0  0  0  0  0  0  0  0  0  0  0  0
    3.7774   11.1845   -0.5057 H   0  0  0  0  0  0  0  0  0  0  0  0
    2.9863    8.6556   -2.0350 H   0  0  0  0  0  0  0  0  0  0  0  0
    3.0667   10.2856   -2.7110 H   0  0  0  0  0  0  0  0  0  0  0  0
    1.8685    9.9026   -1.4711 H   0  0  0  0  0  0  0  0  0  0  0  0
    4.5167    6.3928    2.0027 H   0  0  0  0  0  0  0  0  0  0  0  0
   12.8936    3.8388    0.8080 H   0  0  0  0  0  0  0  0  0  0  0  0
   13.6753    2.2783    0.4098 H   0  0  0  0  0  0  0  0  0  0  0  0
   10.9267    3.1990   -0.5851 H   0  0  0  0  0  0  0  0  0  0  0  0
   11.7033    1.6623   -0.9900 H   0  0  0  0  0  0  0  0  0  0  0  0
   12.4051    3.1834   -1.5534 H   0  0  0  0  0  0  0  0  0  0  0  0
   13.0556   -1.1919    1.7388 H   0  0  0  0  0  0  0  0  0  0  0  0
   13.5957   -3.7159    1.3876 H   0  0  0  0  0  0  0  0  0  0  0  0
   13.4615   -6.3202    1.4372 H   0  0  0  0  0  0  0  0  0  0  0  0
    9.1925   -6.4961    4.9398 H   0  0  0  0  0  0  0  0  0  0  0  0
    7.5789   -6.0748    9.3360 H   0  0  0  0  0  0  0  0  0  0  0  0
    8.3538   -7.3794   10.2566 H   0  0  0  0  0  0  0  0  0  0  0  0
    6.7178   -9.0106    9.3166 H   0  0  0  0  0  0  0  0  0  0  0  0
    5.9482   -7.7122    8.3963 H   0  0  0  0  0  0  0  0  0  0  0  0
    5.8918   -7.6978   10.1613 H   0  0  0  0  0  0  0  0  0  0  0  0
   11.0849   -9.6435    7.1664 H   0  0  0  0  0  0  0  0  0  0  0  0
   10.2562  -11.2675    5.6426 H   0  0  0  0  0  0  0  0  0  0  0  0
   11.3971  -13.0570    3.9768 H   0  0  0  0  0  0  0  0  0  0  0  0
   12.5626   -7.8921   -0.0623 H   0  0  0  0  0  0  0  0  0  0  0  0
   16.5352  -10.9723   -2.1983 H   0  0  0  0  0  0  0  0  0  0  0  0
   15.7699   -9.6179   -3.0526 H   0  0  0  0  0  0  0  0  0  0  0  0
   14.5483  -12.3991   -2.6916 H   0  0  0  0  0  0  0  0  0  0  0  0
   13.7888  -11.0502   -3.5442 H   0  0  0  0  0  0  0  0  0  0  0  0
   15.2692  -11.7754   -4.1786 H   0  0  0  0  0  0  0  0  0  0  0  0
   14.4667  -11.1222    2.0291 H   0  0  0  0  0  0  0  0  0  0  0  0
  1  2  1  0  0  0  0
  2  3  1  0  0  0  0
  3  4  1  0  0  0  0
  3  5  2  0  0  0  0
  5  6  1  0  0  0  0
  6  7  2  0  0  0  0
  7  8  1  0  0  0  0
  8  9  2  0  0  0  0
  9 10  1  0  0  0  0
 10 11  2  0  0  0  0
 11 12  1  0  0  0  0
 12 13  2  0  0  0  0
 13 14  1  0  0  0  0
 14 15  2  0  0  0  0
 15 16  1  0  0  0  0
 16 17  1  0  0  0  0
 16 18  2  0  0  0  0
 18 19  1  0  0  0  0
 19 20  1  0  0  0  0
 19 21  2  0  0  0  0
 14 21  1  0  0  0  0
 18 22  1  0  0  0  0
 22 23  1  0  0  0  0
 13 24  1  0  0  0  0
 24 25  2  0  0  0  0
 25 26  1  0  0  0  0
 26 27  2  0  0  0  0
 27 28  1  0  0  0  0
 28 29  2  0  0  0  0
 29 30  1  0  0  0  0
 30 31  2  0  0  0  0
 31 32  1  0  0  0  0
 32 33  1  0  0  0  0
 33 34  2  0  0  0  0
 32 35  2  0  0  0  0
 35 36  1  0  0  0  0
 35 37  1  0  0  0  0
 37 38  1  0  0  0  0
 37 39  2  0  0  0  0
 39 40  1  0  0  0  0
 33 40  1  0  0  0  0
 40 41  2  0  0  0  0
 41 42  1  0  0  0  0
 34 42  1  0  0  0  0
 42 43  1  0  0  0  0
 43 44  1  0  0  0  0
 39 45  1  0  0  0  0
 45 46  2  0  0  0  0
 46 47  1  0  0  0  0
 47 48  2  0  0  0  0
 48 49  1  0  0  0  0
 49 50  2  0  0  0  0
 50 51  1  0  0  0  0
 51 52  2  0  0  0  0
 52 53  1  0  0  0  0
 53 54  2  0  0  0  0
 54 55  1  0  0  0  0
 55 56  1  0  0  0  0
 55 57  2  0  0  0  0
 57 58  1  0  0  0  0
 58 59  1  0  0  0  0
 58 60  2  0  0  0  0
 53 60  1  0  0  0  0
 57 61  1  0  0  0  0
 61 62  1  0  0  0  0
 52 63  1  0  0  0  0
 63 64  2  0  0  0  0
 64 65  1  0  0  0  0
 65 66  2  0  0  0  0
 66 67  1  0  0  0  0
 67 68  1  0  0  0  0
 67 69  2  0  0  0  0
 69 70  1  0  0  0  0
 70 71  2  0  0  0  0
 68 71  1  0  0  0  0
 71 72  1  0  0  0  0
 72 73  1  0  0  0  0
 73 74  2  0  0  0  0
 72 75  2  0  0  0  0
 75 76  1  0  0  0  0
 75 77  1  0  0  0  0
 77 78  1  0  0  0  0
 77 79  2  0  0  0  0
 79 80  1  0  0  0  0
 73 80  1  0  0  0  0
 80 81  2  0  0  0  0
 81 82  1  0  0  0  0
 74 82  1  0  0  0  0
 82 83  1  0  0  0  0
 83 84  1  0  0  0  0
 79 85  1  0  0  0  0
 85 86  2  0  0  0  0
 86 87  1  0  0  0  0
 87 88  2  0  0  0  0
 88 89  1  0  0  0  0
 85 89  1  0  0  0  0
 66 90  1  0  0  0  0
 63 90  1  0  0  0  0
 64 91  1  0  0  0  0
 91 92  1  0  0  0  0
 92 93  2  0  0  0  0
 93 94  1  0  0  0  0
 94 95  2  0  0  0  0
 95 96  1  0  0  0  0
 96 97  1  0  0  0  0
 96 98  2  0  0  0  0
 92 98  1  0  0  0  0
 95 99  1  0  0  0  0
 99100  1  0  0  0  0
 94101  1  0  0  0  0
 91102  2  0  0  0  0
 51102  1  0  0  0  0
102103  1  0  0  0  0
 49103  1  0  0  0  0
 48104  1  0  0  0  0
 45104  1  0  0  0  0
 31105  1  0  0  0  0
 28105  1  0  0  0  0
 27106  1  0  0  0  0
 24106  1  0  0  0  0
 25107  1  0  0  0  0
107108  1  0  0  0  0
108109  2  0  0  0  0
109110  1  0  0  0  0
110111  1  0  0  0  0
110112  2  0  0  0  0
112113  1  0  0  0  0
113114  1  0  0  0  0
112115  1  0  0  0  0
115116  1  0  0  0  0
115117  2  0  0  0  0
108117  1  0  0  0  0
107118  2  0  0  0  0
 12118  1  0  0  0  0
118119  1  0  0  0  0
 10119  1  0  0  0  0
  9120  1  0  0  0  0
  6120  1  0  0  0  0
  5121  1  0  0  0  0
121122  2  0  0  0  0
122123  1  0  0  0  0
123124  1  0  0  0  0
124125  1  0  0  0  0
  2126  2  0  0  0  0
126127  1  0  0  0  0
121127  1  0  0  0  0
127128  2  0  0  0  0
123128  1  0  0  0  0
126129  1  0  0  0  0
129130  2  0  0  0  0
130131  1  0  0  0  0
131132  2  0  0  0  0
132133  1  0  0  0  0
129133  1  0  0  0  0
132134  1  0  0  0  0
134135  2  0  0  0  0
135136  1  0  0  0  0
136137  2  0  0  0  0
137138  1  0  0  0  0
134138  1  0  0  0  0
137139  1  0  0  0  0
139140  1  0  0  0  0
140141  2  0  0  0  0
141142  1  0  0  0  0
142143  1  0  0  0  0
142144  2  0  0  0  0
144145  1  0  0  0  0
145146  1  0  0  0  0
144147  1  0  0  0  0
147148  1  0  0  0  0
147149  2  0  0  0  0
140149  1  0  0  0  0
139150  2  0  0  0  0
150151  1  0  0  0  0
151152  2  0  0  0  0
152153  1  0  0  0  0
153154  1  0  0  0  0
150154  1  0  0  0  0
154155  2  0  0  0  0
136155  1  0  0  0  0
155156  1  0  0  0  0
156157  2  0  0  0  0
157158  1  0  0  0  0
158159  1  0  0  0  0
158160  2  0  0  0  0
160161  1  0  0  0  0
161162  1  0  0  0  0
160163  1  0  0  0  0
163164  1  0  0  0  0
163165  2  0  0  0  0
156165  1  0  0  0  0
  7166  1  0  0  0  0
  8167  1  0  0  0  0
 11168  1  0  0  0  0
 15169  1  0  0  0  0
 21170  1  0  0  0  0
 22171  1  0  0  0  0
 22172  1  0  0  0  0
 23173  1  0  0  0  0
 23174  1  0  0  0  0
 23175  1  0  0  0  0
 26176  1  0  0  0  0
 29177  1  0  0  0  0
 30178  1  0  0  0  0
 43179  1  0  0  0  0
 43180  1  0  0  0  0
 44181  1  0  0  0  0
 44182  1  0  0  0  0
 44183  1  0  0  0  0
 46184  1  0  0  0  0
 47185  1  0  0  0  0
 50186  1  0  0  0  0
 54187  1  0  0  0  0
 60188  1  0  0  0  0
 61189  1  0  0  0  0
 61190  1  0  0  0  0
 62191  1  0  0  0  0
 62192  1  0  0  0  0
 62193  1  0  0  0  0
 65194  1  0  0  0  0
 69195  1  0  0  0  0
 70196  1  0  0  0  0
 83197  1  0  0  0  0
 83198  1  0  0  0  0
 84199  1  0  0  0  0
 84200  1  0  0  0  0
 84201  1  0  0  0  0
 86202  1  0  0  0  0
 87203  1  0  0  0  0
 88204  1  0  0  0  0
 93205  1  0  0  0  0
 98206  1  0  0  0  0
 99207  1  0  0  0  0
 99208  1  0  0  0  0
100209  1  0  0  0  0
100210  1  0  0  0  0
100211  1  0  0  0  0
109212  1  0  0  0  0
113213  1  0  0  0  0
113214  1  0  0  0  0
114215  1  0  0  0  0
114216  1  0  0  0  0
114217  1  0  0  0  0
117218  1  0  0  0  0
124219  1  0  0  0  0
124220  1  0  0  0  0
125221  1  0  0  0  0
125222  1  0  0  0  0
125223  1  0  0  0  0
130224  1  0  0  0  0
131225  1  0  0  0  0
135226  1  0  0  0  0
141227  1  0  0  0  0
145228  1  0  0  0  0
145229  1  0  0  0  0
146230  1  0  0  0  0
146231  1  0  0  0  0
146232  1  0  0  0  0
149233  1  0  0  0  0
151234  1  0  0  0  0
152235  1  0  0  0  0
157236  1  0  0  0  0
161237  1  0  0  0  0
161238  1  0  0  0  0
162239  1  0  0  0  0
162240  1  0  0  0  0
162241  1  0  0  0  0
165242  1  0  0  0  0
M  END
