SCF done       -340.042970228759          0.000311843234
 OpenBabel12282109573D

191217  0  0  0  0  0  0  0  0999 V2000
   13.3081    5.7971   12.9205 C   0  0  0  0  0  0  0  0  0  0  0  0
   13.0968    5.1852   11.3208 S   0  0  0  0  0  0  0  0  0  0  0  0
   12.7061    6.7762   10.7520 C   0  0  0  0  0  0  0  0  0  0  0  0
   12.7449    7.7284   11.7740 C   0  0  0  0  0  0  0  0  0  0  0  0
   13.0963    7.1298   13.0151 C   0  0  0  0  0  0  0  0  0  0  0  0
   12.3802    7.1488    9.4469 C   0  0  0  0  0  0  0  0  0  0  0  0
   12.0723    8.4798    9.1447 C   0  0  0  0  0  0  0  0  0  0  0  0
   12.1061    9.4799   10.1691 C   0  0  0  0  0  0  0  0  0  0  0  0
   12.4534    9.1013   11.4962 C   0  0  0  0  0  0  0  0  0  0  0  0
   12.3075    6.1196    8.0547 S   0  0  0  0  0  0  0  0  0  0  0  0
   11.8579    7.4804    7.0504 C   0  0  0  0  0  0  0  0  0  0  0  0
   11.7724    8.6394    7.7737 C   0  0  0  0  0  0  0  0  0  0  0  0
   11.8143   10.8213    9.8696 C   0  0  0  0  0  0  0  0  0  0  0  0
   11.8767   11.7477   10.8770 C   0  0  0  0  0  0  0  0  0  0  0  0
   12.2222   11.3720   12.1983 C   0  0  0  0  0  0  0  0  0  0  0  0
   12.5084   10.0698   12.5138 C   0  0  0  0  0  0  0  0  0  0  0  0
   11.6464   13.1041   10.8921 N   0  0  0  0  0  0  0  0  0  0  0  0
   11.8499   13.5939   12.1671 C   0  0  0  0  0  0  0  0  0  0  0  0
   12.2053   12.5190   12.9584 N   0  0  0  0  0  0  0  0  0  0  0  0
   11.7378   14.7448   12.5236 O   0  0  0  0  0  0  0  0  0  0  0  0
   11.3285   13.9419    9.7639 C   0  0  0  0  0  0  0  0  0  0  0  0
   12.5591   14.2252    8.9068 C   0  0  0  0  0  0  0  0  0  0  0  0
   12.4441   12.6252   14.3750 C   0  0  0  0  0  0  0  0  0  0  0  0
   11.2473   12.1398   15.1879 C   0  0  0  0  0  0  0  0  0  0  0  0
   11.6566    7.3065    5.6531 C   0  0  0  0  0  0  0  0  0  0  0  0
   11.8745    6.1782    4.8959 C   0  0  0  0  0  0  0  0  0  0  0  0
   11.6208    6.3637    3.5359 C   0  0  0  0  0  0  0  0  0  0  0  0
   11.1906    7.6330    3.2230 C   0  0  0  0  0  0  0  0  0  0  0  0
   11.1009    8.6206    4.6587 S   0  0  0  0  0  0  0  0  0  0  0  0
   10.8574    8.1740    1.9383 C   0  0  0  0  0  0  0  0  0  0  0  0
   11.1683    7.4816    0.7372 C   0  0  0  0  0  0  0  0  0  0  0  0
   10.8755    8.0622   -0.5491 C   0  0  0  0  0  0  0  0  0  0  0  0
   10.2369    9.3275   -0.6519 C   0  0  0  0  0  0  0  0  0  0  0  0
    9.9235    9.9508    0.5469 C   0  0  0  0  0  0  0  0  0  0  0  0
   10.2332    9.4038    1.7881 C   0  0  0  0  0  0  0  0  0  0  0  0
   11.7530    6.2911    0.6201 N   0  0  0  0  0  0  0  0  0  0  0  0
   11.9148    5.9339   -0.9386 S   0  0  0  0  0  0  0  0  0  0  0  0
   11.2565    7.2677   -1.5474 N   0  0  0  0  0  0  0  0  0  0  0  0
    9.9514    9.9186   -1.9262 C   0  0  0  0  0  0  0  0  0  0  0  0
    8.8908   11.2975   -2.0675 S   0  0  0  0  0  0  0  0  0  0  0  0
    9.1206   11.3544   -3.7903 C   0  0  0  0  0  0  0  0  0  0  0  0
    9.9792   10.3603   -4.2023 C   0  0  0  0  0  0  0  0  0  0  0  0
   10.4351    9.5518   -3.1611 C   0  0  0  0  0  0  0  0  0  0  0  0
    8.4629   12.3180   -4.6042 C   0  0  0  0  0  0  0  0  0  0  0  0
    8.9353   12.4911   -6.2804 S   0  0  0  0  0  0  0  0  0  0  0  0
    7.7258   13.7087   -6.5122 C   0  0  0  0  0  0  0  0  0  0  0  0
    6.9911   13.9654   -5.3481 C   0  0  0  0  0  0  0  0  0  0  0  0
    7.4408   13.1673   -4.2726 C   0  0  0  0  0  0  0  0  0  0  0  0
    7.4402   14.3818   -7.6973 C   0  0  0  0  0  0  0  0  0  0  0  0
    6.3849   15.2996   -7.7614 C   0  0  0  0  0  0  0  0  0  0  0  0
    5.6171   15.5927   -6.5878 C   0  0  0  0  0  0  0  0  0  0  0  0
    5.9285   14.9265   -5.3687 C   0  0  0  0  0  0  0  0  0  0  0  0
    8.2691   14.2146   -9.2092 S   0  0  0  0  0  0  0  0  0  0  0  0
    7.1776   15.3626   -9.9519 C   0  0  0  0  0  0  0  0  0  0  0  0
    6.2474   15.8311   -9.0633 C   0  0  0  0  0  0  0  0  0  0  0  0
    4.5759   16.5351   -6.6312 C   0  0  0  0  0  0  0  0  0  0  0  0
    3.8771   16.7968   -5.4817 C   0  0  0  0  0  0  0  0  0  0  0  0
    4.1849   16.1318   -4.2694 C   0  0  0  0  0  0  0  0  0  0  0  0
    5.1941   15.2068   -4.2042 C   0  0  0  0  0  0  0  0  0  0  0  0
    2.8242   17.6425   -5.2196 N   0  0  0  0  0  0  0  0  0  0  0  0
    2.4688   17.5406   -3.8888 C   0  0  0  0  0  0  0  0  0  0  0  0
    3.3054   16.5997   -3.3208 N   0  0  0  0  0  0  0  0  0  0  0  0
    1.5803   18.1443   -3.3321 O   0  0  0  0  0  0  0  0  0  0  0  0
    2.2027   18.5661   -6.1344 C   0  0  0  0  0  0  0  0  0  0  0  0
    3.0508   19.8191   -6.3343 C   0  0  0  0  0  0  0  0  0  0  0  0
    3.2615   16.2433   -1.9254 C   0  0  0  0  0  0  0  0  0  0  0  0
    4.3711   16.9272   -1.1316 C   0  0  0  0  0  0  0  0  0  0  0  0
    7.3367   15.6955  -11.3272 C   0  0  0  0  0  0  0  0  0  0  0  0
    8.4422   15.4907  -12.1203 C   0  0  0  0  0  0  0  0  0  0  0  0
    8.2779   15.9437  -13.4306 C   0  0  0  0  0  0  0  0  0  0  0  0
    7.0347   16.4789  -13.6750 C   0  0  0  0  0  0  0  0  0  0  0  0
    6.0551   16.4445  -12.2324 S   0  0  0  0  0  0  0  0  0  0  0  0
    6.5116   16.9821  -14.9121 C   0  0  0  0  0  0  0  0  0  0  0  0
    7.3663   17.3321  -15.9909 C   0  0  0  0  0  0  0  0  0  0  0  0
    6.8273   17.8222  -17.2344 C   0  0  0  0  0  0  0  0  0  0  0  0
    5.4241   17.9268  -17.4292 C   0  0  0  0  0  0  0  0  0  0  0  0
    4.6298   17.5721  -16.3492 C   0  0  0  0  0  0  0  0  0  0  0  0
    5.1518   17.1352  -15.1355 C   0  0  0  0  0  0  0  0  0  0  0  0
    8.6971   17.2889  -16.0114 N   0  0  0  0  0  0  0  0  0  0  0  0
    9.2181   17.8064  -17.4411 S   0  0  0  0  0  0  0  0  0  0  0  0
    7.7883   18.1118  -18.1094 N   0  0  0  0  0  0  0  0  0  0  0  0
    4.8703   18.3647  -18.6772 C   0  0  0  0  0  0  0  0  0  0  0  0
    3.1830   18.1133  -19.0411 S   0  0  0  0  0  0  0  0  0  0  0  0
    3.3595   18.8689  -20.5972 C   0  0  0  0  0  0  0  0  0  0  0  0
    4.6544   19.2929  -20.7915 C   0  0  0  0  0  0  0  0  0  0  0  0
    5.5019   18.9994  -19.7218 C   0  0  0  0  0  0  0  0  0  0  0  0
    2.2568   18.9774  -21.4894 C   0  0  0  0  0  0  0  0  0  0  0  0
    2.3736   19.9883  -22.9125 S   0  0  0  0  0  0  0  0  0  0  0  0
    0.7575   19.5597  -23.3697 C   0  0  0  0  0  0  0  0  0  0  0  0
    0.1662   18.6636  -22.4702 C   0  0  0  0  0  0  0  0  0  0  0  0
    1.0381   18.3584  -21.4029 C   0  0  0  0  0  0  0  0  0  0  0  0
    0.0530   20.0181  -24.4801 C   0  0  0  0  0  0  0  0  0  0  0  0
   -1.2535   19.5778  -24.7281 C   0  0  0  0  0  0  0  0  0  0  0  0
   -1.8719   18.6277  -23.8520 C   0  0  0  0  0  0  0  0  0  0  0  0
   -1.1572   18.1701  -22.7098 C   0  0  0  0  0  0  0  0  0  0  0  0
    0.6057   21.1553  -25.6654 S   0  0  0  0  0  0  0  0  0  0  0  0
   -0.9285   21.0563  -26.5008 C   0  0  0  0  0  0  0  0  0  0  0  0
   -1.7880   20.1852  -25.8846 C   0  0  0  0  0  0  0  0  0  0  0  0
   -3.1656   18.1467  -24.1147 C   0  0  0  0  0  0  0  0  0  0  0  0
   -3.7131   17.2300  -23.2553 C   0  0  0  0  0  0  0  0  0  0  0  0
   -2.9993   16.7705  -22.1214 C   0  0  0  0  0  0  0  0  0  0  0  0
   -1.7398   17.2322  -21.8411 C   0  0  0  0  0  0  0  0  0  0  0  0
   -4.9235   16.5763  -23.2593 N   0  0  0  0  0  0  0  0  0  0  0  0
   -4.9988   15.7344  -22.1669 C   0  0  0  0  0  0  0  0  0  0  0  0
   -3.8115   15.8685  -21.4740 N   0  0  0  0  0  0  0  0  0  0  0  0
   -5.9275   15.0167  -21.8731 O   0  0  0  0  0  0  0  0  0  0  0  0
   -6.0041   16.7543  -24.1956 C   0  0  0  0  0  0  0  0  0  0  0  0
   -6.7794   18.0406  -23.9254 C   0  0  0  0  0  0  0  0  0  0  0  0
   -3.4861   15.0896  -20.3063 C   0  0  0  0  0  0  0  0  0  0  0  0
   -2.5777   13.9121  -20.6490 C   0  0  0  0  0  0  0  0  0  0  0  0
   -1.1568   21.8388  -27.6655 C   0  0  0  0  0  0  0  0  0  0  0  0
   -0.2921   22.7146  -28.2825 C   0  0  0  0  0  0  0  0  0  0  0  0
   -0.8370   23.3348  -29.4076 C   0  0  0  0  0  0  0  0  0  0  0  0
   -2.1307   22.9500  -29.6782 C   0  0  0  0  0  0  0  0  0  0  0  0
   -2.6805   21.7838  -28.5017 S   0  0  0  0  0  0  0  0  0  0  0  0
   -2.9911   23.3820  -30.7397 C   0  0  0  0  0  0  0  0  0  0  0  0
   -2.5665   24.3253  -31.7146 C   0  0  0  0  0  0  0  0  0  0  0  0
   -3.4505   24.7469  -32.7736 C   0  0  0  0  0  0  0  0  0  0  0  0
   -4.7706   24.2319  -32.8739 C   0  0  0  0  0  0  0  0  0  0  0  0
   -5.1390   23.3159  -31.9013 C   0  0  0  0  0  0  0  0  0  0  0  0
   -4.2871   22.9088  -30.8791 C   0  0  0  0  0  0  0  0  0  0  0  0
   -1.3787   24.9210  -31.7970 N   0  0  0  0  0  0  0  0  0  0  0  0
   -1.3687   25.9055  -33.0672 S   0  0  0  0  0  0  0  0  0  0  0  0
   -2.8662   25.6312  -33.5803 N   0  0  0  0  0  0  0  0  0  0  0  0
   -5.6669   24.6367  -33.9213 C   0  0  0  0  0  0  0  0  0  0  0  0
   -7.2772   23.9697  -34.0249 S   0  0  0  0  0  0  0  0  0  0  0  0
   -7.6176   24.9045  -35.4217 C   0  0  0  0  0  0  0  0  0  0  0  0
   -6.5643   25.6822  -35.7889 C   0  0  0  0  0  0  0  0  0  0  0  0
   -5.4544   25.5324  -34.9388 C   0  0  0  0  0  0  0  0  0  0  0  0
   13.5807    5.1151   13.7017 H   0  0  0  0  0  0  0  0  0  0  0  0
   13.1870    7.6659   13.9420 H   0  0  0  0  0  0  0  0  0  0  0  0
   11.5080    9.5714    7.3078 H   0  0  0  0  0  0  0  0  0  0  0  0
   11.5492   11.1082    8.8660 H   0  0  0  0  0  0  0  0  0  0  0  0
   12.7760    9.7876   13.5182 H   0  0  0  0  0  0  0  0  0  0  0  0
   10.9336   14.8757   10.1723 H   0  0  0  0  0  0  0  0  0  0  0  0
   10.5510   13.4513    9.1704 H   0  0  0  0  0  0  0  0  0  0  0  0
   13.3093   14.7473    9.4954 H   0  0  0  0  0  0  0  0  0  0  0  0
   12.2849   14.8477    8.0598 H   0  0  0  0  0  0  0  0  0  0  0  0
   12.9908   13.2979    8.5368 H   0  0  0  0  0  0  0  0  0  0  0  0
   12.6311   13.6827   14.5790 H   0  0  0  0  0  0  0  0  0  0  0  0
   13.3392   12.0471   14.6250 H   0  0  0  0  0  0  0  0  0  0  0  0
   10.3723   12.7415   14.9556 H   0  0  0  0  0  0  0  0  0  0  0  0
   11.4603   12.2289   16.2495 H   0  0  0  0  0  0  0  0  0  0  0  0
   11.0242   11.1000   14.9596 H   0  0  0  0  0  0  0  0  0  0  0  0
   12.2176    5.2535    5.3258 H   0  0  0  0  0  0  0  0  0  0  0  0
   11.7453    5.6031    2.7880 H   0  0  0  0  0  0  0  0  0  0  0  0
    9.4309   10.9119    0.5121 H   0  0  0  0  0  0  0  0  0  0  0  0
    9.9766    9.9606    2.6778 H   0  0  0  0  0  0  0  0  0  0  0  0
   10.2532   10.2278   -5.2342 H   0  0  0  0  0  0  0  0  0  0  0  0
   11.1018    8.7198   -3.2889 H   0  0  0  0  0  0  0  0  0  0  0  0
    7.0291   13.1869   -3.2796 H   0  0  0  0  0  0  0  0  0  0  0  0
    5.5007   16.5457   -9.3589 H   0  0  0  0  0  0  0  0  0  0  0  0
    4.3381   17.0385   -7.5532 H   0  0  0  0  0  0  0  0  0  0  0  0
    5.4247   14.6996   -3.2825 H   0  0  0  0  0  0  0  0  0  0  0  0
    1.2374   18.8338   -5.6970 H   0  0  0  0  0  0  0  0  0  0  0  0
    2.0367   18.0572   -7.0886 H   0  0  0  0  0  0  0  0  0  0  0  0
    3.1791   20.3356   -5.3864 H   0  0  0  0  0  0  0  0  0  0  0  0
    2.5600   20.4905   -7.0334 H   0  0  0  0  0  0  0  0  0  0  0  0
    4.0323   19.5600   -6.7252 H   0  0  0  0  0  0  0  0  0  0  0  0
    3.3403   15.1554   -1.8380 H   0  0  0  0  0  0  0  0  0  0  0  0
    2.2842   16.5637   -1.5550 H   0  0  0  0  0  0  0  0  0  0  0  0
    5.3484   16.6522   -1.5221 H   0  0  0  0  0  0  0  0  0  0  0  0
    4.3141   16.6321   -0.0876 H   0  0  0  0  0  0  0  0  0  0  0  0
    4.2625   18.0070   -1.1953 H   0  0  0  0  0  0  0  0  0  0  0  0
    9.3418   15.0339  -11.7471 H   0  0  0  0  0  0  0  0  0  0  0  0
    9.0332   15.8813  -14.1915 H   0  0  0  0  0  0  0  0  0  0  0  0
    3.5569   17.6413  -16.4567 H   0  0  0  0  0  0  0  0  0  0  0  0
    4.4687   16.8856  -14.3365 H   0  0  0  0  0  0  0  0  0  0  0  0
    4.9682   19.7900  -21.6926 H   0  0  0  0  0  0  0  0  0  0  0  0
    6.5485   19.2391  -19.6951 H   0  0  0  0  0  0  0  0  0  0  0  0
    0.8018   17.7001  -20.5865 H   0  0  0  0  0  0  0  0  0  0  0  0
   -2.7760   20.0081  -26.2698 H   0  0  0  0  0  0  0  0  0  0  0  0
   -3.7066   18.4891  -24.9808 H   0  0  0  0  0  0  0  0  0  0  0  0
   -1.1989   16.8827  -20.9778 H   0  0  0  0  0  0  0  0  0  0  0  0
   -6.6615   15.8890  -24.0775 H   0  0  0  0  0  0  0  0  0  0  0  0
   -5.5933   16.7583  -25.2099 H   0  0  0  0  0  0  0  0  0  0  0  0
   -7.2104   18.0114  -22.9278 H   0  0  0  0  0  0  0  0  0  0  0  0
   -7.5823   18.1474  -24.6493 H   0  0  0  0  0  0  0  0  0  0  0  0
   -6.1243   18.9060  -23.9961 H   0  0  0  0  0  0  0  0  0  0  0  0
   -4.4340   14.7252  -19.9020 H   0  0  0  0  0  0  0  0  0  0  0  0
   -3.0083   15.7432  -19.5704 H   0  0  0  0  0  0  0  0  0  0  0  0
   -3.0778   13.2497  -21.3511 H   0  0  0  0  0  0  0  0  0  0  0  0
   -2.3421   13.3519  -19.7484 H   0  0  0  0  0  0  0  0  0  0  0  0
   -1.6509   14.2606  -21.0992 H   0  0  0  0  0  0  0  0  0  0  0  0
    0.7044   22.8923  -27.9179 H   0  0  0  0  0  0  0  0  0  0  0  0
   -0.3157   24.0481  -30.0182 H   0  0  0  0  0  0  0  0  0  0  0  0
   -6.1350   22.8990  -31.9384 H   0  0  0  0  0  0  0  0  0  0  0  0
   -4.6518   22.1908  -30.1587 H   0  0  0  0  0  0  0  0  0  0  0  0
   -8.5801   24.8201  -35.8861 H   0  0  0  0  0  0  0  0  0  0  0  0
   -6.5802   26.3406  -36.6391 H   0  0  0  0  0  0  0  0  0  0  0  0
   -4.5251   26.0574  -35.0574 H   0  0  0  0  0  0  0  0  0  0  0  0
  1  5  2  0  0  0  0
  1130  1  0  0  0  0
  2  1  1  0  0  0  0
  3  2  1  0  0  0  0
  3  4  2  0  0  0  0
  4  5  1  0  0  0  0
  5131  1  0  0  0  0
  6  3  1  0  0  0  0
  7  6  2  0  0  0  0
  7  8  1  0  0  0  0
  8  9  1  0  0  0  0
  9  4  1  0  0  0  0
  9 16  2  0  0  0  0
 10  6  1  0  0  0  0
 11 12  2  0  0  0  0
 11 10  1  0  0  0  0
 12  7  1  0  0  0  0
 13  8  2  0  0  0  0
 13 14  1  0  0  0  0
 14 17  1  0  0  0  0
 14 15  2  0  0  0  0
 15 16  1  0  0  0  0
 15 19  1  0  0  0  0
 16134  1  0  0  0  0
 17 18  1  0  0  0  0
 18 20  2  0  0  0  0
 18 19  1  0  0  0  0
 19 23  1  0  0  0  0
 21135  1  0  0  0  0
 21 17  1  0  0  0  0
 22137  1  0  0  0  0
 22 21  1  0  0  0  0
 23140  1  0  0  0  0
 23141  1  0  0  0  0
 23 24  1  0  0  0  0
 24143  1  0  0  0  0
 25 11  1  0  0  0  0
 26145  1  0  0  0  0
 26 25  2  0  0  0  0
 27 26  1  0  0  0  0
 28 27  2  0  0  0  0
 28 29  1  0  0  0  0
 29 25  1  0  0  0  0
 30 28  1  0  0  0  0
 31 30  1  0  0  0  0
 32 31  1  0  0  0  0
 33 32  1  0  0  0  0
 33 34  2  0  0  0  0
 34 35  1  0  0  0  0
 35 30  2  0  0  0  0
 35148  1  0  0  0  0
 36 31  2  0  0  0  0
 37 36  1  0  0  0  0
 38 37  1  0  0  0  0
 38 32  2  0  0  0  0
 39 33  1  0  0  0  0
 40 39  1  0  0  0  0
 41 40  1  0  0  0  0
 42 41  2  0  0  0  0
 42 43  1  0  0  0  0
 43 39  2  0  0  0  0
 44 48  2  0  0  0  0
 44 41  1  0  0  0  0
 45 44  1  0  0  0  0
 46 45  1  0  0  0  0
 46 47  2  0  0  0  0
 47 48  1  0  0  0  0
 48151  1  0  0  0  0
 49 46  1  0  0  0  0
 50 49  2  0  0  0  0
 50 51  1  0  0  0  0
 51 52  1  0  0  0  0
 52 47  1  0  0  0  0
 52 59  2  0  0  0  0
 53 49  1  0  0  0  0
 54 53  1  0  0  0  0
 54 55  2  0  0  0  0
 55 50  1  0  0  0  0
 56 51  2  0  0  0  0
 56 57  1  0  0  0  0
 57 60  1  0  0  0  0
 57 58  2  0  0  0  0
 58 59  1  0  0  0  0
 58 62  1  0  0  0  0
 59154  1  0  0  0  0
 60 61  1  0  0  0  0
 61 63  2  0  0  0  0
 61 62  1  0  0  0  0
 62 66  1  0  0  0  0
 64155  1  0  0  0  0
 64 60  1  0  0  0  0
 65 64  1  0  0  0  0
 65157  1  0  0  0  0
 66160  1  0  0  0  0
 66161  1  0  0  0  0
 66 67  1  0  0  0  0
 67163  1  0  0  0  0
 68 54  1  0  0  0  0
 69165  1  0  0  0  0
 69 68  2  0  0  0  0
 70 69  1  0  0  0  0
 71 70  2  0  0  0  0
 71 72  1  0  0  0  0
 72 68  1  0  0  0  0
 73 71  1  0  0  0  0
 74 73  1  0  0  0  0
 75 74  1  0  0  0  0
 76 75  1  0  0  0  0
 76 77  2  0  0  0  0
 77 78  1  0  0  0  0
 78 73  2  0  0  0  0
 78168  1  0  0  0  0
 79 74  2  0  0  0  0
 80 79  1  0  0  0  0
 81 80  1  0  0  0  0
 81 75  2  0  0  0  0
 82 76  1  0  0  0  0
 83 82  1  0  0  0  0
 84 83  1  0  0  0  0
 85 84  2  0  0  0  0
 85 86  1  0  0  0  0
 86170  1  0  0  0  0
 86 82  2  0  0  0  0
 87 91  2  0  0  0  0
 87 84  1  0  0  0  0
 88 87  1  0  0  0  0
 89 88  1  0  0  0  0
 89 90  2  0  0  0  0
 90 91  1  0  0  0  0
 91171  1  0  0  0  0
 92 89  1  0  0  0  0
 93 92  2  0  0  0  0
 93 94  1  0  0  0  0
 94 95  1  0  0  0  0
 95 90  1  0  0  0  0
 95102  2  0  0  0  0
 96 92  1  0  0  0  0
 97 98  2  0  0  0  0
 97 96  1  0  0  0  0
 98 93  1  0  0  0  0
 99 94  2  0  0  0  0
 99100  1  0  0  0  0
100101  2  0  0  0  0
101102  1  0  0  0  0
101105  1  0  0  0  0
102174  1  0  0  0  0
103100  1  0  0  0  0
103104  1  0  0  0  0
104106  2  0  0  0  0
104105  1  0  0  0  0
105109  1  0  0  0  0
107175  1  0  0  0  0
107108  1  0  0  0  0
107103  1  0  0  0  0
108177  1  0  0  0  0
109180  1  0  0  0  0
109181  1  0  0  0  0
110109  1  0  0  0  0
110183  1  0  0  0  0
111 97  1  0  0  0  0
112185  1  0  0  0  0
112111  2  0  0  0  0
113112  1  0  0  0  0
114113  2  0  0  0  0
114115  1  0  0  0  0
115111  1  0  0  0  0
116114  1  0  0  0  0
117116  1  0  0  0  0
118117  1  0  0  0  0
119118  1  0  0  0  0
119120  2  0  0  0  0
120121  1  0  0  0  0
121116  2  0  0  0  0
121188  1  0  0  0  0
122117  2  0  0  0  0
123122  1  0  0  0  0
124123  1  0  0  0  0
124118  2  0  0  0  0
125119  1  0  0  0  0
126125  1  0  0  0  0
127126  1  0  0  0  0
128127  2  0  0  0  0
128129  1  0  0  0  0
129125  2  0  0  0  0
132 12  1  0  0  0  0
133 13  1  0  0  0  0
136 21  1  0  0  0  0
138 22  1  0  0  0  0
139 22  1  0  0  0  0
142 24  1  0  0  0  0
144 24  1  0  0  0  0
146 27  1  0  0  0  0
147 34  1  0  0  0  0
149 42  1  0  0  0  0
150 43  1  0  0  0  0
152 55  1  0  0  0  0
153 56  1  0  0  0  0
156 64  1  0  0  0  0
158 65  1  0  0  0  0
159 65  1  0  0  0  0
162 67  1  0  0  0  0
164 67  1  0  0  0  0
166 70  1  0  0  0  0
167 77  1  0  0  0  0
169 85  1  0  0  0  0
172 98  1  0  0  0  0
173 99  1  0  0  0  0
176107  1  0  0  0  0
178108  1  0  0  0  0
179108  1  0  0  0  0
182110  1  0  0  0  0
184110  1  0  0  0  0
186113  1  0  0  0  0
187120  1  0  0  0  0
189127  1  0  0  0  0
190128  1  0  0  0  0
191129  1  0  0  0  0
M  END
