SCF done       -497.165674104071          0.000553452980
 OpenBabel12282109573D

290325  0  0  1  0  0  0  0  0999 V2000
  -11.1180   74.5596   29.0147 C   0  0  0  0  0  0  0  0  0  0  0  0
  -10.6540   73.9238   27.8401 C   0  0  0  0  0  0  0  0  0  0  0  0
  -11.4439   73.7306   26.7087 C   0  0  0  0  0  0  0  0  0  0  0  0
  -12.7707   74.1968   26.7835 C   0  0  0  0  0  0  0  0  0  0  0  0
  -13.2334   74.8289   27.9627 C   0  0  0  0  0  0  0  0  0  0  0  0
  -12.4470   75.0131   29.0929 C   0  0  0  0  0  0  0  0  0  0  0  0
  -13.7935   74.0949   25.8116 C   0  0  0  0  0  0  0  0  0  0  0  0
  -14.9908   74.6312   26.1944 C   0  0  0  0  0  0  0  0  0  0  0  0
  -14.9063   75.2875   27.8176 S   0  0  0  0  0  0  0  0  0  0  0  0
  -10.0789   74.7049   29.9809 C   0  0  0  0  0  0  0  0  0  0  0  0
   -8.9014   74.1959   29.5672 C   0  0  0  0  0  0  0  0  0  0  0  0
   -8.9683   73.5007   27.9849 S   0  0  0  0  0  0  0  0  0  0  0  0
  -12.9626   75.6350   30.2974 C   0  0  0  0  0  0  0  0  0  0  0  0
  -10.9042   73.1070   25.5179 C   0  0  0  0  0  0  0  0  0  0  0  0
  -16.1644   74.6891   25.3876 C   0  0  0  0  0  0  0  0  0  0  0  0
  -12.7818   75.2385   31.5906 C   0  0  0  0  0  0  0  0  0  0  0  0
  -13.4405   76.0803   32.5132 C   0  0  0  0  0  0  0  0  0  0  0  0
  -14.1117   77.1236   31.9463 C   0  0  0  0  0  0  0  0  0  0  0  0
  -13.9515   77.0658   30.2242 S   0  0  0  0  0  0  0  0  0  0  0  0
  -10.0316   72.0589   25.4408 C   0  0  0  0  0  0  0  0  0  0  0  0
   -9.6786   71.7407   24.1121 C   0  0  0  0  0  0  0  0  0  0  0  0
  -10.2489   72.5420   23.1666 C   0  0  0  0  0  0  0  0  0  0  0  0
  -11.2681   73.7146   23.9254 S   0  0  0  0  0  0  0  0  0  0  0  0
  -16.0538   74.0509   23.7637 S   0  0  0  0  0  0  0  0  0  0  0  0
  -17.7035   74.4750   23.4293 C   0  0  0  0  0  0  0  0  0  0  0  0
  -18.2820   75.0654   24.5294 C   0  0  0  0  0  0  0  0  0  0  0  0
  -17.4300   75.1880   25.6380 C   0  0  0  0  0  0  0  0  0  0  0  0
  -13.3869   75.8024   34.2132 Cl  0  0  0  0  0  0  0  0  0  0  0  0
  -14.9409   78.1712   32.6029 C   0  0  0  0  0  0  0  0  0  0  0  0
  -16.4322   77.8619   32.4544 C   0  0  0  0  0  0  0  0  0  0  0  0
   -8.6081   70.4469   23.7304 Cl  0  0  0  0  0  0  0  0  0  0  0  0
  -10.1400   72.4677   21.6839 C   0  0  0  0  0  0  0  0  0  0  0  0
  -11.3824   71.8142   21.0738 C   0  0  0  0  0  0  0  0  0  0  0  0
  -17.8827   75.8361   26.9083 C   0  0  0  0  0  0  0  0  0  0  0  0
  -17.5438   77.3279   26.9146 C   0  0  0  0  0  0  0  0  0  0  0  0
  -18.2835   74.2295   22.1547 C   0  0  0  0  0  0  0  0  0  0  0  0
  -17.4065   73.3508   20.9290 S   0  0  0  0  0  0  0  0  0  0  0  0
  -18.7133   73.5383   19.8136 C   0  0  0  0  0  0  0  0  0  0  0  0
  -19.7645   74.2446   20.3774 C   0  0  0  0  0  0  0  0  0  0  0  0
  -19.5201   74.6344   21.6931 C   0  0  0  0  0  0  0  0  0  0  0  0
  -18.7840   73.0801   18.4732 C   0  0  0  0  0  0  0  0  0  0  0  0
  -19.9851   73.0853   17.7824 C   0  0  0  0  0  0  0  0  0  0  0  0
  -21.2314   73.4448   18.5371 C   0  0  1  0  0  0  0  0  0  0  0  0
  -20.9353   74.5976   19.5066 C   0  0  1  0  0  0  0  0  0  0  0  0
  -17.4827   72.5251   17.4789 S   0  0  0  0  0  0  0  0  0  0  0  0
  -18.5665   72.3231   16.1238 C   0  0  0  0  0  0  0  0  0  0  0  0
  -19.8603   72.6597   16.4603 C   0  0  0  0  0  0  0  0  0  0  0  0
  -18.0631   71.8855   14.8703 C   0  0  0  0  0  0  0  0  0  0  0  0
  -16.7943   71.4343   14.5884 C   0  0  0  0  0  0  0  0  0  0  0  0
  -16.5824   71.1048   13.2426 C   0  0  0  0  0  0  0  0  0  0  0  0
  -17.7191   71.3108   12.4754 C   0  0  0  0  0  0  0  0  0  0  0  0
  -19.0446   71.9063   13.4388 S   0  0  0  0  0  0  0  0  0  0  0  0
  -15.2704   70.6353   12.6905 C   0  0  0  0  0  0  0  0  0  0  0  0
  -14.0820   70.9191   13.6029 C   0  0  0  0  0  0  0  0  0  0  0  0
  -22.3517   73.7445   17.6863 N   0  0  0  0  0  0  0  0  0  0  0  0
  -23.2988   74.4277   18.2160 C   0  0  0  0  0  0  0  0  0  0  0  0
  -23.2233   74.9090   19.6177 C   0  0  0  0  0  0  0  0  0  0  0  0
  -22.1087   74.9767   20.2489 N   0  0  0  0  0  0  0  0  0  0  0  0
  -24.5080   74.6889   17.4767 C   0  0  0  0  0  0  0  0  0  0  0  0
  -25.5874   75.1921   18.1048 C   0  0  0  0  0  0  0  0  0  0  0  0
  -25.5596   75.5130   19.5053 C   0  0  0  0  0  0  0  0  0  0  0  0
  -24.4403   75.3663   20.2393 C   0  0  0  0  0  0  0  0  0  0  0  0
  -17.5038   70.6547    8.8243 C   0  0  0  0  0  0  0  0  0  0  0  0
  -18.5938   71.5487    8.6898 C   0  0  0  0  0  0  0  0  0  0  0  0
  -19.1491   71.8996    7.4627 C   0  0  0  0  0  0  0  0  0  0  0  0
  -18.5320   71.3552    6.3166 C   0  0  0  0  0  0  0  0  0  0  0  0
  -17.4480   70.4562    6.4553 C   0  0  0  0  0  0  0  0  0  0  0  0
  -16.9126   70.0805    7.6823 C   0  0  0  0  0  0  0  0  0  0  0  0
  -18.7808   71.6659    4.9593 C   0  0  0  0  0  0  0  0  0  0  0  0
  -17.9473   71.0408    4.0740 C   0  0  0  0  0  0  0  0  0  0  0  0
  -16.8189   69.9848    4.9021 S   0  0  0  0  0  0  0  0  0  0  0  0
  -17.1466   70.4482   10.1789 C   0  0  0  0  0  0  0  0  0  0  0  0
  -17.8841   71.1785   11.0648 C   0  0  0  0  0  0  0  0  0  0  0  0
  -19.1230   72.1192   10.2485 S   0  0  0  0  0  0  0  0  0  0  0  0
  -15.7675   69.1958    7.7509 C   0  0  0  0  0  0  0  0  0  0  0  0
  -20.2979   72.7763    7.3748 C   0  0  0  0  0  0  0  0  0  0  0  0
  -17.9164   71.2585    2.6661 C   0  0  0  0  0  0  0  0  0  0  0  0
  -15.5004   68.1092    6.9687 C   0  0  0  0  0  0  0  0  0  0  0  0
  -14.2538   67.5157    7.2636 C   0  0  0  0  0  0  0  0  0  0  0  0
  -13.5471   68.1404    8.2485 C   0  0  0  0  0  0  0  0  0  0  0  0
  -14.4455   69.4927    8.8481 S   0  0  0  0  0  0  0  0  0  0  0  0
  -20.6063   73.8532    8.1570 C   0  0  0  0  0  0  0  0  0  0  0  0
  -21.8393   74.4442    7.8086 C   0  0  0  0  0  0  0  0  0  0  0  0
  -22.4958   73.8266    6.7844 C   0  0  0  0  0  0  0  0  0  0  0  0
  -21.5656   72.4859    6.2131 S   0  0  0  0  0  0  0  0  0  0  0  0
  -19.0011   72.4688    2.0146 S   0  0  0  0  0  0  0  0  0  0  0  0
  -18.3303   72.2791    0.4228 C   0  0  0  0  0  0  0  0  0  0  0  0
  -17.3545   71.3119    0.4213 C   0  0  0  0  0  0  0  0  0  0  0  0
  -17.1165   70.7233    1.6729 C   0  0  0  0  0  0  0  0  0  0  0  0
  -13.6843   66.1193    6.4314 Cl  0  0  0  0  0  0  0  0  0  0  0  0
  -12.2277   67.7792    8.8357 C   0  0  0  0  0  0  0  0  0  0  0  0
  -12.3787   67.2703   10.2704 C   0  0  0  0  0  0  0  0  0  0  0  0
  -22.4574   75.8297    8.6234 Cl  0  0  0  0  0  0  0  0  0  0  0  0
  -23.7781   74.2057    6.1299 C   0  0  0  0  0  0  0  0  0  0  0  0
  -23.5237   74.9684    4.8274 C   0  0  0  0  0  0  0  0  0  0  0  0
  -16.0655   69.6744    1.8543 C   0  0  0  0  0  0  0  0  0  0  0  0
  -14.7113   70.3071    2.1803 C   0  0  0  0  0  0  0  0  0  0  0  0
  -18.7510   73.1075   -0.6506 C   0  0  0  0  0  0  0  0  0  0  0  0
  -17.8496   73.1364   -2.1465 S   0  0  0  0  0  0  0  0  0  0  0  0
  -18.8724   74.3842   -2.7705 C   0  0  0  0  0  0  0  0  0  0  0  0
  -19.8681   74.7235   -1.8684 C   0  0  0  0  0  0  0  0  0  0  0  0
  -19.7979   74.0043   -0.6766 C   0  0  0  0  0  0  0  0  0  0  0  0
  -18.7186   75.1029   -3.9838 C   0  0  0  0  0  0  0  0  0  0  0  0
  -19.3587   76.3177   -4.1718 C   0  0  0  0  0  0  0  0  0  0  0  0
  -20.1816   76.8785   -3.0486 C   0  0  2  0  0  0  0  0  0  0  0  0
  -20.8845   75.7409   -2.2949 C   0  0  2  0  0  0  0  0  0  0  0  0
  -17.7142   74.6996   -5.3339 S   0  0  0  0  0  0  0  0  0  0  0  0
  -18.1428   76.1907   -6.1356 C   0  0  0  0  0  0  0  0  0  0  0  0
  -19.0272   76.9302   -5.3797 C   0  0  0  0  0  0  0  0  0  0  0  0
  -17.5400   76.5474   -7.3707 C   0  0  0  0  0  0  0  0  0  0  0  0
  -16.6511   75.8184   -8.1259 C   0  0  0  0  0  0  0  0  0  0  0  0
  -16.1626   76.4932   -9.2550 C   0  0  0  0  0  0  0  0  0  0  0  0
  -16.6853   77.7708   -9.3602 C   0  0  0  0  0  0  0  0  0  0  0  0
  -17.8128   78.1107   -8.0746 S   0  0  0  0  0  0  0  0  0  0  0  0
  -15.2118   75.8927  -10.2465 C   0  0  0  0  0  0  0  0  0  0  0  0
  -15.2622   74.3684  -10.2877 C   0  0  0  0  0  0  0  0  0  0  0  0
  -21.1162   77.8872   -3.4714 N   0  0  0  0  0  0  0  0  0  0  0  0
  -22.0961   78.1201   -2.6776 C   0  0  0  0  0  0  0  0  0  0  0  0
  -22.2714   77.3650   -1.4121 C   0  0  0  0  0  0  0  0  0  0  0  0
  -21.6863   76.2417   -1.2103 N   0  0  0  0  0  0  0  0  0  0  0  0
  -23.0263   79.1830   -2.9635 C   0  0  0  0  0  0  0  0  0  0  0  0
  -23.9054   79.5808   -2.0245 C   0  0  0  0  0  0  0  0  0  0  0  0
  -23.9669   78.9468   -0.7362 C   0  0  0  0  0  0  0  0  0  0  0  0
  -23.1794   77.8989   -0.4287 C   0  0  0  0  0  0  0  0  0  0  0  0
  -15.2841   80.2090  -11.7943 C   0  0  0  0  0  0  0  0  0  0  0  0
  -16.4965   80.9228  -11.6368 C   0  0  0  0  0  0  0  0  0  0  0  0
  -16.7907   82.0990  -12.3209 C   0  0  0  0  0  0  0  0  0  0  0  0
  -15.7901   82.5905  -13.1846 C   0  0  0  0  0  0  0  0  0  0  0  0
  -14.5727   81.8822  -13.3279 C   0  0  0  0  0  0  0  0  0  0  0  0
  -14.2831   80.7041  -12.6520 C   0  0  0  0  0  0  0  0  0  0  0  0
  -15.7866   83.7888  -13.9358 C   0  0  0  0  0  0  0  0  0  0  0  0
  -14.6321   84.0132  -14.6335 C   0  0  0  0  0  0  0  0  0  0  0  0
  -13.4779   82.7171  -14.3916 S   0  0  0  0  0  0  0  0  0  0  0  0
  -15.2648   79.0115  -11.0364 C   0  0  0  0  0  0  0  0  0  0  0  0
  -16.3939   78.8083  -10.2977 C   0  0  0  0  0  0  0  0  0  0  0  0
  -17.5580   80.1019  -10.5264 S   0  0  0  0  0  0  0  0  0  0  0  0
  -13.0111   80.0249  -12.8039 C   0  0  0  0  0  0  0  0  0  0  0  0
  -18.0681   82.7603  -12.1513 C   0  0  0  0  0  0  0  0  0  0  0  0
  -14.3683   85.1372  -15.4686 C   0  0  0  0  0  0  0  0  0  0  0  0
  -12.2238   79.4803  -11.8309 C   0  0  0  0  0  0  0  0  0  0  0  0
  -11.0414   78.9070  -12.3470 C   0  0  0  0  0  0  0  0  0  0  0  0
  -10.9159   78.9939  -13.7023 C   0  0  0  0  0  0  0  0  0  0  0  0
  -12.2811   79.8200  -14.3715 S   0  0  0  0  0  0  0  0  0  0  0  0
  -18.8081   82.8759  -11.0082 C   0  0  0  0  0  0  0  0  0  0  0  0
  -20.0390   83.5306  -11.2205 C   0  0  0  0  0  0  0  0  0  0  0  0
  -20.2606   83.9183  -12.5099 C   0  0  0  0  0  0  0  0  0  0  0  0
  -18.9200   83.4624  -13.5007 S   0  0  0  0  0  0  0  0  0  0  0  0
  -15.6892   86.2391  -15.7829 S   0  0  0  0  0  0  0  0  0  0  0  0
  -14.6760   87.2555  -16.7598 C   0  0  0  0  0  0  0  0  0  0  0  0
  -13.3986   86.7471  -16.8201 C   0  0  0  0  0  0  0  0  0  0  0  0
  -13.2113   85.5583  -16.0993 C   0  0  0  0  0  0  0  0  0  0  0  0
   -9.8644   78.1572  -11.3352 Cl  0  0  0  0  0  0  0  0  0  0  0  0
   -9.7888   78.5509  -14.5680 C   0  0  0  0  0  0  0  0  0  0  0  0
   -8.8680   79.7256  -14.9067 C   0  0  0  0  0  0  0  0  0  0  0  0
  -21.1612   83.8217   -9.9478 Cl  0  0  0  0  0  0  0  0  0  0  0  0
  -21.4602   84.5844  -13.0876 C   0  0  0  0  0  0  0  0  0  0  0  0
  -22.4881   83.5519  -13.5576 C   0  0  0  0  0  0  0  0  0  0  0  0
  -11.8893   84.8577  -16.0754 C   0  0  0  0  0  0  0  0  0  0  0  0
  -11.8014   83.8080  -17.1848 C   0  0  0  0  0  0  0  0  0  0  0  0
  -15.1737   88.4390  -17.3699 C   0  0  0  0  0  0  0  0  0  0  0  0
  -16.8588   88.8753  -17.2499 S   0  0  0  0  0  0  0  0  0  0  0  0
  -16.5902   90.3016  -18.1887 C   0  0  0  0  0  0  0  0  0  0  0  0
  -15.2612   90.4186  -18.5632 C   0  0  0  0  0  0  0  0  0  0  0  0
  -14.4652   89.3734  -18.0985 C   0  0  0  0  0  0  0  0  0  0  0  0
  -17.5430   91.2717  -18.5967 C   0  0  0  0  0  0  0  0  0  0  0  0
  -17.2433   92.1827  -19.5951 C   0  0  0  0  0  0  0  0  0  0  0  0
  -15.9288   92.0523  -20.3079 C   0  0  2  0  0  0  0  0  0  0  0  0
  -14.8373   91.6520  -19.3055 C   0  0  2  0  0  0  0  0  0  0  0  0
  -19.1376   91.5196  -17.9714 S   0  0  0  0  0  0  0  0  0  0  0  0
  -19.3901   92.8571  -19.0641 C   0  0  0  0  0  0  0  0  0  0  0  0
  -18.2875   93.0701  -19.8606 C   0  0  0  0  0  0  0  0  0  0  0  0
  -20.6213   93.5720  -19.0585 C   0  0  0  0  0  0  0  0  0  0  0  0
  -21.7271   93.3571  -18.2775 C   0  0  0  0  0  0  0  0  0  0  0  0
  -22.7850   94.2566  -18.5338 C   0  0  0  0  0  0  0  0  0  0  0  0
  -22.4653   95.1467  -19.5144 C   0  0  0  0  0  0  0  0  0  0  0  0
  -20.8806   94.9133  -20.1402 S   0  0  0  0  0  0  0  0  0  0  0  0
  -24.1084   94.1987  -17.8380 C   0  0  0  0  0  0  0  0  0  0  0  0
  -24.9589   93.0521  -18.3860 C   0  0  0  0  0  0  0  0  0  0  0  0
  -15.5593   93.2286  -21.0490 N   0  0  0  0  0  0  0  0  0  0  0  0
  -14.3149   93.3522  -21.3335 C   0  0  0  0  0  0  0  0  0  0  0  0
  -13.3106   92.3525  -20.8931 C   0  0  0  0  0  0  0  0  0  0  0  0
  -13.5535   91.5257  -19.9429 N   0  0  0  0  0  0  0  0  0  0  0  0
  -13.8628   94.4435  -22.1592 C   0  0  0  0  0  0  0  0  0  0  0  0
  -12.6091   94.4445  -22.6499 C   0  0  0  0  0  0  0  0  0  0  0  0
  -11.6828   93.3887  -22.3464 C   0  0  0  0  0  0  0  0  0  0  0  0
  -12.0145   92.3769  -21.5224 C   0  0  0  0  0  0  0  0  0  0  0  0
  -13.6620   73.6303   24.8518 H   0  0  0  0  0  0  0  0  0  0  0  0
  -10.2155   75.1940   30.9274 H   0  0  0  0  0  0  0  0  0  0  0  0
   -7.9684   74.1767   30.0957 H   0  0  0  0  0  0  0  0  0  0  0  0
  -12.2370   74.3586   31.8794 H   0  0  0  0  0  0  0  0  0  0  0  0
   -9.6765   71.5049   26.2896 H   0  0  0  0  0  0  0  0  0  0  0  0
  -19.3039   75.3994   24.5403 H   0  0  0  0  0  0  0  0  0  0  0  0
  -14.7271   79.1421   32.1510 H   0  0  0  0  0  0  0  0  0  0  0  0
  -14.6768   78.2152   33.6612 H   0  0  0  0  0  0  0  0  0  0  0  0
  -16.7022   77.8127   31.4019 H   0  0  0  0  0  0  0  0  0  0  0  0
  -17.0258   78.6365   32.9330 H   0  0  0  0  0  0  0  0  0  0  0  0
  -16.6672   76.9066   32.9175 H   0  0  0  0  0  0  0  0  0  0  0  0
   -9.2531   71.8848   21.4280 H   0  0  0  0  0  0  0  0  0  0  0  0
  -10.0244   73.4740   21.2751 H   0  0  0  0  0  0  0  0  0  0  0  0
  -11.5064   70.8056   21.4609 H   0  0  0  0  0  0  0  0  0  0  0  0
  -11.2859   71.7626   19.9925 H   0  0  0  0  0  0  0  0  0  0  0  0
  -12.2718   72.3913   21.3174 H   0  0  0  0  0  0  0  0  0  0  0  0
  -17.4170   75.3530   27.7685 H   0  0  0  0  0  0  0  0  0  0  0  0
  -18.9643   75.7131   26.9948 H   0  0  0  0  0  0  0  0  0  0  0  0
  -16.4691   77.4756   26.8488 H   0  0  0  0  0  0  0  0  0  0  0  0
  -17.8989   77.7889   27.8327 H   0  0  0  0  0  0  0  0  0  0  0  0
  -18.0141   77.8253   26.0693 H   0  0  0  0  0  0  0  0  0  0  0  0
  -20.2234   75.1985   22.2757 H   0  0  0  0  0  0  0  0  0  0  0  0
  -21.5148   72.5542   19.1352 H   0  0  0  0  0  0  0  0  0  0  0  0
  -20.6363   75.4837   18.9093 H   0  0  0  0  0  0  0  0  0  0  0  0
  -20.6837   72.6020   15.7723 H   0  0  0  0  0  0  0  0  0  0  0  0
  -16.0450   71.3578   15.3549 H   0  0  0  0  0  0  0  0  0  0  0  0
  -15.1060   71.1208   11.7245 H   0  0  0  0  0  0  0  0  0  0  0  0
  -15.3263   69.5572   12.5083 H   0  0  0  0  0  0  0  0  0  0  0  0
  -14.0371   71.9753   13.8571 H   0  0  0  0  0  0  0  0  0  0  0  0
  -13.1596   70.6494   13.0936 H   0  0  0  0  0  0  0  0  0  0  0  0
  -14.1436   70.3395   14.5205 H   0  0  0  0  0  0  0  0  0  0  0  0
  -24.5173   74.4120   16.4343 H   0  0  0  0  0  0  0  0  0  0  0  0
  -26.5088   75.3561   17.5656 H   0  0  0  0  0  0  0  0  0  0  0  0
  -26.4658   75.8887   19.9573 H   0  0  0  0  0  0  0  0  0  0  0  0
  -24.3909   75.6320   21.2836 H   0  0  0  0  0  0  0  0  0  0  0  0
  -19.5271   72.3667    4.6333 H   0  0  0  0  0  0  0  0  0  0  0  0
  -16.3973   69.7448   10.4808 H   0  0  0  0  0  0  0  0  0  0  0  0
  -16.1758   67.7165    6.2319 H   0  0  0  0  0  0  0  0  0  0  0  0
  -19.9698   74.2428    8.9291 H   0  0  0  0  0  0  0  0  0  0  0  0
  -16.8185   71.0393   -0.4714 H   0  0  0  0  0  0  0  0  0  0  0  0
  -11.5738   68.6550    8.8322 H   0  0  0  0  0  0  0  0  0  0  0  0
  -11.7719   67.0064    8.2142 H   0  0  0  0  0  0  0  0  0  0  0  0
  -12.8216   68.0405   10.8983 H   0  0  0  0  0  0  0  0  0  0  0  0
  -11.4074   67.0034   10.6783 H   0  0  0  0  0  0  0  0  0  0  0  0
  -13.0194   66.3919   10.2943 H   0  0  0  0  0  0  0  0  0  0  0  0
  -24.3497   74.8321    6.8174 H   0  0  0  0  0  0  0  0  0  0  0  0
  -24.3585   73.3060    5.9141 H   0  0  0  0  0  0  0  0  0  0  0  0
  -22.9589   75.8761    5.0267 H   0  0  0  0  0  0  0  0  0  0  0  0
  -24.4676   75.2400    4.3618 H   0  0  0  0  0  0  0  0  0  0  0  0
  -22.9564   74.3518    4.1338 H   0  0  0  0  0  0  0  0  0  0  0  0
  -15.9804   69.1049    0.9264 H   0  0  0  0  0  0  0  0  0  0  0  0
  -16.3482   68.9845    2.6503 H   0  0  0  0  0  0  0  0  0  0  0  0
  -14.4052   70.9769    1.3799 H   0  0  0  0  0  0  0  0  0  0  0  0
  -13.9559   69.5346    2.2982 H   0  0  0  0  0  0  0  0  0  0  0  0
  -14.7690   70.8765    3.1045 H   0  0  0  0  0  0  0  0  0  0  0  0
  -20.4797   74.1401    0.1426 H   0  0  0  0  0  0  0  0  0  0  0  0
  -19.4750   77.3730   -2.3500 H   0  0  0  0  0  0  0  0  0  0  0  0
  -21.5768   75.2362   -2.9993 H   0  0  0  0  0  0  0  0  0  0  0  0
  -19.4135   77.8842   -5.6884 H   0  0  0  0  0  0  0  0  0  0  0  0
  -16.3644   74.8205   -7.8478 H   0  0  0  0  0  0  0  0  0  0  0  0
  -14.1922   76.2076  -10.0010 H   0  0  0  0  0  0  0  0  0  0  0  0
  -15.4486   76.2877  -11.2378 H   0  0  0  0  0  0  0  0  0  0  0  0
  -14.8849   73.9376   -9.3639 H   0  0  0  0  0  0  0  0  0  0  0  0
  -14.6461   74.0035  -11.1063 H   0  0  0  0  0  0  0  0  0  0  0  0
  -16.2819   74.0238  -10.4436 H   0  0  0  0  0  0  0  0  0  0  0  0
  -22.9421   79.6664   -3.9241 H   0  0  0  0  0  0  0  0  0  0  0  0
  -24.5814   80.4004   -2.2189 H   0  0  0  0  0  0  0  0  0  0  0  0
  -24.6756   79.3296   -0.0165 H   0  0  0  0  0  0  0  0  0  0  0  0
  -23.2323   77.3895    0.5208 H   0  0  0  0  0  0  0  0  0  0  0  0
  -16.6018   84.4885  -13.9510 H   0  0  0  0  0  0  0  0  0  0  0  0
  -14.4260   78.3440  -11.0299 H   0  0  0  0  0  0  0  0  0  0  0  0
  -12.4477   79.5238  -10.7810 H   0  0  0  0  0  0  0  0  0  0  0  0
  -18.4830   82.5427  -10.0403 H   0  0  0  0  0  0  0  0  0  0  0  0
  -12.6091   87.2226  -17.3737 H   0  0  0  0  0  0  0  0  0  0  0  0
  -10.1843   78.1241  -15.4921 H   0  0  0  0  0  0  0  0  0  0  0  0
   -9.2230   77.7792  -14.0423 H   0  0  0  0  0  0  0  0  0  0  0  0
   -9.4260   80.5016  -15.4261 H   0  0  0  0  0  0  0  0  0  0  0  0
   -8.0534   79.3927  -15.5446 H   0  0  0  0  0  0  0  0  0  0  0  0
   -8.4481   80.1500  -13.9977 H   0  0  0  0  0  0  0  0  0  0  0  0
  -21.1587   85.2082  -13.9310 H   0  0  0  0  0  0  0  0  0  0  0  0
  -21.9097   85.2229  -12.3238 H   0  0  0  0  0  0  0  0  0  0  0  0
  -22.0549   82.9089  -14.3205 H   0  0  0  0  0  0  0  0  0  0  0  0
  -23.3580   84.0522  -13.9751 H   0  0  0  0  0  0  0  0  0  0  0  0
  -22.8086   82.9327  -12.7233 H   0  0  0  0  0  0  0  0  0  0  0  0
  -11.7299   84.3791  -15.1082 H   0  0  0  0  0  0  0  0  0  0  0  0
  -11.1013   85.5996  -16.2205 H   0  0  0  0  0  0  0  0  0  0  0  0
  -12.5649   83.0461  -17.0507 H   0  0  0  0  0  0  0  0  0  0  0  0
  -10.8271   83.3263  -17.1680 H   0  0  0  0  0  0  0  0  0  0  0  0
  -11.9441   84.2740  -18.1573 H   0  0  0  0  0  0  0  0  0  0  0  0
  -13.4112   89.3121  -18.2919 H   0  0  0  0  0  0  0  0  0  0  0  0
  -16.0404   91.2322  -21.0468 H   0  0  0  0  0  0  0  0  0  0  0  0
  -14.7423   92.4647  -18.5560 H   0  0  0  0  0  0  0  0  0  0  0  0
  -18.2360   93.8426  -20.6057 H   0  0  0  0  0  0  0  0  0  0  0  0
  -21.7709   92.5759  -17.5389 H   0  0  0  0  0  0  0  0  0  0  0  0
  -23.0707   95.9379  -19.9102 H   0  0  0  0  0  0  0  0  0  0  0  0
  -24.6359   95.1441  -17.9768 H   0  0  0  0  0  0  0  0  0  0  0  0
  -23.9464   94.0494  -16.7682 H   0  0  0  0  0  0  0  0  0  0  0  0
  -25.1436   93.1936  -19.4486 H   0  0  0  0  0  0  0  0  0  0  0  0
  -25.9151   93.0094  -17.8699 H   0  0  0  0  0  0  0  0  0  0  0  0
  -24.4481   92.1018  -18.2505 H   0  0  0  0  0  0  0  0  0  0  0  0
  -14.5829   95.2093  -22.4007 H   0  0  0  0  0  0  0  0  0  0  0  0
  -12.2741   95.2420  -23.2968 H   0  0  0  0  0  0  0  0  0  0  0  0
  -10.6996   93.4334  -22.7914 H   0  0  0  0  0  0  0  0  0  0  0  0
  -11.3229   91.5926  -21.2571 H   0  0  0  0  0  0  0  0  0  0  0  0
  1  6  1  0  0  0  0
  1 10  1  0  0  0  0
  2 12  1  0  0  0  0
  2  1  2  0  0  0  0
  3  4  2  0  0  0  0
  3  2  1  0  0  0  0
  4  5  1  0  0  0  0
  5  6  2  0  0  0  0
  6 13  1  0  0  0  0
  7  8  2  0  0  0  0
  7  4  1  0  0  0  0
  8  9  1  0  0  0  0
  9  5  1  0  0  0  0
 10188  1  0  0  0  0
 11 10  2  0  0  0  0
 11189  1  0  0  0  0
 12 11  1  0  0  0  0
 13 16  2  0  0  0  0
 14  3  1  0  0  0  0
 15 27  2  0  0  0  0
 15  8  1  0  0  0  0
 16190  1  0  0  0  0
 16 17  1  0  0  0  0
 17 28  1  0  0  0  0
 18 17  2  0  0  0  0
 18 29  1  0  0  0  0
 19 13  1  0  0  0  0
 19 18  1  0  0  0  0
 20 14  2  0  0  0  0
 20191  1  0  0  0  0
 21 20  1  0  0  0  0
 22 23  1  0  0  0  0
 22 21  2  0  0  0  0
 23 14  1  0  0  0  0
 24 15  1  0  0  0  0
 25 24  1  0  0  0  0
 25 26  2  0  0  0  0
 26192  1  0  0  0  0
 26 27  1  0  0  0  0
 27 34  1  0  0  0  0
 29194  1  0  0  0  0
 30 29  1  0  0  0  0
 30197  1  0  0  0  0
 30196  1  0  0  0  0
 31 21  1  0  0  0  0
 32 22  1  0  0  0  0
 33202  1  0  0  0  0
 33200  1  0  0  0  0
 33 32  1  0  0  0  0
 34 35  1  0  0  0  0
 34204  1  0  0  0  0
 34203  1  0  0  0  0
 35206  1  0  0  0  0
 36 25  1  0  0  0  0
 37 36  1  0  0  0  0
 38 39  2  0  0  0  0
 38 37  1  0  0  0  0
 39 40  1  0  0  0  0
 40 36  2  0  0  0  0
 40208  1  0  0  0  0
 41 38  1  0  0  0  0
 42 41  2  0  0  0  0
 42 43  1  0  0  0  0
 43209  1  0  0  0  0
 43 44  1  1  0  0  0
 44210  1  6  0  0  0
 44 58  1  0  0  0  0
 44 39  1  0  0  0  0
 45 41  1  0  0  0  0
 46 47  2  0  0  0  0
 46 45  1  0  0  0  0
 47 42  1  0  0  0  0
 48 46  1  0  0  0  0
 49 48  2  0  0  0  0
 49212  1  0  0  0  0
 50 49  1  0  0  0  0
 51 50  2  0  0  0  0
 51 52  1  0  0  0  0
 52 48  1  0  0  0  0
 53 50  1  0  0  0  0
 53 54  1  0  0  0  0
 54215  1  0  0  0  0
 54217  1  0  0  0  0
 55 56  1  0  0  0  0
 55 43  1  0  0  0  0
 56 57  2  0  0  0  0
 57 62  1  0  0  0  0
 57 58  1  0  0  0  0
 59 60  2  0  0  0  0
 59 56  1  0  0  0  0
 60 61  1  0  0  0  0
 61220  1  0  0  0  0
 61 62  2  0  0  0  0
 62221  1  0  0  0  0
 63 72  1  0  0  0  0
 64 63  1  0  0  0  0
 64 74  1  0  0  0  0
 65 64  2  0  0  0  0
 66 67  2  0  0  0  0
 66 65  1  0  0  0  0
 67 68  1  0  0  0  0
 68 75  1  0  0  0  0
 68 63  2  0  0  0  0
 69 66  1  0  0  0  0
 70 71  1  0  0  0  0
 70 69  2  0  0  0  0
 71 67  1  0  0  0  0
 72223  1  0  0  0  0
 72 73  2  0  0  0  0
 73 51  1  0  0  0  0
 74 73  1  0  0  0  0
 75 81  1  0  0  0  0
 76 65  1  0  0  0  0
 76 82  2  0  0  0  0
 77 70  1  0  0  0  0
 78 79  1  0  0  0  0
 78 75  2  0  0  0  0
 79 80  2  0  0  0  0
 80 91  1  0  0  0  0
 80 81  1  0  0  0  0
 82225  1  0  0  0  0
 83 82  1  0  0  0  0
 83 93  1  0  0  0  0
 84 83  2  0  0  0  0
 85 84  1  0  0  0  0
 85 76  1  0  0  0  0
 86 77  1  0  0  0  0
 87 86  1  0  0  0  0
 88 87  2  0  0  0  0
 88 89  1  0  0  0  0
 89 96  1  0  0  0  0
 89 77  2  0  0  0  0
 90 79  1  0  0  0  0
 91 92  1  0  0  0  0
 92231  1  0  0  0  0
 92230  1  0  0  0  0
 92229  1  0  0  0  0
 94 84  1  0  0  0  0
 94232  1  0  0  0  0
 95234  1  0  0  0  0
 95 94  1  0  0  0  0
 96 97  1  0  0  0  0
 96238  1  0  0  0  0
 97240  1  0  0  0  0
 97241  1  0  0  0  0
 98 87  1  0  0  0  0
 99 98  1  0  0  0  0
100 99  1  0  0  0  0
100101  2  0  0  0  0
101102  1  0  0  0  0
102 98  2  0  0  0  0
102242  1  0  0  0  0
103100  1  0  0  0  0
104103  2  0  0  0  0
104105  1  0  0  0  0
105243  1  0  0  0  0
105106  1  1  0  0  0
106244  1  6  0  0  0
106101  1  0  0  0  0
106120  1  0  0  0  0
107103  1  0  0  0  0
108109  2  0  0  0  0
108107  1  0  0  0  0
109104  1  0  0  0  0
110108  1  0  0  0  0
111246  1  0  0  0  0
111110  2  0  0  0  0
112111  1  0  0  0  0
113112  2  0  0  0  0
113114  1  0  0  0  0
114110  1  0  0  0  0
115247  1  0  0  0  0
115112  1  0  0  0  0
116115  1  0  0  0  0
116249  1  0  0  0  0
117105  1  0  0  0  0
117118  1  0  0  0  0
118119  1  0  0  0  0
119120  1  0  0  0  0
119124  2  0  0  0  0
121118  2  0  0  0  0
121122  1  0  0  0  0
122123  2  0  0  0  0
123124  1  0  0  0  0
123254  1  0  0  0  0
124255  1  0  0  0  0
125126  1  0  0  0  0
125134  1  0  0  0  0
126136  1  0  0  0  0
127138  1  0  0  0  0
127126  2  0  0  0  0
128127  1  0  0  0  0
129128  2  0  0  0  0
129130  1  0  0  0  0
130125  2  0  0  0  0
131128  1  0  0  0  0
132133  1  0  0  0  0
132131  2  0  0  0  0
133129  1  0  0  0  0
134257  1  0  0  0  0
134135  2  0  0  0  0
135113  1  0  0  0  0
136135  1  0  0  0  0
137130  1  0  0  0  0
137140  2  0  0  0  0
138144  2  0  0  0  0
139132  1  0  0  0  0
140258  1  0  0  0  0
141140  1  0  0  0  0
141152  1  0  0  0  0
142141  2  0  0  0  0
143142  1  0  0  0  0
143137  1  0  0  0  0
144259  1  0  0  0  0
145144  1  0  0  0  0
145155  1  0  0  0  0
146145  2  0  0  0  0
147146  1  0  0  0  0
147138  1  0  0  0  0
148139  1  0  0  0  0
149148  1  0  0  0  0
150149  2  0  0  0  0
150151  1  0  0  0  0
151158  1  0  0  0  0
151139  2  0  0  0  0
153262  1  0  0  0  0
153142  1  0  0  0  0
154153  1  0  0  0  0
154265  1  0  0  0  0
156146  1  0  0  0  0
156267  1  0  0  0  0
157156  1  0  0  0  0
157270  1  0  0  0  0
158271  1  0  0  0  0
159274  1  0  0  0  0
159273  1  0  0  0  0
159158  1  0  0  0  0
160161  1  0  0  0  0
160149  1  0  0  0  0
162161  1  0  0  0  0
163162  2  0  0  0  0
163164  1  0  0  0  0
164160  2  0  0  0  0
165162  1  0  0  0  0
165169  1  0  0  0  0
166165  2  0  0  0  0
167166  1  0  0  0  0
167168  1  1  0  0  0
168163  1  0  0  0  0
168278  1  1  0  0  0
170172  1  0  0  0  0
170169  1  0  0  0  0
171166  1  0  0  0  0
171170  2  0  0  0  0
172173  2  0  0  0  0
173280  1  0  0  0  0
174173  1  0  0  0  0
174177  1  0  0  0  0
175174  2  0  0  0  0
176175  1  0  0  0  0
176172  1  0  0  0  0
177283  1  0  0  0  0
178286  1  0  0  0  0
178285  1  0  0  0  0
178177  1  0  0  0  0
179167  1  0  0  0  0
180179  1  0  0  0  0
180181  1  0  0  0  0
181182  1  0  0  0  0
182168  1  0  0  0  0
183180  2  0  0  0  0
184185  2  0  0  0  0
184183  1  0  0  0  0
185186  1  0  0  0  0
186290  1  0  0  0  0
186181  2  0  0  0  0
187  7  1  0  0  0  0
193 29  1  0  0  0  0
195 30  1  0  0  0  0
198 32  1  0  0  0  0
199 32  1  0  0  0  0
201 33  1  0  0  0  0
205 35  1  0  0  0  0
207 35  1  0  0  0  0
211 47  1  0  0  0  0
213 53  1  0  0  0  0
214 53  1  0  0  0  0
216 54  1  0  0  0  0
218 59  1  0  0  0  0
219 60  1  0  0  0  0
222 69  1  0  0  0  0
224 78  1  0  0  0  0
226 88  1  0  0  0  0
227 91  1  0  0  0  0
228 91  1  0  0  0  0
233 94  1  0  0  0  0
235 95  1  0  0  0  0
236 95  1  0  0  0  0
237 96  1  0  0  0  0
239 97  1  0  0  0  0
245109  1  0  0  0  0
248115  1  0  0  0  0
250116  1  0  0  0  0
251116  1  0  0  0  0
252121  1  0  0  0  0
253122  1  0  0  0  0
256131  1  0  0  0  0
260150  1  0  0  0  0
261153  1  0  0  0  0
263154  1  0  0  0  0
264154  1  0  0  0  0
266156  1  0  0  0  0
268157  1  0  0  0  0
269157  1  0  0  0  0
272158  1  0  0  0  0
275159  1  0  0  0  0
276164  1  0  0  0  0
277167  1  0  0  0  0
279171  1  0  0  0  0
281175  1  0  0  0  0
282177  1  0  0  0  0
284178  1  0  0  0  0
287183  1  0  0  0  0
288184  1  0  0  0  0
289185  1  0  0  0  0
M  RAD  6  55   2  58   2 117   2 120   2 179   2 182   2
M  END
