SCF done       -150.612747475935          0.000246981856
 OpenBabel12282109573D

 88 94  0  0  0  0  0  0  0  0999 V2000
    0.6396    1.4714   -0.1689 C   0  0  0  0  0  0  0  0  0  0  0  0
    1.8183    0.7780   -0.1297 C   0  0  0  0  0  0  0  0  0  0  0  0
    1.8657   -0.6251   -0.0929 C   0  0  0  0  0  0  0  0  0  0  0  0
    0.7134   -1.3970   -0.0973 C   0  0  0  0  0  0  0  0  0  0  0  0
   -0.5185   -0.6795   -0.1610 C   0  0  0  0  0  0  0  0  0  0  0  0
   -0.5594    0.7383   -0.1912 C   0  0  0  0  0  0  0  0  0  0  0  0
   -1.6610   -1.3750   -0.1481 N   0  0  0  0  0  0  0  0  0  0  0  0
   -2.8167   -0.7531   -0.1732 C   0  0  0  0  0  0  0  0  0  0  0  0
   -2.8520    0.6764   -0.2868 C   0  0  0  0  0  0  0  0  0  0  0  0
   -1.7415    1.3765   -0.2706 N   0  0  0  0  0  0  0  0  0  0  0  0
    2.9838    1.4475   -0.1144 F   0  0  0  0  0  0  0  0  0  0  0  0
    3.0847   -1.1928   -0.0327 F   0  0  0  0  0  0  0  0  0  0  0  0
    1.7410   -3.7205    0.0432 C   0  0  0  0  0  0  0  0  0  0  0  0
    1.3469   -5.0488    0.2221 C   0  0  0  0  0  0  0  0  0  0  0  0
   -0.0144   -5.1968    0.3430 C   0  0  0  0  0  0  0  0  0  0  0  0
   -0.8244   -3.6585    0.2005 S   0  0  0  0  0  0  0  0  0  0  0  0
    0.6898   -2.8298    0.0116 C   0  0  0  0  0  0  0  0  0  0  0  0
   -4.0091   -1.5911   -0.0463 C   0  0  0  0  0  0  0  0  0  0  0  0
   -4.0762   -2.7817   -0.7656 C   0  0  0  0  0  0  0  0  0  0  0  0
   -5.1614   -3.6388   -0.6699 C   0  0  0  0  0  0  0  0  0  0  0  0
   -6.2051   -3.3075    0.2205 C   0  0  0  0  0  0  0  0  0  0  0  0
   -6.1095   -2.1247    0.9543 C   0  0  0  0  0  0  0  0  0  0  0  0
   -5.0435   -1.2637    0.8229 C   0  0  0  0  0  0  0  0  0  0  0  0
   -4.0993    1.4241   -0.4555 C   0  0  0  0  0  0  0  0  0  0  0  0
   -4.2480    2.6624    0.1567 C   0  0  0  0  0  0  0  0  0  0  0  0
   -5.4243    3.3711    0.0114 C   0  0  0  0  0  0  0  0  0  0  0  0
   -6.4778    2.8884   -0.7588 C   0  0  0  0  0  0  0  0  0  0  0  0
   -6.3155    1.6556   -1.4264 C   0  0  0  0  0  0  0  0  0  0  0  0
   -5.1330    0.9483   -1.2544 C   0  0  0  0  0  0  0  0  0  0  0  0
   -7.6678    3.5453   -0.8970 O   0  0  0  0  0  0  0  0  0  0  0  0
   -7.8439    4.8051   -0.2798 C   0  0  0  0  0  0  0  0  0  0  0  0
   -9.2401    5.2931   -0.6348 C   0  0  0  0  0  0  0  0  0  0  0  0
   -7.2181    1.0358   -2.2318 O   0  0  0  0  0  0  0  0  0  0  0  0
   -8.3399    1.7207   -2.7643 C   0  0  0  0  0  0  0  0  0  0  0  0
   -8.9655    0.8062   -3.8071 C   0  0  0  0  0  0  0  0  0  0  0  0
   -7.3250   -4.0262    0.4820 O   0  0  0  0  0  0  0  0  0  0  0  0
   -7.7029   -5.1514   -0.2933 C   0  0  0  0  0  0  0  0  0  0  0  0
   -9.0580   -5.6111    0.2242 C   0  0  0  0  0  0  0  0  0  0  0  0
   -5.2752   -4.7946   -1.3969 O   0  0  0  0  0  0  0  0  0  0  0  0
   -4.4414   -5.0121   -2.5198 C   0  0  0  0  0  0  0  0  0  0  0  0
   -3.1407   -5.7287   -2.1740 C   0  0  0  0  0  0  0  0  0  0  0  0
   -0.7903   -6.3921    0.5725 C   0  0  0  0  0  0  0  0  0  0  0  0
   -2.1104   -6.3042    1.0351 C   0  0  0  0  0  0  0  0  0  0  0  0
   -2.8785   -7.4190    1.2736 C   0  0  0  0  0  0  0  0  0  0  0  0
   -2.3662   -8.7049    1.0644 C   0  0  0  0  0  0  0  0  0  0  0  0
   -1.0566   -8.8132    0.5923 C   0  0  0  0  0  0  0  0  0  0  0  0
   -0.3030   -7.6863    0.3572 C   0  0  0  0  0  0  0  0  0  0  0  0
   -3.1524   -9.8873    1.3305 C   0  0  0  0  0  0  0  0  0  0  0  0
   -2.4901  -11.4778    1.0649 S   0  0  0  0  0  0  0  0  0  0  0  0
   -3.9402  -12.2209    1.5976 C   0  0  0  0  0  0  0  0  0  0  0  0
   -4.8802  -11.3084    1.9584 C   0  0  0  0  0  0  0  0  0  0  0  0
   -4.4349   -9.9822    1.8070 C   0  0  0  0  0  0  0  0  0  0  0  0
    0.9489   -7.8699   -0.1154 F   0  0  0  0  0  0  0  0  0  0  0  0
    0.6212    2.5476   -0.1882 H   0  0  0  0  0  0  0  0  0  0  0  0
    2.7703   -3.4318   -0.0579 H   0  0  0  0  0  0  0  0  0  0  0  0
    2.0499   -5.8590    0.2804 H   0  0  0  0  0  0  0  0  0  0  0  0
   -3.2502   -3.0170   -1.4153 H   0  0  0  0  0  0  0  0  0  0  0  0
   -6.9185   -1.9021    1.6316 H   0  0  0  0  0  0  0  0  0  0  0  0
   -5.0016   -0.3584    1.4077 H   0  0  0  0  0  0  0  0  0  0  0  0
   -3.4452    3.0565    0.7585 H   0  0  0  0  0  0  0  0  0  0  0  0
   -5.5214    4.3181    0.5172 H   0  0  0  0  0  0  0  0  0  0  0  0
   -5.0407    0.0147   -1.7855 H   0  0  0  0  0  0  0  0  0  0  0  0
   -7.0896    5.5150   -0.6458 H   0  0  0  0  0  0  0  0  0  0  0  0
   -7.7423    4.7105    0.8100 H   0  0  0  0  0  0  0  0  0  0  0  0
   -9.3413    5.3809   -1.7132 H   0  0  0  0  0  0  0  0  0  0  0  0
   -9.4182    6.2630   -0.1797 H   0  0  0  0  0  0  0  0  0  0  0  0
   -9.9836    4.5880   -0.2734 H   0  0  0  0  0  0  0  0  0  0  0  0
   -8.0241    2.6633   -3.2258 H   0  0  0  0  0  0  0  0  0  0  0  0
   -9.0629    1.9433   -1.9722 H   0  0  0  0  0  0  0  0  0  0  0  0
   -8.2489    0.5931   -4.5957 H   0  0  0  0  0  0  0  0  0  0  0  0
   -9.8407    1.2832   -4.2388 H   0  0  0  0  0  0  0  0  0  0  0  0
   -9.2604   -0.1322   -3.3457 H   0  0  0  0  0  0  0  0  0  0  0  0
   -6.9624   -5.9519   -0.1913 H   0  0  0  0  0  0  0  0  0  0  0  0
   -7.7751   -4.8751   -1.3512 H   0  0  0  0  0  0  0  0  0  0  0  0
   -8.9854   -5.8713    1.2767 H   0  0  0  0  0  0  0  0  0  0  0  0
   -9.3918   -6.4795   -0.3365 H   0  0  0  0  0  0  0  0  0  0  0  0
   -9.7883   -4.8138    0.1161 H   0  0  0  0  0  0  0  0  0  0  0  0
   -4.2429   -4.0668   -3.0380 H   0  0  0  0  0  0  0  0  0  0  0  0
   -5.0410   -5.6478   -3.1804 H   0  0  0  0  0  0  0  0  0  0  0  0
   -2.5143   -5.1210   -1.5275 H   0  0  0  0  0  0  0  0  0  0  0  0
   -2.5952   -5.9489   -3.0876 H   0  0  0  0  0  0  0  0  0  0  0  0
   -3.3570   -6.6616   -1.6593 H   0  0  0  0  0  0  0  0  0  0  0  0
   -2.5269   -5.3239    1.2140 H   0  0  0  0  0  0  0  0  0  0  0  0
   -3.8874   -7.2925    1.6315 H   0  0  0  0  0  0  0  0  0  0  0  0
   -0.6171   -9.7812    0.4050 H   0  0  0  0  0  0  0  0  0  0  0  0
   -4.0074  -13.2906    1.6112 H   0  0  0  0  0  0  0  0  0  0  0  0
   -5.8576  -11.5717    2.3215 H   0  0  0  0  0  0  0  0  0  0  0  0
   -5.0467   -9.1320    2.0472 H   0  0  0  0  0  0  0  0  0  0  0  0
  1  2  1  0  0  0  0
  2 11  1  0  0  0  0
  2  3  2  0  0  0  0
  3 12  1  0  0  0  0
  4  3  1  0  0  0  0
  4 17  1  0  0  0  0
  5  7  1  0  0  0  0
  5  4  2  0  0  0  0
  6  1  2  0  0  0  0
  6  5  1  0  0  0  0
  8  7  2  0  0  0  0
  8 18  1  0  0  0  0
  9 10  2  0  0  0  0
  9  8  1  0  0  0  0
 10  6  1  0  0  0  0
 13 14  1  0  0  0  0
 14 56  1  0  0  0  0
 14 15  2  0  0  0  0
 15 42  1  0  0  0  0
 16 15  1  0  0  0  0
 17 13  2  0  0  0  0
 17 16  1  0  0  0  0
 18 23  2  0  0  0  0
 19 20  2  0  0  0  0
 19 18  1  0  0  0  0
 20 21  1  0  0  0  0
 21 36  1  0  0  0  0
 21 22  2  0  0  0  0
 22 58  1  0  0  0  0
 23 22  1  0  0  0  0
 23 59  1  0  0  0  0
 24  9  1  0  0  0  0
 24 25  2  0  0  0  0
 25 60  1  0  0  0  0
 26 25  1  0  0  0  0
 26 61  1  0  0  0  0
 27 26  2  0  0  0  0
 28 29  2  0  0  0  0
 28 27  1  0  0  0  0
 29 24  1  0  0  0  0
 30 27  1  0  0  0  0
 30 31  1  0  0  0  0
 31 64  1  0  0  0  0
 32 31  1  0  0  0  0
 32 67  1  0  0  0  0
 32 66  1  0  0  0  0
 33 28  1  0  0  0  0
 34 33  1  0  0  0  0
 34 69  1  0  0  0  0
 35 72  1  0  0  0  0
 35 34  1  0  0  0  0
 37 73  1  0  0  0  0
 37 38  1  0  0  0  0
 37 36  1  0  0  0  0
 38 75  1  0  0  0  0
 39 20  1  0  0  0  0
 40 41  1  0  0  0  0
 40 39  1  0  0  0  0
 41 82  1  0  0  0  0
 41 80  1  0  0  0  0
 42 43  1  0  0  0  0
 43 83  1  0  0  0  0
 43 44  2  0  0  0  0
 44 84  1  0  0  0  0
 45 44  1  0  0  0  0
 45 48  1  0  0  0  0
 46 45  2  0  0  0  0
 47 42  2  0  0  0  0
 47 46  1  0  0  0  0
 48 52  2  0  0  0  0
 49 48  1  0  0  0  0
 49 50  1  0  0  0  0
 50 86  1  0  0  0  0
 50 51  2  0  0  0  0
 51 87  1  0  0  0  0
 52 51  1  0  0  0  0
 52 88  1  0  0  0  0
 53 47  1  0  0  0  0
 54  1  1  0  0  0  0
 55 13  1  0  0  0  0
 57 19  1  0  0  0  0
 62 29  1  0  0  0  0
 63 31  1  0  0  0  0
 65 32  1  0  0  0  0
 68 34  1  0  0  0  0
 70 35  1  0  0  0  0
 71 35  1  0  0  0  0
 74 37  1  0  0  0  0
 76 38  1  0  0  0  0
 77 38  1  0  0  0  0
 78 40  1  0  0  0  0
 79 40  1  0  0  0  0
 81 41  1  0  0  0  0
 85 46  1  0  0  0  0
M  END
