SCF done       -498.083954341747          0.000445543164
 OpenBabel12282109573D

272301  0  0  0  0  0  0  0  0999 V2000
   16.0212   -3.8455   -6.8002 C   0  0  0  0  0  0  0  0  0  0  0  0
   17.0310   -3.4405   -7.6858 C   0  0  0  0  0  0  0  0  0  0  0  0
   17.5626   -2.1293   -7.6123 C   0  0  0  0  0  0  0  0  0  0  0  0
   17.1434   -1.1964   -6.6751 C   0  0  0  0  0  0  0  0  0  0  0  0
   16.1147   -1.5949   -5.8068 C   0  0  0  0  0  0  0  0  0  0  0  0
   15.5715   -2.9014   -5.8896 C   0  0  0  0  0  0  0  0  0  0  0  0
   17.6368   -4.1927   -8.7365 C   0  0  0  0  0  0  0  0  0  0  0  0
   18.5865   -3.5014   -9.3976 C   0  0  0  0  0  0  0  0  0  0  0  0
   18.8133   -1.8915   -8.8049 S   0  0  0  0  0  0  0  0  0  0  0  0
   15.4838   -0.8277   -4.7983 C   0  0  0  0  0  0  0  0  0  0  0  0
   14.5277   -1.5081   -4.1036 C   0  0  0  0  0  0  0  0  0  0  0  0
   14.3343   -3.1513   -4.6828 S   0  0  0  0  0  0  0  0  0  0  0  0
   15.4794   -5.2118   -6.8217 C   0  0  0  0  0  0  0  0  0  0  0  0
   17.7264    0.1475   -6.5684 C   0  0  0  0  0  0  0  0  0  0  0  0
   13.7593   -0.9960   -3.0208 C   0  0  0  0  0  0  0  0  0  0  0  0
   14.1000    0.5914   -2.4106 S   0  0  0  0  0  0  0  0  0  0  0  0
   12.8360    0.4533   -1.2126 C   0  0  0  0  0  0  0  0  0  0  0  0
   12.2177   -0.7774   -1.3110 C   0  0  0  0  0  0  0  0  0  0  0  0
   12.7361   -1.5910   -2.3169 C   0  0  0  0  0  0  0  0  0  0  0  0
   16.3331   -6.3082   -6.7493 C   0  0  0  0  0  0  0  0  0  0  0  0
   15.8038   -7.5831   -6.7508 C   0  0  0  0  0  0  0  0  0  0  0  0
   14.4404   -7.8437   -6.8317 C   0  0  0  0  0  0  0  0  0  0  0  0
   13.6226   -6.7211   -6.8999 C   0  0  0  0  0  0  0  0  0  0  0  0
   14.1075   -5.4284   -6.8958 C   0  0  0  0  0  0  0  0  0  0  0  0
   12.2893   -6.9012   -6.9849 F   0  0  0  0  0  0  0  0  0  0  0  0
   16.6564   -8.6264   -6.6767 F   0  0  0  0  0  0  0  0  0  0  0  0
   13.8877   -9.2374   -6.7957 C   0  0  0  0  0  0  0  0  0  0  0  0
   13.6237   -9.6713   -5.3518 C   0  0  0  0  0  0  0  0  0  0  0  0
   17.8503    0.9654   -7.6864 C   0  0  0  0  0  0  0  0  0  0  0  0
   18.3561    2.2427   -7.5440 C   0  0  0  0  0  0  0  0  0  0  0  0
   18.7605    2.7725   -6.3240 C   0  0  0  0  0  0  0  0  0  0  0  0
   18.6336    1.9179   -5.2343 C   0  0  0  0  0  0  0  0  0  0  0  0
   18.1399    0.6340   -5.3301 C   0  0  0  0  0  0  0  0  0  0  0  0
   18.4514    3.0155   -8.6448 F   0  0  0  0  0  0  0  0  0  0  0  0
   19.0060    2.3701   -4.0161 F   0  0  0  0  0  0  0  0  0  0  0  0
   19.2537    4.1811   -6.1732 C   0  0  0  0  0  0  0  0  0  0  0  0
   18.1262    5.0956   -5.6878 C   0  0  0  0  0  0  0  0  0  0  0  0
   12.6173    1.5636   -0.3322 C   0  0  0  0  0  0  0  0  0  0  0  0
   13.5336    2.6520   -0.4030 C   0  0  0  0  0  0  0  0  0  0  0  0
   13.4304    3.8176    0.3986 C   0  0  0  0  0  0  0  0  0  0  0  0
   12.3883    4.0218    1.3423 C   0  0  0  0  0  0  0  0  0  0  0  0
   11.5118    2.9453    1.4183 C   0  0  0  0  0  0  0  0  0  0  0  0
   11.6173    1.7645    0.6192 C   0  0  0  0  0  0  0  0  0  0  0  0
   10.3655    2.7622    2.3346 C   0  0  0  0  0  0  0  0  0  0  0  0
    9.8310    1.5271    2.0327 N   0  0  0  0  0  0  0  0  0  0  0  0
   10.5037    0.8747    1.0201 C   0  0  0  0  0  0  0  0  0  0  0  0
   10.1702   -0.2171    0.6190 O   0  0  0  0  0  0  0  0  0  0  0  0
    8.6648    0.9799    2.6904 C   0  0  0  0  0  0  0  0  0  0  0  0
    7.3912    1.3141    1.9223 C   0  0  0  0  0  0  0  0  0  0  0  0
    9.9318    3.4745    3.2100 O   0  0  0  0  0  0  0  0  0  0  0  0
   14.6176    2.8025   -1.1739 N   0  0  0  0  0  0  0  0  0  0  0  0
   15.1022    3.9671   -0.8472 N   0  0  0  0  0  0  0  0  0  0  0  0
   14.4480    4.6203    0.0691 N   0  0  0  0  0  0  0  0  0  0  0  0
   16.2746    4.5061   -1.4797 C   0  0  0  0  0  0  0  0  0  0  0  0
   17.1999    5.1324   -0.4470 C   0  0  0  0  0  0  0  0  0  0  0  0
   12.3679    5.2582    2.0692 C   0  0  0  0  0  0  0  0  0  0  0  0
   13.8356    6.1993    2.1371 S   0  0  0  0  0  0  0  0  0  0  0  0
   13.0557    7.4277    3.0801 C   0  0  0  0  0  0  0  0  0  0  0  0
   11.7279    7.1251    3.2888 C   0  0  0  0  0  0  0  0  0  0  0  0
   11.3461    5.9073    2.7285 C   0  0  0  0  0  0  0  0  0  0  0  0
   16.8487   10.5586    3.9906 C   0  0  0  0  0  0  0  0  0  0  0  0
   15.5465   10.0282    3.9519 C   0  0  0  0  0  0  0  0  0  0  0  0
   14.4712   10.7318    4.5516 C   0  0  0  0  0  0  0  0  0  0  0  0
   14.6274   11.9574    5.1779 C   0  0  0  0  0  0  0  0  0  0  0  0
   15.9341   12.4677    5.2518 C   0  0  0  0  0  0  0  0  0  0  0  0
   17.0151   11.7559    4.6709 C   0  0  0  0  0  0  0  0  0  0  0  0
   15.1199    8.7978    3.3952 C   0  0  0  0  0  0  0  0  0  0  0  0
   13.7813    8.5676    3.5263 C   0  0  0  0  0  0  0  0  0  0  0  0
   12.9640    9.8751    4.3593 S   0  0  0  0  0  0  0  0  0  0  0  0
   16.3651   13.6490    5.9026 C   0  0  0  0  0  0  0  0  0  0  0  0
   17.7114   13.8633    5.8225 C   0  0  0  0  0  0  0  0  0  0  0  0
   18.5215   12.6037    4.9124 S   0  0  0  0  0  0  0  0  0  0  0  0
   17.9600    9.8580    3.3338 C   0  0  0  0  0  0  0  0  0  0  0  0
   13.4834   12.6956    5.7298 C   0  0  0  0  0  0  0  0  0  0  0  0
   18.4418   14.9317    6.4217 C   0  0  0  0  0  0  0  0  0  0  0  0
   20.1722   14.9264    6.5200 S   0  0  0  0  0  0  0  0  0  0  0  0
   20.1683   16.4065    7.4385 C   0  0  0  0  0  0  0  0  0  0  0  0
   18.8836   16.8788    7.5957 C   0  0  0  0  0  0  0  0  0  0  0  0
   17.9156   16.0547    7.0279 C   0  0  0  0  0  0  0  0  0  0  0  0
   17.8238    9.4038    2.0237 C   0  0  0  0  0  0  0  0  0  0  0  0
   18.8626    8.7191    1.4281 C   0  0  0  0  0  0  0  0  0  0  0  0
   20.0673    8.4507    2.0680 C   0  0  0  0  0  0  0  0  0  0  0  0
   20.1719    8.9395    3.3654 C   0  0  0  0  0  0  0  0  0  0  0  0
   19.1565    9.6238    4.0036 C   0  0  0  0  0  0  0  0  0  0  0  0
   21.3166    8.7199    4.0439 F   0  0  0  0  0  0  0  0  0  0  0  0
   18.6936    8.2776    0.1619 F   0  0  0  0  0  0  0  0  0  0  0  0
   21.1896    7.7246    1.3876 C   0  0  0  0  0  0  0  0  0  0  0  0
   22.0662    8.7031    0.6026 C   0  0  0  0  0  0  0  0  0  0  0  0
   12.5852   12.0741    6.5915 C   0  0  0  0  0  0  0  0  0  0  0  0
   11.5110   12.7873    7.0836 C   0  0  0  0  0  0  0  0  0  0  0  0
   11.2619   14.1166    6.7583 C   0  0  0  0  0  0  0  0  0  0  0  0
   12.1825   14.7004    5.8958 C   0  0  0  0  0  0  0  0  0  0  0  0
   13.2721   14.0263    5.3813 C   0  0  0  0  0  0  0  0  0  0  0  0
   10.6589   12.1615    7.9198 F   0  0  0  0  0  0  0  0  0  0  0  0
   12.0038   15.9882    5.5339 F   0  0  0  0  0  0  0  0  0  0  0  0
   10.1032   14.8729    7.3367 C   0  0  0  0  0  0  0  0  0  0  0  0
   10.4525   15.4117    8.7262 C   0  0  0  0  0  0  0  0  0  0  0  0
   21.4168   16.9569    7.8810 C   0  0  0  0  0  0  0  0  0  0  0  0
   22.6050   16.6295    7.1766 C   0  0  0  0  0  0  0  0  0  0  0  0
   23.8741   17.1582    7.5313 C   0  0  0  0  0  0  0  0  0  0  0  0
   24.0879   18.0419    8.6268 C   0  0  0  0  0  0  0  0  0  0  0  0
   22.9162   18.3259    9.3261 C   0  0  0  0  0  0  0  0  0  0  0  0
   21.6392   17.7993    8.9637 C   0  0  0  0  0  0  0  0  0  0  0  0
   22.7200   19.1207   10.5599 C   0  0  0  0  0  0  0  0  0  0  0  0
   21.3852   19.0002   10.8892 N   0  0  0  0  0  0  0  0  0  0  0  0
   20.6695   18.2320    9.9934 C   0  0  0  0  0  0  0  0  0  0  0  0
   19.4938   17.9837   10.1242 O   0  0  0  0  0  0  0  0  0  0  0  0
   20.7908   19.6345   12.0452 C   0  0  0  0  0  0  0  0  0  0  0  0
   20.2530   21.0186   11.7001 C   0  0  0  0  0  0  0  0  0  0  0  0
   23.4999   19.7617   11.2266 O   0  0  0  0  0  0  0  0  0  0  0  0
   22.7849   15.8452    6.1062 N   0  0  0  0  0  0  0  0  0  0  0  0
   24.0621   15.9134    5.8606 N   0  0  0  0  0  0  0  0  0  0  0  0
   24.7606   16.6709    6.6577 N   0  0  0  0  0  0  0  0  0  0  0  0
   24.6642   15.2193    4.7565 C   0  0  0  0  0  0  0  0  0  0  0  0
   25.9606   14.5494    5.1884 C   0  0  0  0  0  0  0  0  0  0  0  0
   25.4276   18.4880    8.8731 C   0  0  0  0  0  0  0  0  0  0  0  0
   26.7294   17.7396    7.9802 S   0  0  0  0  0  0  0  0  0  0  0  0
   27.9083   18.7255    8.7846 C   0  0  0  0  0  0  0  0  0  0  0  0
   27.3092   19.5938    9.6708 C   0  0  0  0  0  0  0  0  0  0  0  0
   25.9236   19.4573    9.7213 C   0  0  0  0  0  0  0  0  0  0  0  0
   32.1192   17.0339    6.6970 C   0  0  0  0  0  0  0  0  0  0  0  0
   31.2543   17.7938    7.5043 C   0  0  0  0  0  0  0  0  0  0  0  0
   31.7716   18.8002    8.3602 C   0  0  0  0  0  0  0  0  0  0  0  0
   33.1224   19.0948    8.4441 C   0  0  0  0  0  0  0  0  0  0  0  0
   33.9888   18.3199    7.6539 C   0  0  0  0  0  0  0  0  0  0  0  0
   33.4739   17.3072    6.8045 C   0  0  0  0  0  0  0  0  0  0  0  0
   29.8477   17.6849    7.6155 C   0  0  0  0  0  0  0  0  0  0  0  0
   29.2901   18.5823    8.4793 C   0  0  0  0  0  0  0  0  0  0  0  0
   30.4946   19.6125    9.2287 S   0  0  0  0  0  0  0  0  0  0  0  0
   35.3999   18.3921    7.5904 C   0  0  0  0  0  0  0  0  0  0  0  0
   35.9604   17.5116    6.7112 C   0  0  0  0  0  0  0  0  0  0  0  0
   34.7541   16.5179    5.9169 S   0  0  0  0  0  0  0  0  0  0  0  0
   31.5938   16.0038    5.7910 C   0  0  0  0  0  0  0  0  0  0  0  0
   33.6505   20.1548    9.3134 C   0  0  0  0  0  0  0  0  0  0  0  0
   37.3473   17.3758    6.4261 C   0  0  0  0  0  0  0  0  0  0  0  0
   38.4880   18.4420    7.1838 S   0  0  0  0  0  0  0  0  0  0  0  0
   39.8230   17.6820    6.3514 C   0  0  0  0  0  0  0  0  0  0  0  0
   39.3631   16.6575    5.5484 C   0  0  0  0  0  0  0  0  0  0  0  0
   37.9804   16.4860    5.5870 C   0  0  0  0  0  0  0  0  0  0  0  0
   30.5391   16.2914    4.9284 C   0  0  0  0  0  0  0  0  0  0  0  0
   30.0461   15.3020    4.1023 C   0  0  0  0  0  0  0  0  0  0  0  0
   30.5515   14.0075    4.0743 C   0  0  0  0  0  0  0  0  0  0  0  0
   31.6124   13.7649    4.9402 C   0  0  0  0  0  0  0  0  0  0  0  0
   32.1333   14.7212    5.7881 C   0  0  0  0  0  0  0  0  0  0  0  0
   32.1489   12.5285    4.9663 F   0  0  0  0  0  0  0  0  0  0  0  0
   29.0104   15.6069    3.2895 F   0  0  0  0  0  0  0  0  0  0  0  0
   30.0293   12.9594    3.1374 C   0  0  0  0  0  0  0  0  0  0  0  0
   30.8202   12.9737    1.8270 C   0  0  0  0  0  0  0  0  0  0  0  0
   33.2979   20.2115   10.6581 C   0  0  0  0  0  0  0  0  0  0  0  0
   33.8441   21.1901   11.4641 C   0  0  0  0  0  0  0  0  0  0  0  0
   34.7416   22.1469   11.0028 C   0  0  0  0  0  0  0  0  0  0  0  0
   35.0552   22.0653    9.6511 C   0  0  0  0  0  0  0  0  0  0  0  0
   34.5324   21.1063    8.8079 C   0  0  0  0  0  0  0  0  0  0  0  0
   33.4966   21.2124   12.7666 F   0  0  0  0  0  0  0  0  0  0  0  0
   35.9199   22.9663    9.1350 F   0  0  0  0  0  0  0  0  0  0  0  0
   35.3695   23.1610   11.9123 C   0  0  0  0  0  0  0  0  0  0  0  0
   36.6318   22.5859   12.5598 C   0  0  0  0  0  0  0  0  0  0  0  0
   41.1456   18.1836    6.5888 C   0  0  0  0  0  0  0  0  0  0  0  0
   41.2903   19.2339    7.5396 C   0  0  0  0  0  0  0  0  0  0  0  0
   42.5326   19.8333    7.8769 C   0  0  0  0  0  0  0  0  0  0  0  0
   43.7640   19.4198    7.3031 C   0  0  0  0  0  0  0  0  0  0  0  0
   43.6095   18.4146    6.3572 C   0  0  0  0  0  0  0  0  0  0  0  0
   42.3587   17.8151    6.0094 C   0  0  0  0  0  0  0  0  0  0  0  0
   44.6446   17.8289    5.4789 C   0  0  0  0  0  0  0  0  0  0  0  0
   43.9912   16.9073    4.6850 N   0  0  0  0  0  0  0  0  0  0  0  0
   42.6387   16.8265    4.9431 C   0  0  0  0  0  0  0  0  0  0  0  0
   41.9075   16.0699    4.3449 O   0  0  0  0  0  0  0  0  0  0  0  0
   44.6624   16.0958    3.6938 C   0  0  0  0  0  0  0  0  0  0  0  0
   45.1503   14.7820    4.2939 C   0  0  0  0  0  0  0  0  0  0  0  0
   45.8252   18.0672    5.3805 O   0  0  0  0  0  0  0  0  0  0  0  0
   40.3494   19.8448    8.2664 N   0  0  0  0  0  0  0  0  0  0  0  0
   40.9949   20.7319    8.9702 N   0  0  0  0  0  0  0  0  0  0  0  0
   42.2829   20.7772    8.7933 N   0  0  0  0  0  0  0  0  0  0  0  0
   40.3142   21.6225    9.8665 C   0  0  0  0  0  0  0  0  0  0  0  0
   39.3591   22.5217    9.0906 C   0  0  0  0  0  0  0  0  0  0  0  0
   44.9789   20.0517    7.7382 C   0  0  0  0  0  0  0  0  0  0  0  0
   44.8906   21.6396    8.4599 S   0  0  0  0  0  0  0  0  0  0  0  0
   46.5836   21.6629    8.7055 C   0  0  0  0  0  0  0  0  0  0  0  0
   47.1840   20.5139    8.2887 C   0  0  0  0  0  0  0  0  0  0  0  0
   46.2753   19.5975    7.7373 C   0  0  0  0  0  0  0  0  0  0  0  0
   17.3525   -5.1996   -8.9819 H   0  0  0  0  0  0  0  0  0  0  0  0
   19.1869   -3.8305  -10.2231 H   0  0  0  0  0  0  0  0  0  0  0  0
   15.7108    0.2031   -4.5963 H   0  0  0  0  0  0  0  0  0  0  0  0
   11.4105   -1.0755   -0.6704 H   0  0  0  0  0  0  0  0  0  0  0  0
   12.3771   -2.5819   -2.5330 H   0  0  0  0  0  0  0  0  0  0  0  0
   17.4005   -6.1766   -6.6684 H   0  0  0  0  0  0  0  0  0  0  0  0
   13.4159   -4.6044   -6.9655 H   0  0  0  0  0  0  0  0  0  0  0  0
   14.6023   -9.9225   -7.2548 H   0  0  0  0  0  0  0  0  0  0  0  0
   12.9547   -9.2713   -7.3604 H   0  0  0  0  0  0  0  0  0  0  0  0
   14.5458   -9.6524   -4.7753 H   0  0  0  0  0  0  0  0  0  0  0  0
   13.2238  -10.6817   -5.3341 H   0  0  0  0  0  0  0  0  0  0  0  0
   12.9048   -9.0046   -4.8810 H   0  0  0  0  0  0  0  0  0  0  0  0
   17.5356    0.6292   -8.6611 H   0  0  0  0  0  0  0  0  0  0  0  0
   18.0918    0.0175   -4.4468 H   0  0  0  0  0  0  0  0  0  0  0  0
   19.6278    4.5398   -7.1326 H   0  0  0  0  0  0  0  0  0  0  0  0
   20.0698    4.2012   -5.4483 H   0  0  0  0  0  0  0  0  0  0  0  0
   17.3038    5.0942   -6.3997 H   0  0  0  0  0  0  0  0  0  0  0  0
   18.4917    6.1135   -5.5811 H   0  0  0  0  0  0  0  0  0  0  0  0
   17.7529    4.7582   -4.7234 H   0  0  0  0  0  0  0  0  0  0  0  0
    8.6311    1.4088    3.6946 H   0  0  0  0  0  0  0  0  0  0  0  0
    8.7984   -0.1030    2.7495 H   0  0  0  0  0  0  0  0  0  0  0  0
    7.2619    2.3922    1.8587 H   0  0  0  0  0  0  0  0  0  0  0  0
    6.5318    0.8874    2.4315 H   0  0  0  0  0  0  0  0  0  0  0  0
    7.4429    0.9030    0.9167 H   0  0  0  0  0  0  0  0  0  0  0  0
   15.9590    5.2643   -2.2044 H   0  0  0  0  0  0  0  0  0  0  0  0
   16.7532    3.6813   -2.0110 H   0  0  0  0  0  0  0  0  0  0  0  0
   16.6619    5.8887    0.1178 H   0  0  0  0  0  0  0  0  0  0  0  0
   18.0441    5.5997   -0.9446 H   0  0  0  0  0  0  0  0  0  0  0  0
   17.5702    4.3781    0.2425 H   0  0  0  0  0  0  0  0  0  0  0  0
   11.0641    7.7683    3.8395 H   0  0  0  0  0  0  0  0  0  0  0  0
   10.3532    5.5090    2.8056 H   0  0  0  0  0  0  0  0  0  0  0  0
   15.7798    8.0847    2.9352 H   0  0  0  0  0  0  0  0  0  0  0  0
   15.6998   14.2941    6.4453 H   0  0  0  0  0  0  0  0  0  0  0  0
   18.6520   17.7919    8.1084 H   0  0  0  0  0  0  0  0  0  0  0  0
   16.8635   16.2712    7.0579 H   0  0  0  0  0  0  0  0  0  0  0  0
   16.9242    9.5949    1.4606 H   0  0  0  0  0  0  0  0  0  0  0  0
   19.2998    9.9488    5.0212 H   0  0  0  0  0  0  0  0  0  0  0  0
   20.7762    6.9807    0.7043 H   0  0  0  0  0  0  0  0  0  0  0  0
   21.7967    7.2143    2.1367 H   0  0  0  0  0  0  0  0  0  0  0  0
   21.4789    9.2128   -0.1578 H   0  0  0  0  0  0  0  0  0  0  0  0
   22.8767    8.1680    0.1147 H   0  0  0  0  0  0  0  0  0  0  0  0
   22.4934    9.4481    1.2700 H   0  0  0  0  0  0  0  0  0  0  0  0
   12.7226   11.0493    6.8965 H   0  0  0  0  0  0  0  0  0  0  0  0
   13.9345   14.5327    4.6972 H   0  0  0  0  0  0  0  0  0  0  0  0
    9.2422   14.2067    7.4154 H   0  0  0  0  0  0  0  0  0  0  0  0
    9.8461   15.7031    6.6775 H   0  0  0  0  0  0  0  0  0  0  0  0
   10.6952   14.5933    9.4002 H   0  0  0  0  0  0  0  0  0  0  0  0
    9.6077   15.9591    9.1360 H   0  0  0  0  0  0  0  0  0  0  0  0
   11.3070   16.0826    8.6701 H   0  0  0  0  0  0  0  0  0  0  0  0
   21.5665   19.7069   12.8111 H   0  0  0  0  0  0  0  0  0  0  0  0
   19.9815   18.9869   12.3909 H   0  0  0  0  0  0  0  0  0  0  0  0
   21.0593   21.6574   11.3471 H   0  0  0  0  0  0  0  0  0  0  0  0
   19.8081   21.4706   12.5820 H   0  0  0  0  0  0  0  0  0  0  0  0
   19.4943   20.9433   10.9244 H   0  0  0  0  0  0  0  0  0  0  0  0
   24.8706   15.9446    3.9623 H   0  0  0  0  0  0  0  0  0  0  0  0
   23.9269   14.4983    4.3994 H   0  0  0  0  0  0  0  0  0  0  0  0
   26.6302   15.2905    5.6166 H   0  0  0  0  0  0  0  0  0  0  0  0
   26.4415   14.0944    4.3280 H   0  0  0  0  0  0  0  0  0  0  0  0
   25.7672   13.7807    5.9323 H   0  0  0  0  0  0  0  0  0  0  0  0
   27.8659   20.2986   10.2631 H   0  0  0  0  0  0  0  0  0  0  0  0
   25.2969   20.0436   10.3648 H   0  0  0  0  0  0  0  0  0  0  0  0
   29.2578   16.9559    7.0904 H   0  0  0  0  0  0  0  0  0  0  0  0
   35.9949   19.0598    8.1863 H   0  0  0  0  0  0  0  0  0  0  0  0
   40.0151   16.0549    4.9460 H   0  0  0  0  0  0  0  0  0  0  0  0
   37.4518   15.7381    5.0224 H   0  0  0  0  0  0  0  0  0  0  0  0
   30.1141   17.2812    4.8802 H   0  0  0  0  0  0  0  0  0  0  0  0
   32.9409   14.4544    6.4503 H   0  0  0  0  0  0  0  0  0  0  0  0
   28.9759   13.1511    2.9273 H   0  0  0  0  0  0  0  0  0  0  0  0
   30.1217   11.9777    3.6048 H   0  0  0  0  0  0  0  0  0  0  0  0
   30.7329   13.9433    1.3419 H   0  0  0  0  0  0  0  0  0  0  0  0
   30.4383   12.2118    1.1525 H   0  0  0  0  0  0  0  0  0  0  0  0
   31.8719   12.7734    2.0176 H   0  0  0  0  0  0  0  0  0  0  0  0
   32.6229   19.4895   11.0884 H   0  0  0  0  0  0  0  0  0  0  0  0
   34.8027   21.1147    7.7641 H   0  0  0  0  0  0  0  0  0  0  0  0
   34.6584   23.4387   12.6916 H   0  0  0  0  0  0  0  0  0  0  0  0
   35.6275   24.0524   11.3383 H   0  0  0  0  0  0  0  0  0  0  0  0
   36.3845   21.7150   13.1624 H   0  0  0  0  0  0  0  0  0  0  0  0
   37.0955   23.3308   13.2012 H   0  0  0  0  0  0  0  0  0  0  0  0
   37.3480   22.2882   11.7966 H   0  0  0  0  0  0  0  0  0  0  0  0
   45.5056   16.6789    3.3160 H   0  0  0  0  0  0  0  0  0  0  0  0
   43.9480   15.9048    2.8894 H   0  0  0  0  0  0  0  0  0  0  0  0
   45.8518   14.9763    5.1019 H   0  0  0  0  0  0  0  0  0  0  0  0
   45.6497   14.1920    3.5308 H   0  0  0  0  0  0  0  0  0  0  0  0
   44.3094   14.2129    4.6834 H   0  0  0  0  0  0  0  0  0  0  0  0
   41.0845   22.2013   10.3783 H   0  0  0  0  0  0  0  0  0  0  0  0
   39.7588   21.0206   10.5916 H   0  0  0  0  0  0  0  0  0  0  0  0
   39.9074   23.1333    8.3785 H   0  0  0  0  0  0  0  0  0  0  0  0
   38.8257   23.1778    9.7717 H   0  0  0  0  0  0  0  0  0  0  0  0
   38.6365   21.9165    8.5497 H   0  0  0  0  0  0  0  0  0  0  0  0
   47.0409   22.5251    9.1496 H   0  0  0  0  0  0  0  0  0  0  0  0
   48.2402   20.3286    8.3674 H   0  0  0  0  0  0  0  0  0  0  0  0
   46.5647   18.6382    7.3554 H   0  0  0  0  0  0  0  0  0  0  0  0
  1  6  2  0  0  0  0
  2  3  2  0  0  0  0
  2  1  1  0  0  0  0
  3  4  1  0  0  0  0
  4 14  1  0  0  0  0
  4  5  2  0  0  0  0
  5 10  1  0  0  0  0
  6  5  1  0  0  0  0
  6 12  1  0  0  0  0
  7  2  1  0  0  0  0
  8  9  1  0  0  0  0
  8  7  2  0  0  0  0
  9  3  1  0  0  0  0
 10183  1  0  0  0  0
 10 11  2  0  0  0  0
 11 15  1  0  0  0  0
 12 11  1  0  0  0  0
 13  1  1  0  0  0  0
 13 20  2  0  0  0  0
 14 33  2  0  0  0  0
 15 16  1  0  0  0  0
 15 19  2  0  0  0  0
 16 17  1  0  0  0  0
 17 38  1  0  0  0  0
 18 17  2  0  0  0  0
 18184  1  0  0  0  0
 19 18  1  0  0  0  0
 20186  1  0  0  0  0
 21 20  1  0  0  0  0
 21 26  1  0  0  0  0
 22 27  1  0  0  0  0
 22 21  2  0  0  0  0
 23 24  2  0  0  0  0
 23 22  1  0  0  0  0
 24 13  1  0  0  0  0
 25 23  1  0  0  0  0
 27 28  1  0  0  0  0
 28191  1  0  0  0  0
 28192  1  0  0  0  0
 28190  1  0  0  0  0
 29 30  2  0  0  0  0
 29 14  1  0  0  0  0
 30 31  1  0  0  0  0
 31 36  1  0  0  0  0
 31 32  2  0  0  0  0
 32 35  1  0  0  0  0
 33 32  1  0  0  0  0
 33194  1  0  0  0  0
 34 30  1  0  0  0  0
 36 37  1  0  0  0  0
 36196  1  0  0  0  0
 37198  1  0  0  0  0
 37199  1  0  0  0  0
 38 43  2  0  0  0  0
 39 38  1  0  0  0  0
 39 40  1  0  0  0  0
 40 41  1  0  0  0  0
 41 42  2  0  0  0  0
 41 56  1  0  0  0  0
 42 44  1  0  0  0  0
 43 46  1  0  0  0  0
 43 42  1  0  0  0  0
 44 50  2  0  0  0  0
 45 44  1  0  0  0  0
 45 48  1  0  0  0  0
 46 45  1  0  0  0  0
 47 46  2  0  0  0  0
 48201  1  0  0  0  0
 48200  1  0  0  0  0
 49203  1  0  0  0  0
 49 48  1  0  0  0  0
 51 52  1  0  0  0  0
 51 39  2  0  0  0  0
 52 53  1  0  0  0  0
 53 40  2  0  0  0  0
 54 52  1  0  0  0  0
 54 55  1  0  0  0  0
 55207  1  0  0  0  0
 55209  1  0  0  0  0
 56 57  1  0  0  0  0
 56 60  2  0  0  0  0
 57 58  1  0  0  0  0
 58 59  2  0  0  0  0
 58 68  1  0  0  0  0
 59210  1  0  0  0  0
 60211  1  0  0  0  0
 60 59  1  0  0  0  0
 61 66  1  0  0  0  0
 62 61  2  0  0  0  0
 62 63  1  0  0  0  0
 63 64  2  0  0  0  0
 64 65  1  0  0  0  0
 64 74  1  0  0  0  0
 65 70  1  0  0  0  0
 66 72  1  0  0  0  0
 66 65  2  0  0  0  0
 67 68  2  0  0  0  0
 67 62  1  0  0  0  0
 68 69  1  0  0  0  0
 69 63  1  0  0  0  0
 70213  1  0  0  0  0
 71 70  2  0  0  0  0
 71 75  1  0  0  0  0
 72 71  1  0  0  0  0
 73 61  1  0  0  0  0
 73 84  2  0  0  0  0
 74 89  1  0  0  0  0
 75 76  1  0  0  0  0
 75 79  2  0  0  0  0
 76 77  1  0  0  0  0
 77 78  2  0  0  0  0
 77 98  1  0  0  0  0
 78214  1  0  0  0  0
 79215  1  0  0  0  0
 79 78  1  0  0  0  0
 80 73  1  0  0  0  0
 81 80  2  0  0  0  0
 81 82  1  0  0  0  0
 82 83  2  0  0  0  0
 83 84  1  0  0  0  0
 83 85  1  0  0  0  0
 84217  1  0  0  0  0
 86 81  1  0  0  0  0
 87 82  1  0  0  0  0
 87219  1  0  0  0  0
 88222  1  0  0  0  0
 88 87  1  0  0  0  0
 89223  1  0  0  0  0
 89 90  2  0  0  0  0
 90 94  1  0  0  0  0
 91 90  1  0  0  0  0
 91 96  1  0  0  0  0
 92 91  2  0  0  0  0
 93 74  2  0  0  0  0
 93 92  1  0  0  0  0
 95 92  1  0  0  0  0
 96225  1  0  0  0  0
 96 97  1  0  0  0  0
 97228  1  0  0  0  0
 97227  1  0  0  0  0
 98103  2  0  0  0  0
 99100  1  0  0  0  0
 99 98  1  0  0  0  0
100101  1  0  0  0  0
101116  1  0  0  0  0
101102  2  0  0  0  0
102104  1  0  0  0  0
103102  1  0  0  0  0
103106  1  0  0  0  0
104105  1  0  0  0  0
104110  2  0  0  0  0
105108  1  0  0  0  0
106107  2  0  0  0  0
106105  1  0  0  0  0
108231  1  0  0  0  0
108230  1  0  0  0  0
109108  1  0  0  0  0
109233  1  0  0  0  0
111 99  2  0  0  0  0
112111  1  0  0  0  0
112113  1  0  0  0  0
113100  2  0  0  0  0
114115  1  0  0  0  0
114112  1  0  0  0  0
115237  1  0  0  0  0
115239  1  0  0  0  0
116120  2  0  0  0  0
117118  1  0  0  0  0
117116  1  0  0  0  0
118119  2  0  0  0  0
119120  1  0  0  0  0
119240  1  0  0  0  0
120241  1  0  0  0  0
121126  2  0  0  0  0
121122  1  0  0  0  0
122127  1  0  0  0  0
122123  2  0  0  0  0
123124  1  0  0  0  0
123129  1  0  0  0  0
124134  1  0  0  0  0
125124  2  0  0  0  0
126125  1  0  0  0  0
127128  2  0  0  0  0
128118  1  0  0  0  0
128129  1  0  0  0  0
130125  1  0  0  0  0
130243  1  0  0  0  0
131130  2  0  0  0  0
132131  1  0  0  0  0
132126  1  0  0  0  0
133121  1  0  0  0  0
134149  1  0  0  0  0
135131  1  0  0  0  0
135136  1  0  0  0  0
137158  1  0  0  0  0
137136  1  0  0  0  0
138139  1  0  0  0  0
138137  2  0  0  0  0
139135  2  0  0  0  0
140133  2  0  0  0  0
141140  1  0  0  0  0
142141  2  0  0  0  0
142143  1  0  0  0  0
143145  1  0  0  0  0
143144  2  0  0  0  0
144133  1  0  0  0  0
144247  1  0  0  0  0
146141  1  0  0  0  0
147249  1  0  0  0  0
147142  1  0  0  0  0
148252  1  0  0  0  0
148147  1  0  0  0  0
149253  1  0  0  0  0
149150  2  0  0  0  0
150154  1  0  0  0  0
151150  1  0  0  0  0
151156  1  0  0  0  0
152151  2  0  0  0  0
153134  2  0  0  0  0
153152  1  0  0  0  0
155152  1  0  0  0  0
156157  1  0  0  0  0
156255  1  0  0  0  0
157257  1  0  0  0  0
157258  1  0  0  0  0
158159  1  0  0  0  0
159160  1  0  0  0  0
159171  2  0  0  0  0
160173  2  0  0  0  0
161176  1  0  0  0  0
161160  1  0  0  0  0
162161  2  0  0  0  0
163162  1  0  0  0  0
163158  2  0  0  0  0
164162  1  0  0  0  0
165166  1  0  0  0  0
165164  1  0  0  0  0
166163  1  0  0  0  0
167166  2  0  0  0  0
168169  1  0  0  0  0
168165  1  0  0  0  0
169264  1  0  0  0  0
169262  1  0  0  0  0
170164  2  0  0  0  0
171172  1  0  0  0  0
172174  1  0  0  0  0
173172  1  0  0  0  0
174265  1  0  0  0  0
174266  1  0  0  0  0
175268  1  0  0  0  0
175174  1  0  0  0  0
176177  1  0  0  0  0
177178  1  0  0  0  0
178270  1  0  0  0  0
179271  1  0  0  0  0
179178  2  0  0  0  0
180176  2  0  0  0  0
180179  1  0  0  0  0
181  7  1  0  0  0  0
182  8  1  0  0  0  0
185 19  1  0  0  0  0
187 24  1  0  0  0  0
188 27  1  0  0  0  0
189 27  1  0  0  0  0
193 29  1  0  0  0  0
195 36  1  0  0  0  0
197 37  1  0  0  0  0
202 49  1  0  0  0  0
204 49  1  0  0  0  0
205 54  1  0  0  0  0
206 54  1  0  0  0  0
208 55  1  0  0  0  0
212 67  1  0  0  0  0
216 80  1  0  0  0  0
218 87  1  0  0  0  0
220 88  1  0  0  0  0
221 88  1  0  0  0  0
224 93  1  0  0  0  0
226 96  1  0  0  0  0
229 97  1  0  0  0  0
232109  1  0  0  0  0
234109  1  0  0  0  0
235114  1  0  0  0  0
236114  1  0  0  0  0
238115  1  0  0  0  0
242127  1  0  0  0  0
244138  1  0  0  0  0
245139  1  0  0  0  0
246140  1  0  0  0  0
248147  1  0  0  0  0
250148  1  0  0  0  0
251148  1  0  0  0  0
254153  1  0  0  0  0
256156  1  0  0  0  0
259157  1  0  0  0  0
260168  1  0  0  0  0
261168  1  0  0  0  0
263169  1  0  0  0  0
267175  1  0  0  0  0
269175  1  0  0  0  0
272180  1  0  0  0  0
M  END
