SCF done       -154.841010240663          0.000562663676
 OpenBabel12282109573D

 88 94  0  0  0  0  0  0  0  0999 V2000
    0.5974    1.5471   -0.0066 C   0  0  0  0  0  0  0  0  0  0  0  0
    1.7758    0.8549    0.0610 C   0  0  0  0  0  0  0  0  0  0  0  0
    1.8249   -0.5491    0.0658 C   0  0  0  0  0  0  0  0  0  0  0  0
    0.6746   -1.3203    0.0038 C   0  0  0  0  0  0  0  0  0  0  0  0
   -0.5566   -0.6038   -0.0764 C   0  0  0  0  0  0  0  0  0  0  0  0
   -0.5989    0.8140   -0.0866 C   0  0  0  0  0  0  0  0  0  0  0  0
   -1.6980   -1.2997   -0.0953 N   0  0  0  0  0  0  0  0  0  0  0  0
   -2.8571   -0.6817   -0.1506 C   0  0  0  0  0  0  0  0  0  0  0  0
   -2.8866    0.7483   -0.2773 C   0  0  0  0  0  0  0  0  0  0  0  0
   -1.7788    1.4491   -0.2112 N   0  0  0  0  0  0  0  0  0  0  0  0
    2.9384    1.5255    0.1317 F   0  0  0  0  0  0  0  0  0  0  0  0
    3.0407   -1.1194    0.1518 F   0  0  0  0  0  0  0  0  0  0  0  0
    1.6940   -3.6547    0.0672 C   0  0  0  0  0  0  0  0  0  0  0  0
    1.2888   -4.9888    0.1646 C   0  0  0  0  0  0  0  0  0  0  0  0
   -0.0759   -5.1306    0.2491 C   0  0  0  0  0  0  0  0  0  0  0  0
   -0.8729   -3.5811    0.1766 S   0  0  0  0  0  0  0  0  0  0  0  0
    0.6482   -2.7571    0.0596 C   0  0  0  0  0  0  0  0  0  0  0  0
   -4.0403   -1.5294   -0.0313 C   0  0  0  0  0  0  0  0  0  0  0  0
   -4.0226   -2.7844   -0.6395 C   0  0  0  0  0  0  0  0  0  0  0  0
   -5.0654   -3.6854   -0.5072 C   0  0  0  0  0  0  0  0  0  0  0  0
   -6.1686   -3.3248    0.2981 C   0  0  0  0  0  0  0  0  0  0  0  0
   -6.1772   -2.0618    0.8919 C   0  0  0  0  0  0  0  0  0  0  0  0
   -5.1437   -1.1658    0.7337 C   0  0  0  0  0  0  0  0  0  0  0  0
   -4.1210    1.4965   -0.5194 C   0  0  0  0  0  0  0  0  0  0  0  0
   -4.2983    2.7435    0.0671 C   0  0  0  0  0  0  0  0  0  0  0  0
   -5.4623    3.4528   -0.1533 C   0  0  0  0  0  0  0  0  0  0  0  0
   -6.4731    2.9639   -0.9752 C   0  0  0  0  0  0  0  0  0  0  0  0
   -6.2805    1.7198   -1.6139 C   0  0  0  0  0  0  0  0  0  0  0  0
   -5.1115    1.0119   -1.3663 C   0  0  0  0  0  0  0  0  0  0  0  0
   -7.6475    3.6279   -1.1922 O   0  0  0  0  0  0  0  0  0  0  0  0
   -7.8600    4.8853   -0.5817 C   0  0  0  0  0  0  0  0  0  0  0  0
   -9.2392    5.3677   -1.0041 C   0  0  0  0  0  0  0  0  0  0  0  0
   -7.1321    1.0901   -2.4641 O   0  0  0  0  0  0  0  0  0  0  0  0
   -8.2843    1.7275   -2.9900 C   0  0  0  0  0  0  0  0  0  0  0  0
   -8.8792    0.7827   -4.0238 C   0  0  0  0  0  0  0  0  0  0  0  0
   -7.2662   -4.0704    0.5609 O   0  0  0  0  0  0  0  0  0  0  0  0
   -7.3035   -5.4689    0.3132 C   0  0  0  0  0  0  0  0  0  0  0  0
   -8.5445   -6.0099    1.0073 C   0  0  0  0  0  0  0  0  0  0  0  0
   -5.0851   -4.9167   -1.1064 O   0  0  0  0  0  0  0  0  0  0  0  0
   -4.0519   -5.2927   -1.9943 C   0  0  0  0  0  0  0  0  0  0  0  0
   -4.1896   -4.6460   -3.3695 C   0  0  0  0  0  0  0  0  0  0  0  0
   -0.8745   -6.3252    0.3731 C   0  0  0  0  0  0  0  0  0  0  0  0
   -2.2010   -6.2442    0.8110 C   0  0  0  0  0  0  0  0  0  0  0  0
   -2.9922   -7.3637    0.9168 C   0  0  0  0  0  0  0  0  0  0  0  0
   -2.5358   -8.6496    0.5976 C   0  0  0  0  0  0  0  0  0  0  0  0
   -1.2077   -8.7302    0.1662 C   0  0  0  0  0  0  0  0  0  0  0  0
   -0.4148   -7.6112    0.0619 C   0  0  0  0  0  0  0  0  0  0  0  0
   -3.3499   -9.8386    0.6997 C   0  0  0  0  0  0  0  0  0  0  0  0
   -2.6236  -11.4097    0.4697 S   0  0  0  0  0  0  0  0  0  0  0  0
   -4.1260  -12.1906    0.7312 C   0  0  0  0  0  0  0  0  0  0  0  0
   -5.1274  -11.3058    0.9780 C   0  0  0  0  0  0  0  0  0  0  0  0
   -4.6905   -9.9684    0.9612 C   0  0  0  0  0  0  0  0  0  0  0  0
    0.8464   -7.7877   -0.3823 F   0  0  0  0  0  0  0  0  0  0  0  0
   -4.2535   -7.1800    1.3630 F   0  0  0  0  0  0  0  0  0  0  0  0
    0.5784    2.6236   -0.0074 H   0  0  0  0  0  0  0  0  0  0  0  0
    2.7265   -3.3666    0.0015 H   0  0  0  0  0  0  0  0  0  0  0  0
    1.9840   -5.8075    0.1907 H   0  0  0  0  0  0  0  0  0  0  0  0
   -3.1604   -3.0293   -1.2353 H   0  0  0  0  0  0  0  0  0  0  0  0
   -7.0342   -1.8120    1.4970 H   0  0  0  0  0  0  0  0  0  0  0  0
   -5.1766   -0.2092    1.2303 H   0  0  0  0  0  0  0  0  0  0  0  0
   -3.5288    3.1433    0.7073 H   0  0  0  0  0  0  0  0  0  0  0  0
   -5.5829    4.4080    0.3318 H   0  0  0  0  0  0  0  0  0  0  0  0
   -4.9947    0.0688   -1.8754 H   0  0  0  0  0  0  0  0  0  0  0  0
   -7.0920    5.5998   -0.9084 H   0  0  0  0  0  0  0  0  0  0  0  0
   -7.8120    4.7886    0.5115 H   0  0  0  0  0  0  0  0  0  0  0  0
   -9.2872    5.4587   -2.0858 H   0  0  0  0  0  0  0  0  0  0  0  0
   -9.4444    6.3351   -0.5552 H   0  0  0  0  0  0  0  0  0  0  0  0
   -9.9961    4.6576   -0.6825 H   0  0  0  0  0  0  0  0  0  0  0  0
   -8.0115    2.6800   -3.4578 H   0  0  0  0  0  0  0  0  0  0  0  0
   -9.0096    1.9230   -2.1928 H   0  0  0  0  0  0  0  0  0  0  0  0
   -8.1603    0.5970   -4.8172 H   0  0  0  0  0  0  0  0  0  0  0  0
   -9.7772    1.2201   -4.4503 H   0  0  0  0  0  0  0  0  0  0  0  0
   -9.1297   -0.1655   -3.5564 H   0  0  0  0  0  0  0  0  0  0  0  0
   -6.4047   -5.9464    0.7137 H   0  0  0  0  0  0  0  0  0  0  0  0
   -7.3555   -5.6615   -0.7638 H   0  0  0  0  0  0  0  0  0  0  0  0
   -8.4872   -5.8173    2.0753 H   0  0  0  0  0  0  0  0  0  0  0  0
   -8.6210   -7.0808    0.8420 H   0  0  0  0  0  0  0  0  0  0  0  0
   -9.4336   -5.5233    0.6150 H   0  0  0  0  0  0  0  0  0  0  0  0
   -4.1633   -6.3779   -2.0827 H   0  0  0  0  0  0  0  0  0  0  0  0
   -3.0666   -5.0862   -1.5602 H   0  0  0  0  0  0  0  0  0  0  0  0
   -5.1556   -4.8957   -3.8014 H   0  0  0  0  0  0  0  0  0  0  0  0
   -3.4044   -5.0141   -4.0240 H   0  0  0  0  0  0  0  0  0  0  0  0
   -4.1140   -3.5639   -3.3006 H   0  0  0  0  0  0  0  0  0  0  0  0
   -2.6180   -5.2871    1.0850 H   0  0  0  0  0  0  0  0  0  0  0  0
   -0.7861   -9.6877   -0.0988 H   0  0  0  0  0  0  0  0  0  0  0  0
   -4.1755  -13.2604    0.6860 H   0  0  0  0  0  0  0  0  0  0  0  0
   -6.1455  -11.5959    1.1669 H   0  0  0  0  0  0  0  0  0  0  0  0
   -5.3513   -9.1397    1.1320 H   0  0  0  0  0  0  0  0  0  0  0  0
  1  2  2  0  0  0  0
  2  3  1  0  0  0  0
  2 11  1  0  0  0  0
  3 12  1  0  0  0  0
  4 17  1  0  0  0  0
  4  3  2  0  0  0  0
  5  4  1  0  0  0  0
  6  5  2  0  0  0  0
  6  1  1  0  0  0  0
  7  5  1  0  0  0  0
  8  7  2  0  0  0  0
  8 18  1  0  0  0  0
  9 10  2  0  0  0  0
  9  8  1  0  0  0  0
 10  6  1  0  0  0  0
 13 14  1  0  0  0  0
 14 57  1  0  0  0  0
 14 15  2  0  0  0  0
 15 42  1  0  0  0  0
 16 15  1  0  0  0  0
 17 13  2  0  0  0  0
 17 16  1  0  0  0  0
 18 23  2  0  0  0  0
 19 20  2  0  0  0  0
 19 18  1  0  0  0  0
 20 21  1  0  0  0  0
 21 36  1  0  0  0  0
 21 22  2  0  0  0  0
 22 59  1  0  0  0  0
 23 22  1  0  0  0  0
 23 60  1  0  0  0  0
 24  9  1  0  0  0  0
 24 25  2  0  0  0  0
 25 61  1  0  0  0  0
 26 25  1  0  0  0  0
 26 62  1  0  0  0  0
 27 26  2  0  0  0  0
 28 29  2  0  0  0  0
 28 27  1  0  0  0  0
 29 24  1  0  0  0  0
 30 27  1  0  0  0  0
 30 31  1  0  0  0  0
 31 65  1  0  0  0  0
 32 68  1  0  0  0  0
 32 31  1  0  0  0  0
 32 67  1  0  0  0  0
 33 28  1  0  0  0  0
 34 33  1  0  0  0  0
 34 70  1  0  0  0  0
 35 73  1  0  0  0  0
 35 34  1  0  0  0  0
 37 36  1  0  0  0  0
 37 74  1  0  0  0  0
 37 38  1  0  0  0  0
 38 76  1  0  0  0  0
 39 20  1  0  0  0  0
 40 80  1  0  0  0  0
 40 39  1  0  0  0  0
 41 83  1  0  0  0  0
 41 40  1  0  0  0  0
 42 43  2  0  0  0  0
 43 44  1  0  0  0  0
 43 84  1  0  0  0  0
 44 54  1  0  0  0  0
 45 48  1  0  0  0  0
 45 44  2  0  0  0  0
 46 45  1  0  0  0  0
 47 46  2  0  0  0  0
 47 42  1  0  0  0  0
 48 52  2  0  0  0  0
 49 48  1  0  0  0  0
 49 50  1  0  0  0  0
 50 51  2  0  0  0  0
 51 87  1  0  0  0  0
 52 51  1  0  0  0  0
 52 88  1  0  0  0  0
 53 47  1  0  0  0  0
 55  1  1  0  0  0  0
 56 13  1  0  0  0  0
 58 19  1  0  0  0  0
 63 29  1  0  0  0  0
 64 31  1  0  0  0  0
 66 32  1  0  0  0  0
 69 34  1  0  0  0  0
 71 35  1  0  0  0  0
 72 35  1  0  0  0  0
 75 37  1  0  0  0  0
 77 38  1  0  0  0  0
 78 38  1  0  0  0  0
 79 40  1  0  0  0  0
 81 41  1  0  0  0  0
 82 41  1  0  0  0  0
 85 46  1  0  0  0  0
 86 50  1  0  0  0  0
M  END
