SCF done       -329.538896059064          0.000407179424
 OpenBabel12282109573D

170190  0  0  0  0  0  0  0  0999 V2000
   -7.9020   -1.0122   -6.3617 C   0  0  0  0  0  0  0  0  0  0  0  0
   -8.2815   -2.3174   -6.1180 C   0  0  0  0  0  0  0  0  0  0  0  0
   -7.2122   -3.1983   -6.1726 C   0  0  0  0  0  0  0  0  0  0  0  0
   -5.9951   -2.5933   -6.4573 C   0  0  0  0  0  0  0  0  0  0  0  0
   -6.1982   -0.8761   -6.6629 S   0  0  0  0  0  0  0  0  0  0  0  0
   -4.7699   -3.2992   -6.5604 C   0  0  0  0  0  0  0  0  0  0  0  0
   -4.8286   -5.0284   -6.3162 S   0  0  0  0  0  0  0  0  0  0  0  0
   -3.1091   -5.2146   -6.5643 C   0  0  0  0  0  0  0  0  0  0  0  0
   -2.5285   -3.9788   -6.8285 C   0  0  0  0  0  0  0  0  0  0  0  0
   -3.4650   -2.8978   -6.8218 C   0  0  0  0  0  0  0  0  0  0  0  0
   -1.1118   -3.7853   -7.0803 C   0  0  0  0  0  0  0  0  0  0  0  0
   -0.7107   -2.4017   -7.3056 C   0  0  0  0  0  0  0  0  0  0  0  0
   -1.6478   -1.3194   -7.2976 C   0  0  0  0  0  0  0  0  0  0  0  0
   -3.0736   -1.5208   -7.0675 C   0  0  0  0  0  0  0  0  0  0  0  0
    0.5770   -1.9927   -7.5535 C   0  0  0  0  0  0  0  0  0  0  0  0
    0.6469   -0.2763   -7.7532 S   0  0  0  0  0  0  0  0  0  0  0  0
   -1.0570   -0.0987   -7.5158 C   0  0  0  0  0  0  0  0  0  0  0  0
   -3.8765   -0.5901   -7.0852 O   0  0  0  0  0  0  0  0  0  0  0  0
   -0.3030   -4.7112   -7.0983 O   0  0  0  0  0  0  0  0  0  0  0  0
   -1.6861    1.2440   -7.6079 C   0  0  0  0  0  0  0  0  0  0  0  0
   -2.2688    1.4766   -9.0051 C   0  0  0  0  0  0  0  0  0  0  0  0
    1.8226   -2.8007   -7.6079 C   0  0  0  0  0  0  0  0  0  0  0  0
    2.3529   -3.0755   -6.1975 C   0  0  0  0  0  0  0  0  0  0  0  0
   -2.5796   -6.5241   -6.4499 C   0  0  0  0  0  0  0  0  0  0  0  0
   -3.3426   -7.6445   -6.1424 C   0  0  0  0  0  0  0  0  0  0  0  0
   -2.6135   -8.8197   -6.0575 C   0  0  0  0  0  0  0  0  0  0  0  0
   -1.2676   -8.6235   -6.3051 C   0  0  0  0  0  0  0  0  0  0  0  0
   -0.9059   -6.9592   -6.6485 S   0  0  0  0  0  0  0  0  0  0  0  0
   -0.2279   -9.5888   -6.2833 C   0  0  0  0  0  0  0  0  0  0  0  0
   -0.5171  -11.2514   -5.8439 S   0  0  0  0  0  0  0  0  0  0  0  0
    1.1646  -11.6609   -6.0258 C   0  0  0  0  0  0  0  0  0  0  0  0
    1.8679  -10.5400   -6.4266 C   0  0  0  0  0  0  0  0  0  0  0  0
    1.1023   -9.3815   -6.5676 C   0  0  0  0  0  0  0  0  0  0  0  0
   -8.7382    0.1395   -6.3825 C   0  0  0  0  0  0  0  0  0  0  0  0
   -8.3723    1.4390   -6.6291 C   0  0  0  0  0  0  0  0  0  0  0  0
   -9.4715    2.3121   -6.5657 C   0  0  0  0  0  0  0  0  0  0  0  0
  -10.6590    1.7110   -6.2782 C   0  0  0  0  0  0  0  0  0  0  0  0
  -10.4516    0.0216   -6.0736 S   0  0  0  0  0  0  0  0  0  0  0  0
   -9.3584    3.6325   -6.7726 F   0  0  0  0  0  0  0  0  0  0  0  0
    3.1737  -10.5570   -6.7120 F   0  0  0  0  0  0  0  0  0  0  0  0
    1.7134  -16.8434   -5.2363 C   0  0  0  0  0  0  0  0  0  0  0  0
    0.5580  -17.5807   -5.4170 C   0  0  0  0  0  0  0  0  0  0  0  0
    0.7540  -18.9336   -5.1866 C   0  0  0  0  0  0  0  0  0  0  0  0
    2.0545  -19.2665   -4.8257 C   0  0  0  0  0  0  0  0  0  0  0  0
    3.0570  -17.8443   -4.7778 S   0  0  0  0  0  0  0  0  0  0  0  0
    2.4870  -20.5845   -4.5351 C   0  0  0  0  0  0  0  0  0  0  0  0
    1.2991  -21.8614   -4.6532 S   0  0  0  0  0  0  0  0  0  0  0  0
    2.4436  -23.0962   -4.1830 C   0  0  0  0  0  0  0  0  0  0  0  0
    3.6914  -22.5264   -3.9512 C   0  0  0  0  0  0  0  0  0  0  0  0
    3.7162  -21.1105   -4.1504 C   0  0  0  0  0  0  0  0  0  0  0  0
    4.8639  -23.2780   -3.5404 C   0  0  0  0  0  0  0  0  0  0  0  0
    6.0747  -22.4862   -3.3647 C   0  0  0  0  0  0  0  0  0  0  0  0
    6.1008  -21.0702   -3.5683 C   0  0  0  0  0  0  0  0  0  0  0  0
    4.9198  -20.3177   -3.9724 C   0  0  0  0  0  0  0  0  0  0  0  0
    7.2966  -22.9977   -3.0004 C   0  0  0  0  0  0  0  0  0  0  0  0
    8.4766  -21.7389   -2.8843 S   0  0  0  0  0  0  0  0  0  0  0  0
    7.3366  -20.5182   -3.3332 C   0  0  0  0  0  0  0  0  0  0  0  0
    4.9544  -19.1022   -4.1543 O   0  0  0  0  0  0  0  0  0  0  0  0
    4.8469  -24.4917   -3.3443 O   0  0  0  0  0  0  0  0  0  0  0  0
    7.7718  -19.1037   -3.4631 C   0  0  0  0  0  0  0  0  0  0  0  0
    8.0769  -18.7612   -4.9245 C   0  0  0  0  0  0  0  0  0  0  0  0
    7.6661  -24.3991   -2.6743 C   0  0  0  0  0  0  0  0  0  0  0  0
    7.2802  -24.7410   -1.2319 C   0  0  0  0  0  0  0  0  0  0  0  0
    1.9665  -24.4285   -4.1056 C   0  0  0  0  0  0  0  0  0  0  0  0
    0.6634  -24.8095   -4.4039 C   0  0  0  0  0  0  0  0  0  0  0  0
    0.4184  -26.1648   -4.2457 C   0  0  0  0  0  0  0  0  0  0  0  0
    1.5365  -26.8549   -3.8157 C   0  0  0  0  0  0  0  0  0  0  0  0
    2.9081  -25.8082   -3.6155 S   0  0  0  0  0  0  0  0  0  0  0  0
    1.6662  -28.2409   -3.5393 C   0  0  0  0  0  0  0  0  0  0  0  0
    0.3491  -29.3652   -3.7445 S   0  0  0  0  0  0  0  0  0  0  0  0
    1.3241  -30.7050   -3.2125 C   0  0  0  0  0  0  0  0  0  0  0  0
    2.5962  -30.2557   -2.9123 C   0  0  0  0  0  0  0  0  0  0  0  0
    2.7954  -28.8859   -3.0889 C   0  0  0  0  0  0  0  0  0  0  0  0
    1.8979  -15.4432   -5.3760 C   0  0  0  0  0  0  0  0  0  0  0  0
    3.0694  -14.7467   -5.1846 C   0  0  0  0  0  0  0  0  0  0  0  0
    2.9192  -13.3755   -5.3936 C   0  0  0  0  0  0  0  0  0  0  0  0
    1.6457  -12.9747   -5.7535 C   0  0  0  0  0  0  0  0  0  0  0  0
    0.6014  -14.3656   -5.8209 S   0  0  0  0  0  0  0  0  0  0  0  0
    3.9286  -12.5211   -5.1990 F   0  0  0  0  0  0  0  0  0  0  0  0
    3.5886  -31.0687   -2.5360 F   0  0  0  0  0  0  0  0  0  0  0  0
   -1.3147  -35.2031   -3.9479 C   0  0  0  0  0  0  0  0  0  0  0  0
   -2.3247  -35.1087   -4.8871 C   0  0  0  0  0  0  0  0  0  0  0  0
   -2.9570  -36.3221   -5.1059 C   0  0  0  0  0  0  0  0  0  0  0  0
   -2.4502  -37.3709   -4.3477 C   0  0  0  0  0  0  0  0  0  0  0  0
   -1.1536  -36.8177   -3.3269 S   0  0  0  0  0  0  0  0  0  0  0  0
   -2.9249  -38.7040   -4.4266 C   0  0  0  0  0  0  0  0  0  0  0  0
   -4.2270  -39.0178   -5.5485 S   0  0  0  0  0  0  0  0  0  0  0  0
   -4.2688  -40.7222   -5.1662 C   0  0  0  0  0  0  0  0  0  0  0  0
   -3.3083  -41.0200   -4.2065 C   0  0  0  0  0  0  0  0  0  0  0  0
   -2.5523  -39.8808   -3.7863 C   0  0  0  0  0  0  0  0  0  0  0  0
   -3.0826  -42.3511   -3.6709 C   0  0  0  0  0  0  0  0  0  0  0  0
   -2.0113  -42.4430   -2.6859 C   0  0  0  0  0  0  0  0  0  0  0  0
   -1.2575  -41.3020   -2.2620 C   0  0  0  0  0  0  0  0  0  0  0  0
   -1.4983  -39.9647   -2.7912 C   0  0  0  0  0  0  0  0  0  0  0  0
   -1.6101  -43.6060   -2.0750 C   0  0  0  0  0  0  0  0  0  0  0  0
   -0.3226  -43.3010   -0.9615 S   0  0  0  0  0  0  0  0  0  0  0  0
   -0.3101  -41.6081   -1.3157 C   0  0  0  0  0  0  0  0  0  0  0  0
   -0.8479  -38.9889   -2.4216 O   0  0  0  0  0  0  0  0  0  0  0  0
   -3.7430  -43.3302   -4.0123 O   0  0  0  0  0  0  0  0  0  0  0  0
    0.6779  -40.7167   -0.6552 C   0  0  0  0  0  0  0  0  0  0  0  0
    1.8966  -40.4929   -1.5556 C   0  0  0  0  0  0  0  0  0  0  0  0
   -2.1577  -44.9791   -2.2228 C   0  0  0  0  0  0  0  0  0  0  0  0
   -3.4000  -45.1641   -1.3462 C   0  0  0  0  0  0  0  0  0  0  0  0
   -5.2216  -41.5126   -5.8570 C   0  0  0  0  0  0  0  0  0  0  0  0
   -6.0972  -41.0077   -6.8092 C   0  0  0  0  0  0  0  0  0  0  0  0
   -6.9433  -41.9586   -7.3590 C   0  0  0  0  0  0  0  0  0  0  0  0
   -6.7313  -43.2185   -6.8349 C   0  0  0  0  0  0  0  0  0  0  0  0
   -5.4667  -43.2239   -5.6463 S   0  0  0  0  0  0  0  0  0  0  0  0
   -7.4188  -44.4186   -7.1714 C   0  0  0  0  0  0  0  0  0  0  0  0
   -8.6915  -44.4291   -8.3655 S   0  0  0  0  0  0  0  0  0  0  0  0
   -8.9405  -46.1129   -8.1630 C   0  0  0  0  0  0  0  0  0  0  0  0
   -8.0875  -46.6187   -7.2298 C   0  0  0  0  0  0  0  0  0  0  0  0
   -7.2181  -45.6750   -6.6572 C   0  0  0  0  0  0  0  0  0  0  0  0
   -0.4479  -34.1749   -3.4949 C   0  0  0  0  0  0  0  0  0  0  0  0
    0.5383  -34.2819   -2.5414 C   0  0  0  0  0  0  0  0  0  0  0  0
    1.2289  -33.0843   -2.3485 C   0  0  0  0  0  0  0  0  0  0  0  0
    0.8084  -32.0325   -3.1406 C   0  0  0  0  0  0  0  0  0  0  0  0
   -0.5121  -32.5578   -4.1443 S   0  0  0  0  0  0  0  0  0  0  0  0
    2.1875  -32.9654   -1.4242 F   0  0  0  0  0  0  0  0  0  0  0  0
   -8.0771  -47.9146   -6.8840 F   0  0  0  0  0  0  0  0  0  0  0  0
   -9.2965   -2.6075   -5.9100 H   0  0  0  0  0  0  0  0  0  0  0  0
   -7.3022   -4.2584   -6.0105 H   0  0  0  0  0  0  0  0  0  0  0  0
   -0.9408    2.0109   -7.3881 H   0  0  0  0  0  0  0  0  0  0  0  0
   -2.4957    1.3060   -6.8783 H   0  0  0  0  0  0  0  0  0  0  0  0
   -1.4967    1.3745   -9.7648 H   0  0  0  0  0  0  0  0  0  0  0  0
   -2.6907    2.4759   -9.0663 H   0  0  0  0  0  0  0  0  0  0  0  0
   -3.0575    0.7552   -9.2005 H   0  0  0  0  0  0  0  0  0  0  0  0
    2.5782   -2.2663   -8.1869 H   0  0  0  0  0  0  0  0  0  0  0  0
    1.6047   -3.7552   -8.0905 H   0  0  0  0  0  0  0  0  0  0  0  0
    2.5385   -2.1429   -5.6687 H   0  0  0  0  0  0  0  0  0  0  0  0
    3.2816   -3.6361   -6.2558 H   0  0  0  0  0  0  0  0  0  0  0  0
    1.6292   -3.6626   -5.6387 H   0  0  0  0  0  0  0  0  0  0  0  0
   -4.4054   -7.5872   -5.9820 H   0  0  0  0  0  0  0  0  0  0  0  0
   -3.0358   -9.7818   -5.8259 H   0  0  0  0  0  0  0  0  0  0  0  0
    1.5067   -8.4330   -6.8695 H   0  0  0  0  0  0  0  0  0  0  0  0
   -7.3665    1.7481   -6.8444 H   0  0  0  0  0  0  0  0  0  0  0  0
  -11.6243    2.1628   -6.1779 H   0  0  0  0  0  0  0  0  0  0  0  0
   -0.3822  -17.1430   -5.7035 H   0  0  0  0  0  0  0  0  0  0  0  0
   -0.0228  -19.6736   -5.2737 H   0  0  0  0  0  0  0  0  0  0  0  0
    8.6622  -18.9394   -2.8533 H   0  0  0  0  0  0  0  0  0  0  0  0
    6.9683  -18.4527   -3.1135 H   0  0  0  0  0  0  0  0  0  0  0  0
    8.8425  -19.4241   -5.3222 H   0  0  0  0  0  0  0  0  0  0  0  0
    8.4289  -17.7360   -4.9966 H   0  0  0  0  0  0  0  0  0  0  0  0
    7.1752  -18.8602   -5.5227 H   0  0  0  0  0  0  0  0  0  0  0  0
    8.7411  -24.5331   -2.8090 H   0  0  0  0  0  0  0  0  0  0  0  0
    7.1304  -25.0720   -3.3465 H   0  0  0  0  0  0  0  0  0  0  0  0
    7.7594  -24.0574   -0.5342 H   0  0  0  0  0  0  0  0  0  0  0  0
    7.5909  -25.7554   -0.9982 H   0  0  0  0  0  0  0  0  0  0  0  0
    6.2024  -24.6731   -1.1125 H   0  0  0  0  0  0  0  0  0  0  0  0
   -0.0795  -24.1016   -4.7288 H   0  0  0  0  0  0  0  0  0  0  0  0
   -0.5308  -26.6364   -4.4309 H   0  0  0  0  0  0  0  0  0  0  0  0
    3.7301  -28.3906   -2.9011 H   0  0  0  0  0  0  0  0  0  0  0  0
    3.9962  -15.2073   -4.8961 H   0  0  0  0  0  0  0  0  0  0  0  0
   -2.5808  -34.1909   -5.3867 H   0  0  0  0  0  0  0  0  0  0  0  0
   -3.7674  -36.4572   -5.8012 H   0  0  0  0  0  0  0  0  0  0  0  0
    0.9960  -41.1629    0.2891 H   0  0  0  0  0  0  0  0  0  0  0  0
    0.2078  -39.7513   -0.4590 H   0  0  0  0  0  0  0  0  0  0  0  0
    2.3661  -41.4412   -1.8089 H   0  0  0  0  0  0  0  0  0  0  0  0
    2.6228  -39.8681   -1.0435 H   0  0  0  0  0  0  0  0  0  0  0  0
    1.5927  -39.9913   -2.4703 H   0  0  0  0  0  0  0  0  0  0  0  0
   -1.3958  -45.7077   -1.9390 H   0  0  0  0  0  0  0  0  0  0  0  0
   -2.4399  -45.1374   -3.2652 H   0  0  0  0  0  0  0  0  0  0  0  0
   -3.1654  -44.9676   -0.3021 H   0  0  0  0  0  0  0  0  0  0  0  0
   -3.7669  -46.1825   -1.4373 H   0  0  0  0  0  0  0  0  0  0  0  0
   -4.1835  -44.4837   -1.6685 H   0  0  0  0  0  0  0  0  0  0  0  0
   -6.1063  -39.9678   -7.0864 H   0  0  0  0  0  0  0  0  0  0  0  0
   -7.6847  -41.7493   -8.1100 H   0  0  0  0  0  0  0  0  0  0  0  0
   -9.6863  -46.6312   -8.7299 H   0  0  0  0  0  0  0  0  0  0  0  0
   -6.4843  -45.9057   -5.9076 H   0  0  0  0  0  0  0  0  0  0  0  0
    0.7500  -35.1864   -2.0017 H   0  0  0  0  0  0  0  0  0  0  0  0
  1  2  2  0  0  0  0
  2121  1  0  0  0  0
  3  2  1  0  0  0  0
  3122  1  0  0  0  0
  4  3  2  0  0  0  0
  5  4  1  0  0  0  0
  5  1  1  0  0  0  0
  6  4  1  0  0  0  0
  6  7  1  0  0  0  0
  8 24  1  0  0  0  0
  8  7  1  0  0  0  0
  9 10  1  0  0  0  0
  9  8  2  0  0  0  0
 10  6  2  0  0  0  0
 11  9  1  0  0  0  0
 12 13  1  0  0  0  0
 12 11  1  0  0  0  0
 13 14  1  0  0  0  0
 14 10  1  0  0  0  0
 15 12  2  0  0  0  0
 16 15  1  0  0  0  0
 16 17  1  0  0  0  0
 17 13  2  0  0  0  0
 18 14  2  0  0  0  0
 19 11  2  0  0  0  0
 20 17  1  0  0  0  0
 20123  1  0  0  0  0
 20124  1  0  0  0  0
 21 20  1  0  0  0  0
 22 15  1  0  0  0  0
 22 23  1  0  0  0  0
 23130  1  0  0  0  0
 23132  1  0  0  0  0
 24 25  2  0  0  0  0
 25 26  1  0  0  0  0
 25133  1  0  0  0  0
 26134  1  0  0  0  0
 27 29  1  0  0  0  0
 27 26  2  0  0  0  0
 28 24  1  0  0  0  0
 28 27  1  0  0  0  0
 29 30  1  0  0  0  0
 31 30  1  0  0  0  0
 31 77  1  0  0  0  0
 32 31  2  0  0  0  0
 33 32  1  0  0  0  0
 33 29  2  0  0  0  0
 34  1  1  0  0  0  0
 34 38  1  0  0  0  0
 35 36  1  0  0  0  0
 35 34  2  0  0  0  0
 36 37  2  0  0  0  0
 37137  1  0  0  0  0
 37 38  1  0  0  0  0
 39 36  1  0  0  0  0
 40 32  1  0  0  0  0
 41 45  1  0  0  0  0
 42 41  2  0  0  0  0
 42 43  1  0  0  0  0
 43 44  2  0  0  0  0
 44 45  1  0  0  0  0
 44 46  1  0  0  0  0
 46 50  2  0  0  0  0
 47 46  1  0  0  0  0
 47 48  1  0  0  0  0
 48 64  1  0  0  0  0
 48 49  2  0  0  0  0
 49 51  1  0  0  0  0
 50 54  1  0  0  0  0
 50 49  1  0  0  0  0
 51 52  1  0  0  0  0
 51 59  2  0  0  0  0
 52 55  2  0  0  0  0
 53 52  1  0  0  0  0
 53 57  2  0  0  0  0
 54 53  1  0  0  0  0
 55 56  1  0  0  0  0
 55 62  1  0  0  0  0
 57 56  1  0  0  0  0
 58 54  2  0  0  0  0
 60 57  1  0  0  0  0
 60141  1  0  0  0  0
 60140  1  0  0  0  0
 61 60  1  0  0  0  0
 62 63  1  0  0  0  0
 63149  1  0  0  0  0
 63148  1  0  0  0  0
 63147  1  0  0  0  0
 64 68  1  0  0  0  0
 65 66  1  0  0  0  0
 65 64  2  0  0  0  0
 66 67  2  0  0  0  0
 67 68  1  0  0  0  0
 67 69  1  0  0  0  0
 69 73  2  0  0  0  0
 70 69  1  0  0  0  0
 70 71  1  0  0  0  0
 71117  1  0  0  0  0
 71 72  2  0  0  0  0
 72 80  1  0  0  0  0
 73 72  1  0  0  0  0
 73152  1  0  0  0  0
 74 41  1  0  0  0  0
 74 75  2  0  0  0  0
 75153  1  0  0  0  0
 76 79  1  0  0  0  0
 76 75  1  0  0  0  0
 77 76  2  0  0  0  0
 78 77  1  0  0  0  0
 78 74  1  0  0  0  0
 81114  1  0  0  0  0
 81 85  1  0  0  0  0
 82 81  2  0  0  0  0
 83 82  1  0  0  0  0
 83 84  2  0  0  0  0
 84 85  1  0  0  0  0
 86 84  1  0  0  0  0
 86 90  2  0  0  0  0
 87 88  1  0  0  0  0
 87 86  1  0  0  0  0
 88 89  2  0  0  0  0
 89 90  1  0  0  0  0
 89 91  1  0  0  0  0
 90 94  1  0  0  0  0
 91 92  1  0  0  0  0
 92 93  1  0  0  0  0
 92 95  2  0  0  0  0
 93 97  2  0  0  0  0
 94 98  2  0  0  0  0
 94 93  1  0  0  0  0
 95 96  1  0  0  0  0
 97 96  1  0  0  0  0
 97100  1  0  0  0  0
 99 91  2  0  0  0  0
100157  1  0  0  0  0
100156  1  0  0  0  0
101159  1  0  0  0  0
101100  1  0  0  0  0
102 95  1  0  0  0  0
102161  1  0  0  0  0
102103  1  0  0  0  0
103163  1  0  0  0  0
104108  1  0  0  0  0
104 88  1  0  0  0  0
105104  2  0  0  0  0
106107  2  0  0  0  0
106105  1  0  0  0  0
107108  1  0  0  0  0
109107  1  0  0  0  0
109113  2  0  0  0  0
110111  1  0  0  0  0
110109  1  0  0  0  0
111112  2  0  0  0  0
112120  1  0  0  0  0
112113  1  0  0  0  0
113169  1  0  0  0  0
114115  2  0  0  0  0
115116  1  0  0  0  0
115170  1  0  0  0  0
116119  1  0  0  0  0
117116  2  0  0  0  0
118114  1  0  0  0  0
118117  1  0  0  0  0
125 21  1  0  0  0  0
126 21  1  0  0  0  0
127 21  1  0  0  0  0
128 22  1  0  0  0  0
129 22  1  0  0  0  0
131 23  1  0  0  0  0
135 33  1  0  0  0  0
136 35  1  0  0  0  0
138 42  1  0  0  0  0
139 43  1  0  0  0  0
142 61  1  0  0  0  0
143 61  1  0  0  0  0
144 61  1  0  0  0  0
145 62  1  0  0  0  0
146 62  1  0  0  0  0
150 65  1  0  0  0  0
151 66  1  0  0  0  0
154 82  1  0  0  0  0
155 83  1  0  0  0  0
158101  1  0  0  0  0
160101  1  0  0  0  0
162102  1  0  0  0  0
164103  1  0  0  0  0
165103  1  0  0  0  0
166105  1  0  0  0  0
167106  1  0  0  0  0
168111  1  0  0  0  0
M  END
