SCF done       -365.369275624374          0.000398548423
 OpenBabel12282109573D

191217  0  0  0  0  0  0  0  0999 V2000
   13.5934    3.8418   12.0286 C   0  0  0  0  0  0  0  0  0  0  0  0
   12.6414    3.4842   10.6346 S   0  0  0  0  0  0  0  0  0  0  0  0
   12.8102    5.1210   10.0863 C   0  0  0  0  0  0  0  0  0  0  0  0
   13.5780    5.8959   10.9598 C   0  0  0  0  0  0  0  0  0  0  0  0
   14.0153    5.1265   12.0727 C   0  0  0  0  0  0  0  0  0  0  0  0
   12.2788    5.6791    8.9229 C   0  0  0  0  0  0  0  0  0  0  0  0
   12.4937    7.0288    8.6201 C   0  0  0  0  0  0  0  0  0  0  0  0
   13.2765    7.8496    9.4948 C   0  0  0  0  0  0  0  0  0  0  0  0
   13.8324    7.2742   10.6719 C   0  0  0  0  0  0  0  0  0  0  0  0
   11.3351    4.8710    7.7163 S   0  0  0  0  0  0  0  0  0  0  0  0
   11.2229    6.3506    6.7881 C   0  0  0  0  0  0  0  0  0  0  0  0
   11.8766    7.3862    7.4014 C   0  0  0  0  0  0  0  0  0  0  0  0
   13.5084    9.2014    9.1906 C   0  0  0  0  0  0  0  0  0  0  0  0
   14.2844    9.9425   10.0430 C   0  0  0  0  0  0  0  0  0  0  0  0
   14.8419    9.3696   11.2127 C   0  0  0  0  0  0  0  0  0  0  0  0
   14.6230    8.0554   11.5327 C   0  0  0  0  0  0  0  0  0  0  0  0
   14.6801   11.2594   10.0125 N   0  0  0  0  0  0  0  0  0  0  0  0
   15.4771   11.5286   11.1076 C   0  0  0  0  0  0  0  0  0  0  0  0
   15.5697   10.3574   11.8348 N   0  0  0  0  0  0  0  0  0  0  0  0
   15.9961   12.5872   11.3795 O   0  0  0  0  0  0  0  0  0  0  0  0
   14.3984   12.2256    8.9810 C   0  0  0  0  0  0  0  0  0  0  0  0
   15.2639   12.0009    7.7444 C   0  0  0  0  0  0  0  0  0  0  0  0
   16.2767   10.2589   13.0862 C   0  0  0  0  0  0  0  0  0  0  0  0
   15.3253   10.3091   14.2782 C   0  0  0  0  0  0  0  0  0  0  0  0
   10.5406    6.3655    5.5408 C   0  0  0  0  0  0  0  0  0  0  0  0
    9.9686    5.3001    4.8776 C   0  0  0  0  0  0  0  0  0  0  0  0
    9.4221    5.6467    3.6451 C   0  0  0  0  0  0  0  0  0  0  0  0
    9.5533    6.9868    3.3406 C   0  0  0  0  0  0  0  0  0  0  0  0
   10.3707    7.8306    4.6289 S   0  0  0  0  0  0  0  0  0  0  0  0
    9.1393    7.6511    2.1417 C   0  0  0  0  0  0  0  0  0  0  0  0
    8.7003    6.9317    0.9935 C   0  0  0  0  0  0  0  0  0  0  0  0
    8.3529    7.5990   -0.2364 C   0  0  0  0  0  0  0  0  0  0  0  0
    8.3982    9.0163   -0.3638 C   0  0  0  0  0  0  0  0  0  0  0  0
    8.7832    9.6795    0.7935 C   0  0  0  0  0  0  0  0  0  0  0  0
    9.1511    9.0303    1.9775 C   0  0  0  0  0  0  0  0  0  0  0  0
    8.8442   11.0248    0.8018 F   0  0  0  0  0  0  0  0  0  0  0  0
    9.5379    9.8201    2.9979 F   0  0  0  0  0  0  0  0  0  0  0  0
    8.5742    5.6117    0.8884 N   0  0  0  0  0  0  0  0  0  0  0  0
    8.0671    5.2417   -0.5905 S   0  0  0  0  0  0  0  0  0  0  0  0
    7.9853    6.7344   -1.1782 N   0  0  0  0  0  0  0  0  0  0  0  0
    8.0921    9.6749   -1.5986 C   0  0  0  0  0  0  0  0  0  0  0  0
    7.8366   11.3960   -1.7014 S   0  0  0  0  0  0  0  0  0  0  0  0
    7.5842   11.2994   -3.4142 C   0  0  0  0  0  0  0  0  0  0  0  0
    7.7088   10.0005   -3.8611 C   0  0  0  0  0  0  0  0  0  0  0  0
    7.9816    9.0907   -2.8441 C   0  0  0  0  0  0  0  0  0  0  0  0
    7.2870   12.4486   -4.1976 C   0  0  0  0  0  0  0  0  0  0  0  0
    7.3387   12.3323   -5.9427 S   0  0  0  0  0  0  0  0  0  0  0  0
    6.8533   13.9877   -6.0822 C   0  0  0  0  0  0  0  0  0  0  0  0
    6.6585   14.5997   -4.8376 C   0  0  0  0  0  0  0  0  0  0  0  0
    6.9257   13.7027   -3.7799 C   0  0  0  0  0  0  0  0  0  0  0  0
    6.6409   14.6926   -7.2635 C   0  0  0  0  0  0  0  0  0  0  0  0
    6.1690   16.0110   -7.2357 C   0  0  0  0  0  0  0  0  0  0  0  0
    5.9517   16.6666   -5.9798 C   0  0  0  0  0  0  0  0  0  0  0  0
    6.2226   15.9635   -4.7715 C   0  0  0  0  0  0  0  0  0  0  0  0
    6.9015   14.1113   -8.8729 S   0  0  0  0  0  0  0  0  0  0  0  0
    6.3534   15.6377   -9.5285 C   0  0  0  0  0  0  0  0  0  0  0  0
    5.9965   16.5190   -8.5423 C   0  0  0  0  0  0  0  0  0  0  0  0
    5.4979   17.9954   -5.9365 C   0  0  0  0  0  0  0  0  0  0  0  0
    5.3386   18.5966   -4.7149 C   0  0  0  0  0  0  0  0  0  0  0  0
    5.6212   17.9014   -3.5130 C   0  0  0  0  0  0  0  0  0  0  0  0
    6.0545   16.6010   -3.5309 C   0  0  0  0  0  0  0  0  0  0  0  0
    4.9208   19.8576   -4.3605 N   0  0  0  0  0  0  0  0  0  0  0  0
    4.9469   19.9845   -2.9851 C   0  0  0  0  0  0  0  0  0  0  0  0
    5.3823   18.7751   -2.4785 N   0  0  0  0  0  0  0  0  0  0  0  0
    4.6466   20.9669   -2.3465 O   0  0  0  0  0  0  0  0  0  0  0  0
    4.5581   20.9347   -5.2467 C   0  0  0  0  0  0  0  0  0  0  0  0
    5.7852   21.5965   -5.8669 C   0  0  0  0  0  0  0  0  0  0  0  0
    5.5010   18.5069   -1.0675 C   0  0  0  0  0  0  0  0  0  0  0  0
    4.3197   17.6958   -0.5432 C   0  0  0  0  0  0  0  0  0  0  0  0
    6.3416   15.8259  -10.9392 C   0  0  0  0  0  0  0  0  0  0  0  0
    6.9897   15.0598  -11.8847 C   0  0  0  0  0  0  0  0  0  0  0  0
    6.7998   15.5137  -13.1871 C   0  0  0  0  0  0  0  0  0  0  0  0
    5.9801   16.6201  -13.2679 C   0  0  0  0  0  0  0  0  0  0  0  0
    5.4529   17.1153  -11.6831 S   0  0  0  0  0  0  0  0  0  0  0  0
    5.5617   17.2945  -14.4615 C   0  0  0  0  0  0  0  0  0  0  0  0
    6.2440   17.1223  -15.6984 C   0  0  0  0  0  0  0  0  0  0  0  0
    5.8059   17.7748  -16.9066 C   0  0  0  0  0  0  0  0  0  0  0  0
    4.6394   18.5886  -16.9380 C   0  0  0  0  0  0  0  0  0  0  0  0
    4.0084   18.7330  -15.7103 C   0  0  0  0  0  0  0  0  0  0  0  0
    4.4610   18.1369  -14.5271 C   0  0  0  0  0  0  0  0  0  0  0  0
    2.8971   19.4875  -15.6160 F   0  0  0  0  0  0  0  0  0  0  0  0
    3.7472   18.3897  -13.4139 F   0  0  0  0  0  0  0  0  0  0  0  0
    7.3382   16.3934  -15.9019 N   0  0  0  0  0  0  0  0  0  0  0  0
    7.7719   16.5086  -17.4446 S   0  0  0  0  0  0  0  0  0  0  0  0
    6.5967   17.4876  -17.9368 N   0  0  0  0  0  0  0  0  0  0  0  0
    4.1609   19.1792  -18.1533 C   0  0  0  0  0  0  0  0  0  0  0  0
    2.5213   19.7436  -18.3108 S   0  0  0  0  0  0  0  0  0  0  0  0
    2.7897   20.1934  -19.9640 C   0  0  0  0  0  0  0  0  0  0  0  0
    4.0905   19.9382  -20.3426 C   0  0  0  0  0  0  0  0  0  0  0  0
    4.8543   19.3574  -19.3323 C   0  0  0  0  0  0  0  0  0  0  0  0
    1.7316   20.7259  -20.7509 C   0  0  0  0  0  0  0  0  0  0  0  0
    2.0516   21.4336  -22.3178 S   0  0  0  0  0  0  0  0  0  0  0  0
    0.3611   21.7481  -22.5389 C   0  0  0  0  0  0  0  0  0  0  0  0
   -0.4115   21.3111  -21.4542 C   0  0  0  0  0  0  0  0  0  0  0  0
    0.3959   20.7453  -20.4458 C   0  0  0  0  0  0  0  0  0  0  0  0
   -0.2412   22.3625  -23.6340 C   0  0  0  0  0  0  0  0  0  0  0  0
   -1.6323   22.5271  -23.6818 C   0  0  0  0  0  0  0  0  0  0  0  0
   -2.4550   22.0473  -22.6116 C   0  0  0  0  0  0  0  0  0  0  0  0
   -1.8375   21.4457  -21.4803 C   0  0  0  0  0  0  0  0  0  0  0  0
    0.5511   23.0108  -25.0327 S   0  0  0  0  0  0  0  0  0  0  0  0
   -0.9883   23.5214  -25.6886 C   0  0  0  0  0  0  0  0  0  0  0  0
   -2.0297   23.1886  -24.8619 C   0  0  0  0  0  0  0  0  0  0  0  0
   -3.8535   22.1620  -22.6765 C   0  0  0  0  0  0  0  0  0  0  0  0
   -4.6003   21.6812  -21.6326 C   0  0  0  0  0  0  0  0  0  0  0  0
   -3.9850   21.0874  -20.5027 C   0  0  0  0  0  0  0  0  0  0  0  0
   -2.6221   20.9704  -20.4163 C   0  0  0  0  0  0  0  0  0  0  0  0
   -5.9580   21.6298  -21.4237 N   0  0  0  0  0  0  0  0  0  0  0  0
   -6.2167   21.0366  -20.2031 C   0  0  0  0  0  0  0  0  0  0  0  0
   -4.9937   20.7164  -19.6453 N   0  0  0  0  0  0  0  0  0  0  0  0
   -7.3053   20.8355  -19.7160 O   0  0  0  0  0  0  0  0  0  0  0  0
   -6.9903   22.1345  -22.2937 C   0  0  0  0  0  0  0  0  0  0  0  0
   -7.1212   23.6516  -22.1983 C   0  0  0  0  0  0  0  0  0  0  0  0
   -4.8552   20.0162  -18.3933 C   0  0  0  0  0  0  0  0  0  0  0  0
   -4.5747   18.5312  -18.6055 C   0  0  0  0  0  0  0  0  0  0  0  0
   -1.0541   24.2073  -26.9313 C   0  0  0  0  0  0  0  0  0  0  0  0
   -0.0143   24.5568  -27.7676 C   0  0  0  0  0  0  0  0  0  0  0  0
   -0.4294   25.2413  -28.9065 C   0  0  0  0  0  0  0  0  0  0  0  0
   -1.7958   25.4315  -28.9694 C   0  0  0  0  0  0  0  0  0  0  0  0
   -2.5750   24.7356  -27.5743 S   0  0  0  0  0  0  0  0  0  0  0  0
   -2.5392   26.0965  -29.9968 C   0  0  0  0  0  0  0  0  0  0  0  0
   -1.9107   26.6980  -31.1251 C   0  0  0  0  0  0  0  0  0  0  0  0
   -2.6679   27.3656  -32.1559 C   0  0  0  0  0  0  0  0  0  0  0  0
   -4.0880   27.4617  -32.1084 C   0  0  0  0  0  0  0  0  0  0  0  0
   -4.6561   26.8657  -30.9924 C   0  0  0  0  0  0  0  0  0  0  0  0
   -3.9216   26.2189  -29.9903 C   0  0  0  0  0  0  0  0  0  0  0  0
   -5.9916   26.8875  -30.8254 F   0  0  0  0  0  0  0  0  0  0  0  0
   -4.6353   25.6943  -28.9756 F   0  0  0  0  0  0  0  0  0  0  0  0
   -0.6049   26.7313  -31.3752 N   0  0  0  0  0  0  0  0  0  0  0  0
   -0.3467   27.5144  -32.7534 S   0  0  0  0  0  0  0  0  0  0  0  0
   -1.8757   27.8528  -33.1076 N   0  0  0  0  0  0  0  0  0  0  0  0
   -4.8476   28.1198  -33.1341 C   0  0  0  0  0  0  0  0  0  0  0  0
   -6.5872   28.2307  -33.0691 S   0  0  0  0  0  0  0  0  0  0  0  0
   -6.6259   29.0855  -34.5491 C   0  0  0  0  0  0  0  0  0  0  0  0
   -5.3824   29.2803  -35.0705 C   0  0  0  0  0  0  0  0  0  0  0  0
   -4.3695   28.7330  -34.2699 C   0  0  0  0  0  0  0  0  0  0  0  0
   13.7818    3.0607   12.7386 H   0  0  0  0  0  0  0  0  0  0  0  0
   14.6173    5.5105   12.8757 H   0  0  0  0  0  0  0  0  0  0  0  0
   11.9055    8.3675    6.9631 H   0  0  0  0  0  0  0  0  0  0  0  0
   13.0834    9.6394    8.3033 H   0  0  0  0  0  0  0  0  0  0  0  0
   15.0499    7.6216   12.4213 H   0  0  0  0  0  0  0  0  0  0  0  0
   14.6080   13.2082    9.4114 H   0  0  0  0  0  0  0  0  0  0  0  0
   13.3366   12.1646    8.7235 H   0  0  0  0  0  0  0  0  0  0  0  0
   16.3154   12.0966    8.0037 H   0  0  0  0  0  0  0  0  0  0  0  0
   15.0227   12.7403    6.9860 H   0  0  0  0  0  0  0  0  0  0  0  0
   15.0961   11.0082    7.3328 H   0  0  0  0  0  0  0  0  0  0  0  0
   16.9648   11.1075   13.1209 H   0  0  0  0  0  0  0  0  0  0  0  0
   16.8527    9.3285   13.0922 H   0  0  0  0  0  0  0  0  0  0  0  0
   14.7855   11.2527   14.2825 H   0  0  0  0  0  0  0  0  0  0  0  0
   15.8873   10.2246   15.2041 H   0  0  0  0  0  0  0  0  0  0  0  0
   14.6040    9.4965   14.2283 H   0  0  0  0  0  0  0  0  0  0  0  0
    9.9625    4.3035    5.2821 H   0  0  0  0  0  0  0  0  0  0  0  0
    8.9438    4.9539    2.9791 H   0  0  0  0  0  0  0  0  0  0  0  0
    7.5944    9.7321   -4.8964 H   0  0  0  0  0  0  0  0  0  0  0  0
    8.1028    8.0348   -2.9938 H   0  0  0  0  0  0  0  0  0  0  0  0
    6.8443   13.9430   -2.7352 H   0  0  0  0  0  0  0  0  0  0  0  0
    5.6360   17.5046   -8.7754 H   0  0  0  0  0  0  0  0  0  0  0  0
    5.2837   18.5257   -6.8491 H   0  0  0  0  0  0  0  0  0  0  0  0
    6.2698   16.0739   -2.6168 H   0  0  0  0  0  0  0  0  0  0  0  0
    4.0077   21.6603   -4.6424 H   0  0  0  0  0  0  0  0  0  0  0  0
    3.8983   20.5410   -6.0259 H   0  0  0  0  0  0  0  0  0  0  0  0
    6.4156   22.0162   -5.0871 H   0  0  0  0  0  0  0  0  0  0  0  0
    5.4752   22.3966   -6.5333 H   0  0  0  0  0  0  0  0  0  0  0  0
    6.3674   20.8731   -6.4332 H   0  0  0  0  0  0  0  0  0  0  0  0
    5.5364   19.4795   -0.5699 H   0  0  0  0  0  0  0  0  0  0  0  0
    6.4414   17.9768   -0.8887 H   0  0  0  0  0  0  0  0  0  0  0  0
    3.3940   18.2439   -0.6997 H   0  0  0  0  0  0  0  0  0  0  0  0
    4.4411   17.5128    0.5208 H   0  0  0  0  0  0  0  0  0  0  0  0
    4.2501   16.7405   -1.0585 H   0  0  0  0  0  0  0  0  0  0  0  0
    7.5886   14.2052  -11.6241 H   0  0  0  0  0  0  0  0  0  0  0  0
    7.2325   15.0565  -14.0566 H   0  0  0  0  0  0  0  0  0  0  0  0
    4.4590   20.1575  -21.3290 H   0  0  0  0  0  0  0  0  0  0  0  0
    5.8831   19.0700  -19.4402 H   0  0  0  0  0  0  0  0  0  0  0  0
    0.0287   20.3472  -19.5172 H   0  0  0  0  0  0  0  0  0  0  0  0
   -3.0452   23.4325  -25.1166 H   0  0  0  0  0  0  0  0  0  0  0  0
   -4.3230   22.6100  -23.5359 H   0  0  0  0  0  0  0  0  0  0  0  0
   -2.1564   20.5191  -19.5566 H   0  0  0  0  0  0  0  0  0  0  0  0
   -7.9218   21.6579  -21.9775 H   0  0  0  0  0  0  0  0  0  0  0  0
   -6.7621   21.8324  -23.3204 H   0  0  0  0  0  0  0  0  0  0  0  0
   -7.3805   23.9393  -21.1826 H   0  0  0  0  0  0  0  0  0  0  0  0
   -7.9026   23.9969  -22.8693 H   0  0  0  0  0  0  0  0  0  0  0  0
   -6.1861   24.1362  -22.4696 H   0  0  0  0  0  0  0  0  0  0  0  0
   -5.8001   20.1458  -17.8595 H   0  0  0  0  0  0  0  0  0  0  0  0
   -4.0496   20.4818  -17.8176 H   0  0  0  0  0  0  0  0  0  0  0  0
   -5.3979   18.0711  -19.1465 H   0  0  0  0  0  0  0  0  0  0  0  0
   -4.4673   18.0346  -17.6453 H   0  0  0  0  0  0  0  0  0  0  0  0
   -3.6606   18.3908  -19.1780 H   0  0  0  0  0  0  0  0  0  0  0  0
    1.0110   24.3179  -27.5463 H   0  0  0  0  0  0  0  0  0  0  0  0
    0.2318   25.5972  -29.6736 H   0  0  0  0  0  0  0  0  0  0  0  0
   -7.5696   29.3966  -34.9518 H   0  0  0  0  0  0  0  0  0  0  0  0
   -5.1975   29.7964  -35.9954 H   0  0  0  0  0  0  0  0  0  0  0  0
   -3.3228   28.7778  -34.5028 H   0  0  0  0  0  0  0  0  0  0  0  0
  1  5  2  0  0  0  0
  1136  1  0  0  0  0
  2  1  1  0  0  0  0
  3  2  1  0  0  0  0
  3  4  2  0  0  0  0
  4  5  1  0  0  0  0
  5137  1  0  0  0  0
  6  3  1  0  0  0  0
  7  6  2  0  0  0  0
  7  8  1  0  0  0  0
  8  9  1  0  0  0  0
  9  4  1  0  0  0  0
  9 16  2  0  0  0  0
 10  6  1  0  0  0  0
 11 12  2  0  0  0  0
 11 10  1  0  0  0  0
 12  7  1  0  0  0  0
 13  8  2  0  0  0  0
 13 14  1  0  0  0  0
 14 15  2  0  0  0  0
 15 16  1  0  0  0  0
 15 19  1  0  0  0  0
 16140  1  0  0  0  0
 17 14  1  0  0  0  0
 17 18  1  0  0  0  0
 18 20  2  0  0  0  0
 18 19  1  0  0  0  0
 19 23  1  0  0  0  0
 21141  1  0  0  0  0
 21 17  1  0  0  0  0
 22143  1  0  0  0  0
 22 21  1  0  0  0  0
 23147  1  0  0  0  0
 23146  1  0  0  0  0
 23 24  1  0  0  0  0
 24148  1  0  0  0  0
 24149  1  0  0  0  0
 25 11  1  0  0  0  0
 26151  1  0  0  0  0
 26 25  2  0  0  0  0
 27 26  1  0  0  0  0
 28 27  2  0  0  0  0
 28 29  1  0  0  0  0
 29 25  1  0  0  0  0
 30 28  1  0  0  0  0
 31 30  1  0  0  0  0
 32 31  1  0  0  0  0
 33 32  1  0  0  0  0
 33 34  2  0  0  0  0
 34 36  1  0  0  0  0
 34 35  1  0  0  0  0
 35 30  2  0  0  0  0
 35 37  1  0  0  0  0
 38 31  2  0  0  0  0
 39 38  1  0  0  0  0
 40 39  1  0  0  0  0
 40 32  2  0  0  0  0
 41 33  1  0  0  0  0
 42 41  1  0  0  0  0
 43 42  1  0  0  0  0
 44 43  2  0  0  0  0
 44 45  1  0  0  0  0
 45 41  2  0  0  0  0
 46 50  2  0  0  0  0
 46 43  1  0  0  0  0
 47 46  1  0  0  0  0
 48 47  1  0  0  0  0
 48 49  2  0  0  0  0
 49 54  1  0  0  0  0
 49 50  1  0  0  0  0
 50155  1  0  0  0  0
 51 52  2  0  0  0  0
 51 48  1  0  0  0  0
 52 53  1  0  0  0  0
 53 58  2  0  0  0  0
 53 54  1  0  0  0  0
 54 61  2  0  0  0  0
 55 51  1  0  0  0  0
 56 55  1  0  0  0  0
 56 57  2  0  0  0  0
 57 52  1  0  0  0  0
 58 59  1  0  0  0  0
 59 62  1  0  0  0  0
 59 60  2  0  0  0  0
 60 64  1  0  0  0  0
 61 60  1  0  0  0  0
 61158  1  0  0  0  0
 62 63  1  0  0  0  0
 63 64  1  0  0  0  0
 63 65  2  0  0  0  0
 64 68  1  0  0  0  0
 66159  1  0  0  0  0
 66 62  1  0  0  0  0
 67 66  1  0  0  0  0
 67161  1  0  0  0  0
 68165  1  0  0  0  0
 68164  1  0  0  0  0
 68 69  1  0  0  0  0
 69167  1  0  0  0  0
 70 56  1  0  0  0  0
 71169  1  0  0  0  0
 71 70  2  0  0  0  0
 72 71  1  0  0  0  0
 73 72  2  0  0  0  0
 73 74  1  0  0  0  0
 74 70  1  0  0  0  0
 75 73  1  0  0  0  0
 76 75  1  0  0  0  0
 77 76  1  0  0  0  0
 78 77  1  0  0  0  0
 78 79  2  0  0  0  0
 79 81  1  0  0  0  0
 79 80  1  0  0  0  0
 80 75  2  0  0  0  0
 80 82  1  0  0  0  0
 83 76  2  0  0  0  0
 84 83  1  0  0  0  0
 85 84  1  0  0  0  0
 85 77  2  0  0  0  0
 86 78  1  0  0  0  0
 87 86  1  0  0  0  0
 88 87  1  0  0  0  0
 89 88  2  0  0  0  0
 89 90  1  0  0  0  0
 90 86  2  0  0  0  0
 91 95  2  0  0  0  0
 91 88  1  0  0  0  0
 92 91  1  0  0  0  0
 93 92  1  0  0  0  0
 93 94  2  0  0  0  0
 94 95  1  0  0  0  0
 95173  1  0  0  0  0
 96 93  1  0  0  0  0
 97 96  2  0  0  0  0
 97 98  1  0  0  0  0
 98 99  1  0  0  0  0
 99 94  1  0  0  0  0
 99106  2  0  0  0  0
100 96  1  0  0  0  0
101100  1  0  0  0  0
101102  2  0  0  0  0
102 97  1  0  0  0  0
103 98  2  0  0  0  0
103104  1  0  0  0  0
104107  1  0  0  0  0
104105  2  0  0  0  0
105106  1  0  0  0  0
105109  1  0  0  0  0
106176  1  0  0  0  0
107108  1  0  0  0  0
108110  2  0  0  0  0
108109  1  0  0  0  0
109113  1  0  0  0  0
111112  1  0  0  0  0
111177  1  0  0  0  0
111107  1  0  0  0  0
112179  1  0  0  0  0
113182  1  0  0  0  0
113183  1  0  0  0  0
114113  1  0  0  0  0
114185  1  0  0  0  0
115101  1  0  0  0  0
116187  1  0  0  0  0
116115  2  0  0  0  0
117116  1  0  0  0  0
118117  2  0  0  0  0
118119  1  0  0  0  0
119115  1  0  0  0  0
120125  2  0  0  0  0
120118  1  0  0  0  0
121120  1  0  0  0  0
122123  1  0  0  0  0
122121  1  0  0  0  0
123124  2  0  0  0  0
124126  1  0  0  0  0
124125  1  0  0  0  0
125127  1  0  0  0  0
128121  2  0  0  0  0
129128  1  0  0  0  0
130129  1  0  0  0  0
130122  2  0  0  0  0
131132  1  0  0  0  0
131123  1  0  0  0  0
133132  1  0  0  0  0
134133  2  0  0  0  0
134135  1  0  0  0  0
135131  2  0  0  0  0
138 12  1  0  0  0  0
139 13  1  0  0  0  0
142 21  1  0  0  0  0
144 22  1  0  0  0  0
145 22  1  0  0  0  0
150 24  1  0  0  0  0
152 27  1  0  0  0  0
153 44  1  0  0  0  0
154 45  1  0  0  0  0
156 57  1  0  0  0  0
157 58  1  0  0  0  0
160 66  1  0  0  0  0
162 67  1  0  0  0  0
163 67  1  0  0  0  0
166 69  1  0  0  0  0
168 69  1  0  0  0  0
170 72  1  0  0  0  0
171 89  1  0  0  0  0
172 90  1  0  0  0  0
174102  1  0  0  0  0
175103  1  0  0  0  0
178111  1  0  0  0  0
180112  1  0  0  0  0
181112  1  0  0  0  0
184114  1  0  0  0  0
186114  1  0  0  0  0
188117  1  0  0  0  0
189133  1  0  0  0  0
190134  1  0  0  0  0
191135  1  0  0  0  0
M  END
