SCF done       -374.399959367176          0.001245706712
 OpenBabel12282109573D

212241  0  0  0  0  0  0  0  0999 V2000
   -1.6042   13.5455   13.4724 C   0  0  0  0  0  0  0  0  0  0  0  0
   -2.6298   14.0455   12.1977 S   0  0  0  0  0  0  0  0  0  0  0  0
   -2.5313   12.4691   11.4564 C   0  0  0  0  0  0  0  0  0  0  0  0
   -1.7316   11.6361   12.1870 C   0  0  0  0  0  0  0  0  0  0  0  0
   -1.1945   12.2414   13.3539 C   0  0  0  0  0  0  0  0  0  0  0  0
   -0.3365   11.5615   14.3088 C   0  0  0  0  0  0  0  0  0  0  0  0
   -3.2559   12.1771   10.2636 C   0  0  0  0  0  0  0  0  0  0  0  0
   -3.0749   10.6327    9.4665 S   0  0  0  0  0  0  0  0  0  0  0  0
   -4.2298   11.0968    8.2605 C   0  0  0  0  0  0  0  0  0  0  0  0
   -4.7447   12.3787    8.4871 C   0  0  0  0  0  0  0  0  0  0  0  0
   -4.1571   12.9797    9.6192 C   0  0  0  0  0  0  0  0  0  0  0  0
   -4.6579   10.3179    7.1796 C   0  0  0  0  0  0  0  0  0  0  0  0
   -5.5715   10.8187    6.2456 C   0  0  0  0  0  0  0  0  0  0  0  0
   -6.0284   12.1692    6.3795 C   0  0  0  0  0  0  0  0  0  0  0  0
   -5.7138   12.9064    7.5729 C   0  0  0  0  0  0  0  0  0  0  0  0
   -4.2193    8.6736    6.8474 S   0  0  0  0  0  0  0  0  0  0  0  0
   -5.3242    8.6312    5.4940 C   0  0  0  0  0  0  0  0  0  0  0  0
   -5.9592    9.8334    5.3200 C   0  0  0  0  0  0  0  0  0  0  0  0
   -6.8337   12.8775    5.5047 C   0  0  0  0  0  0  0  0  0  0  0  0
   -7.2877   14.4067    6.1876 S   0  0  0  0  0  0  0  0  0  0  0  0
   -6.3740   14.1229    7.6347 C   0  0  0  0  0  0  0  0  0  0  0  0
   -7.2481   12.5900    4.1614 C   0  0  0  0  0  0  0  0  0  0  0  0
   -6.1355   11.9586    2.9711 S   0  0  0  0  0  0  0  0  0  0  0  0
   -7.3498   12.0266    1.7347 C   0  0  0  0  0  0  0  0  0  0  0  0
   -8.5160   12.5334    2.2200 C   0  0  0  0  0  0  0  0  0  0  0  0
   -8.4582   12.8661    3.5873 C   0  0  0  0  0  0  0  0  0  0  0  0
   -7.0335   11.5820    0.3486 C   0  0  0  0  0  0  0  0  0  0  0  0
   -6.0781   12.5532   -0.3474 C   0  0  0  0  0  0  0  0  0  0  0  0
   -6.4560   15.0790    8.7009 C   0  0  0  0  0  0  0  0  0  0  0  0
   -6.6238   14.8538   10.0410 C   0  0  0  0  0  0  0  0  0  0  0  0
   -6.7033   16.0390   10.7963 C   0  0  0  0  0  0  0  0  0  0  0  0
   -6.6158   17.1707   10.0442 C   0  0  0  0  0  0  0  0  0  0  0  0
   -6.4279   16.7892    8.3646 S   0  0  0  0  0  0  0  0  0  0  0  0
   -6.6093   18.5891   10.4984 C   0  0  0  0  0  0  0  0  0  0  0  0
   -5.1994   19.1802   10.4300 C   0  0  0  0  0  0  0  0  0  0  0  0
    0.2665   10.3503   14.0252 C   0  0  0  0  0  0  0  0  0  0  0  0
    1.0740    9.6693   14.9374 C   0  0  0  0  0  0  0  0  0  0  0  0
    1.3438   10.1411   16.2092 C   0  0  0  0  0  0  0  0  0  0  0  0
    0.7532   11.3888   16.5447 C   0  0  0  0  0  0  0  0  0  0  0  0
   -0.0763   12.0942   15.5979 C   0  0  0  0  0  0  0  0  0  0  0  0
    0.8646   12.0510   17.6948 N   0  0  0  0  0  0  0  0  0  0  0  0
    0.0183   13.4127   17.6029 S   0  0  0  0  0  0  0  0  0  0  0  0
   -0.5334   13.2396   16.1039 N   0  0  0  0  0  0  0  0  0  0  0  0
    2.1716    9.4170   17.1358 C   0  0  0  0  0  0  0  0  0  0  0  0
    2.5366    9.7581   18.4130 C   0  0  0  0  0  0  0  0  0  0  0  0
    3.3631    8.8016   19.0293 C   0  0  0  0  0  0  0  0  0  0  0  0
    3.6268    7.7378   18.2255 C   0  0  0  0  0  0  0  0  0  0  0  0
    2.8686    7.8788   16.6938 S   0  0  0  0  0  0  0  0  0  0  0  0
   -9.8830    1.7259   -1.0040 C   0  0  0  0  0  0  0  0  0  0  0  0
  -11.3304    1.0606   -1.6421 S   0  0  0  0  0  0  0  0  0  0  0  0
  -12.2956    2.1812   -0.7192 C   0  0  0  0  0  0  0  0  0  0  0  0
  -11.4989    3.0205    0.0078 C   0  0  0  0  0  0  0  0  0  0  0  0
  -10.1133    2.7687   -0.1469 C   0  0  0  0  0  0  0  0  0  0  0  0
   -9.1037    3.5299    0.5688 C   0  0  0  0  0  0  0  0  0  0  0  0
  -13.7209    2.1738   -0.7372 C   0  0  0  0  0  0  0  0  0  0  0  0
  -14.5782    3.2645    0.3265 S   0  0  0  0  0  0  0  0  0  0  0  0
  -16.0926    2.6506   -0.2374 C   0  0  0  0  0  0  0  0  0  0  0  0
  -15.9390    1.6825   -1.2330 C   0  0  0  0  0  0  0  0  0  0  0  0
  -14.5764    1.4066   -1.4794 C   0  0  0  0  0  0  0  0  0  0  0  0
  -17.3524    3.0254    0.2380 C   0  0  0  0  0  0  0  0  0  0  0  0
  -18.5254    2.4162   -0.2209 C   0  0  0  0  0  0  0  0  0  0  0  0
  -18.4064    1.3745   -1.2002 C   0  0  0  0  0  0  0  0  0  0  0  0
  -17.1220    1.0943   -1.7892 C   0  0  0  0  0  0  0  0  0  0  0  0
  -17.6602    4.2351    1.4317 S   0  0  0  0  0  0  0  0  0  0  0  0
  -19.3795    3.9589    1.2995 C   0  0  0  0  0  0  0  0  0  0  0  0
  -19.6688    2.9875    0.3741 C   0  0  0  0  0  0  0  0  0  0  0  0
  -19.4161    0.5943   -1.7351 C   0  0  0  0  0  0  0  0  0  0  0  0
  -18.8162   -0.4059   -3.0223 S   0  0  0  0  0  0  0  0  0  0  0  0
  -17.1961    0.1817   -2.8258 C   0  0  0  0  0  0  0  0  0  0  0  0
  -20.7900    0.4360   -1.3482 C   0  0  0  0  0  0  0  0  0  0  0  0
  -21.2489    0.2092    0.3223 S   0  0  0  0  0  0  0  0  0  0  0  0
  -22.9170    0.0224   -0.1154 C   0  0  0  0  0  0  0  0  0  0  0  0
  -23.0818    0.1000   -1.4641 C   0  0  0  0  0  0  0  0  0  0  0  0
  -21.8790    0.3151   -2.1653 C   0  0  0  0  0  0  0  0  0  0  0  0
  -23.9536   -0.1311    0.9435 C   0  0  0  0  0  0  0  0  0  0  0  0
  -24.1605    1.1809    1.7043 C   0  0  0  0  0  0  0  0  0  0  0  0
  -16.1861   -0.2605   -3.7462 C   0  0  0  0  0  0  0  0  0  0  0  0
  -15.9389   -1.5340   -4.1743 C   0  0  0  0  0  0  0  0  0  0  0  0
  -14.8877   -1.6125   -5.1094 C   0  0  0  0  0  0  0  0  0  0  0  0
  -14.3498   -0.4029   -5.4246 C   0  0  0  0  0  0  0  0  0  0  0  0
  -15.1489    0.8779   -4.5710 S   0  0  0  0  0  0  0  0  0  0  0  0
  -13.1973   -0.0991   -6.3180 C   0  0  0  0  0  0  0  0  0  0  0  0
  -12.0139    0.4541   -5.5217 C   0  0  0  0  0  0  0  0  0  0  0  0
   -9.3361    4.8333    0.9649 C   0  0  0  0  0  0  0  0  0  0  0  0
   -8.4426    5.5520    1.7563 C   0  0  0  0  0  0  0  0  0  0  0  0
   -7.2572    5.0174    2.2340 C   0  0  0  0  0  0  0  0  0  0  0  0
   -6.9488    3.7000    1.8002 C   0  0  0  0  0  0  0  0  0  0  0  0
   -7.8642    2.9691    0.9573 C   0  0  0  0  0  0  0  0  0  0  0  0
   -5.8572    2.9895    2.0755 N   0  0  0  0  0  0  0  0  0  0  0  0
   -5.9666    1.5572    1.3529 S   0  0  0  0  0  0  0  0  0  0  0  0
   -7.4015    1.7562    0.6559 N   0  0  0  0  0  0  0  0  0  0  0  0
   -6.4278    5.7394    3.1545 C   0  0  0  0  0  0  0  0  0  0  0  0
   -5.3471    5.2987    3.8831 C   0  0  0  0  0  0  0  0  0  0  0  0
   -4.8440    6.2537    4.7707 C   0  0  0  0  0  0  0  0  0  0  0  0
   -5.5227    7.4501    4.7289 C   0  0  0  0  0  0  0  0  0  0  0  0
   -6.8079    7.3927    3.5599 S   0  0  0  0  0  0  0  0  0  0  0  0
  -20.7611    9.7826    9.4415 C   0  0  0  0  0  0  0  0  0  0  0  0
  -21.1271   10.9431   10.6443 S   0  0  0  0  0  0  0  0  0  0  0  0
  -22.5887   11.3983    9.8050 C   0  0  0  0  0  0  0  0  0  0  0  0
  -22.7541   10.6541    8.6713 C   0  0  0  0  0  0  0  0  0  0  0  0
  -21.7040    9.7281    8.4465 C   0  0  0  0  0  0  0  0  0  0  0  0
  -21.6126    8.8423    7.2983 C   0  0  0  0  0  0  0  0  0  0  0  0
  -23.4118   12.4385   10.3280 C   0  0  0  0  0  0  0  0  0  0  0  0
  -24.9157   12.8783    9.5577 S   0  0  0  0  0  0  0  0  0  0  0  0
  -25.1736   14.1265   10.7322 C   0  0  0  0  0  0  0  0  0  0  0  0
  -24.1605   14.1657   11.6926 C   0  0  0  0  0  0  0  0  0  0  0  0
  -23.1576   13.2113   11.4274 C   0  0  0  0  0  0  0  0  0  0  0  0
  -26.2333   15.0456   10.7614 C   0  0  0  0  0  0  0  0  0  0  0  0
  -26.2633   16.0949   11.6823 C   0  0  0  0  0  0  0  0  0  0  0  0
  -25.1990   16.2104   12.6339 C   0  0  0  0  0  0  0  0  0  0  0  0
  -24.2234   15.1573   12.7241 C   0  0  0  0  0  0  0  0  0  0  0  0
  -27.6236   15.0459    9.7278 S   0  0  0  0  0  0  0  0  0  0  0  0
  -28.2544   16.4233   10.5530 C   0  0  0  0  0  0  0  0  0  0  0  0
  -27.4484   16.8654   11.5465 C   0  0  0  0  0  0  0  0  0  0  0  0
  -25.0056   17.1942   13.5915 C   0  0  0  0  0  0  0  0  0  0  0  0
  -23.7102   16.7690   14.6654 S   0  0  0  0  0  0  0  0  0  0  0  0
  -23.3802   15.2948   13.8131 C   0  0  0  0  0  0  0  0  0  0  0  0
  -25.6269   18.4766   13.7455 C   0  0  0  0  0  0  0  0  0  0  0  0
  -25.9191   19.1348   15.3340 S   0  0  0  0  0  0  0  0  0  0  0  0
  -26.5439   20.6051   14.6625 C   0  0  0  0  0  0  0  0  0  0  0  0
  -26.5095   20.5737   13.3015 C   0  0  0  0  0  0  0  0  0  0  0  0
  -25.9881   19.3756   12.7777 C   0  0  0  0  0  0  0  0  0  0  0  0
  -26.9922   21.7116   15.5535 C   0  0  0  0  0  0  0  0  0  0  0  0
  -25.8031   22.3898   16.2370 C   0  0  0  0  0  0  0  0  0  0  0  0
  -22.3927   14.4065   14.3555 C   0  0  0  0  0  0  0  0  0  0  0  0
  -21.1885   14.7379   14.9124 C   0  0  0  0  0  0  0  0  0  0  0  0
  -20.4827   13.6281   15.4161 C   0  0  0  0  0  0  0  0  0  0  0  0
  -21.1522   12.4511   15.2780 C   0  0  0  0  0  0  0  0  0  0  0  0
  -22.6917   12.6931   14.5181 S   0  0  0  0  0  0  0  0  0  0  0  0
  -20.7010   11.0754   15.6278 C   0  0  0  0  0  0  0  0  0  0  0  0
  -20.3335   10.2841   14.3702 C   0  0  0  0  0  0  0  0  0  0  0  0
  -20.3979    8.3710    6.8365 C   0  0  0  0  0  0  0  0  0  0  0  0
  -20.2853    7.5157    5.7425 C   0  0  0  0  0  0  0  0  0  0  0  0
  -21.3777    7.0529    5.0263 C   0  0  0  0  0  0  0  0  0  0  0  0
  -22.6479    7.5145    5.4626 C   0  0  0  0  0  0  0  0  0  0  0  0
  -22.7593    8.4140    6.5858 C   0  0  0  0  0  0  0  0  0  0  0  0
  -23.8384    7.2213    4.9432 N   0  0  0  0  0  0  0  0  0  0  0  0
  -24.9785    7.9919    5.7774 S   0  0  0  0  0  0  0  0  0  0  0  0
  -24.0286    8.7341    6.8370 N   0  0  0  0  0  0  0  0  0  0  0  0
  -21.2212    6.1593    3.9155 C   0  0  0  0  0  0  0  0  0  0  0  0
  -22.1779    5.5145    3.1642 C   0  0  0  0  0  0  0  0  0  0  0  0
  -21.6471    4.6876    2.1706 C   0  0  0  0  0  0  0  0  0  0  0  0
  -20.2692    4.6905    2.1363 C   0  0  0  0  0  0  0  0  0  0  0  0
  -19.6249    5.7368    3.3624 S   0  0  0  0  0  0  0  0  0  0  0  0
   -1.3522   14.2346   14.2520 H   0  0  0  0  0  0  0  0  0  0  0  0
   -1.5670   10.6139   11.8980 H   0  0  0  0  0  0  0  0  0  0  0  0
   -4.3693   13.9779    9.9536 H   0  0  0  0  0  0  0  0  0  0  0  0
   -6.7067    9.9712    4.5618 H   0  0  0  0  0  0  0  0  0  0  0  0
   -9.3980   12.6596    1.6174 H   0  0  0  0  0  0  0  0  0  0  0  0
   -9.2848   13.2729    4.1426 H   0  0  0  0  0  0  0  0  0  0  0  0
   -7.9648   11.5117   -0.2173 H   0  0  0  0  0  0  0  0  0  0  0  0
   -6.5755   10.5899    0.3789 H   0  0  0  0  0  0  0  0  0  0  0  0
   -6.5233   13.5438   -0.4087 H   0  0  0  0  0  0  0  0  0  0  0  0
   -5.8567   12.2079   -1.3541 H   0  0  0  0  0  0  0  0  0  0  0  0
   -5.1461   12.6271    0.2086 H   0  0  0  0  0  0  0  0  0  0  0  0
   -6.7122   13.8683   10.4621 H   0  0  0  0  0  0  0  0  0  0  0  0
   -6.8297   16.0505   11.8644 H   0  0  0  0  0  0  0  0  0  0  0  0
   -6.9775   18.6319   11.5254 H   0  0  0  0  0  0  0  0  0  0  0  0
   -7.2772   19.1817    9.8684 H   0  0  0  0  0  0  0  0  0  0  0  0
   -4.5218   18.6153   11.0666 H   0  0  0  0  0  0  0  0  0  0  0  0
   -5.2073   20.2159   10.7597 H   0  0  0  0  0  0  0  0  0  0  0  0
   -4.8259   19.1423    9.4091 H   0  0  0  0  0  0  0  0  0  0  0  0
    0.1223    9.9037   13.0540 H   0  0  0  0  0  0  0  0  0  0  0  0
    1.5085    8.7275   14.6348 H   0  0  0  0  0  0  0  0  0  0  0  0
    2.2138   10.6705   18.8790 H   0  0  0  0  0  0  0  0  0  0  0  0
    3.7478    8.9007   20.0288 H   0  0  0  0  0  0  0  0  0  0  0  0
    4.2228    6.8722   18.4366 H   0  0  0  0  0  0  0  0  0  0  0  0
   -8.9363    1.3202   -1.2970 H   0  0  0  0  0  0  0  0  0  0  0  0
  -11.9041    3.7712    0.6624 H   0  0  0  0  0  0  0  0  0  0  0  0
  -14.2156    0.6518   -2.1521 H   0  0  0  0  0  0  0  0  0  0  0  0
  -20.6767    2.7157    0.1288 H   0  0  0  0  0  0  0  0  0  0  0  0
  -24.0392    0.0079   -1.9457 H   0  0  0  0  0  0  0  0  0  0  0  0
  -21.8145    0.4060   -3.2351 H   0  0  0  0  0  0  0  0  0  0  0  0
  -23.6500   -0.9087    1.6486 H   0  0  0  0  0  0  0  0  0  0  0  0
  -24.8913   -0.4386    0.4759 H   0  0  0  0  0  0  0  0  0  0  0  0
  -23.2362    1.4835    2.1922 H   0  0  0  0  0  0  0  0  0  0  0  0
  -24.9297    1.0605    2.4628 H   0  0  0  0  0  0  0  0  0  0  0  0
  -24.4680    1.9696    1.0207 H   0  0  0  0  0  0  0  0  0  0  0  0
  -16.4774   -2.3870   -3.8013 H   0  0  0  0  0  0  0  0  0  0  0  0
  -14.5390   -2.5390   -5.5300 H   0  0  0  0  0  0  0  0  0  0  0  0
  -13.4960    0.6347   -7.0718 H   0  0  0  0  0  0  0  0  0  0  0  0
  -12.9029   -1.0164   -6.8328 H   0  0  0  0  0  0  0  0  0  0  0  0
  -12.2930    1.3827   -5.0294 H   0  0  0  0  0  0  0  0  0  0  0  0
  -11.1729    0.6491   -6.1822 H   0  0  0  0  0  0  0  0  0  0  0  0
  -11.7018   -0.2562   -4.7595 H   0  0  0  0  0  0  0  0  0  0  0  0
  -10.2492    5.3199    0.6579 H   0  0  0  0  0  0  0  0  0  0  0  0
   -8.7028    6.5616    2.0402 H   0  0  0  0  0  0  0  0  0  0  0  0
   -4.9526    4.3054    3.7732 H   0  0  0  0  0  0  0  0  0  0  0  0
   -4.0117    6.0860    5.4317 H   0  0  0  0  0  0  0  0  0  0  0  0
  -19.8798    9.1834    9.5541 H   0  0  0  0  0  0  0  0  0  0  0  0
  -23.5937   10.7653    8.0104 H   0  0  0  0  0  0  0  0  0  0  0  0
  -22.2507   13.1080   11.9928 H   0  0  0  0  0  0  0  0  0  0  0  0
  -29.2023   16.8201   10.2476 H   0  0  0  0  0  0  0  0  0  0  0  0
  -27.6988   17.6949   12.1807 H   0  0  0  0  0  0  0  0  0  0  0  0
  -26.8453   21.3898   12.6861 H   0  0  0  0  0  0  0  0  0  0  0  0
  -25.8534   19.1898   11.7271 H   0  0  0  0  0  0  0  0  0  0  0  0
  -27.6671   21.3186   16.3181 H   0  0  0  0  0  0  0  0  0  0  0  0
  -27.5405   22.4431   14.9559 H   0  0  0  0  0  0  0  0  0  0  0  0
  -25.2626   21.6722   16.8500 H   0  0  0  0  0  0  0  0  0  0  0  0
  -26.1462   23.2026   16.8721 H   0  0  0  0  0  0  0  0  0  0  0  0
  -25.1193   22.7932   15.4934 H   0  0  0  0  0  0  0  0  0  0  0  0
  -20.8162   15.7470   14.9316 H   0  0  0  0  0  0  0  0  0  0  0  0
  -19.5079   13.7008   15.8648 H   0  0  0  0  0  0  0  0  0  0  0  0
  -21.4964   10.5497   16.1616 H   0  0  0  0  0  0  0  0  0  0  0  0
  -19.8332   11.1458   16.2869 H   0  0  0  0  0  0  0  0  0  0  0  0
  -21.1945   10.2034   13.7106 H   0  0  0  0  0  0  0  0  0  0  0  0
  -20.0034    9.2834   14.6368 H   0  0  0  0  0  0  0  0  0  0  0  0
  -19.5336   10.7831   13.8281 H   0  0  0  0  0  0  0  0  0  0  0  0
  -19.4922    8.6882    7.3303 H   0  0  0  0  0  0  0  0  0  0  0  0
  -19.2987    7.1958    5.4394 H   0  0  0  0  0  0  0  0  0  0  0  0
  -23.2287    5.6452    3.3467 H   0  0  0  0  0  0  0  0  0  0  0  0
  -22.2477    4.1058    1.4950 H   0  0  0  0  0  0  0  0  0  0  0  0
  1145  1  0  0  0  0
  2  1  1  0  0  0  0
  3  4  2  0  0  0  0
  3  2  1  0  0  0  0
  4  5  1  0  0  0  0
  5  1  2  0  0  0  0
  5  6  1  0  0  0  0
  6 40  1  0  0  0  0
  7  3  1  0  0  0  0
  8  7  1  0  0  0  0
  9 10  2  0  0  0  0
  9  8  1  0  0  0  0
 10 11  1  0  0  0  0
 11147  1  0  0  0  0
 11  7  2  0  0  0  0
 12  9  1  0  0  0  0
 13 14  1  0  0  0  0
 13 12  2  0  0  0  0
 14 15  1  0  0  0  0
 15 21  2  0  0  0  0
 15 10  1  0  0  0  0
 16 12  1  0  0  0  0
 17 16  1  0  0  0  0
 18 17  2  0  0  0  0
 18 13  1  0  0  0  0
 19 20  1  0  0  0  0
 19 14  2  0  0  0  0
 20 21  1  0  0  0  0
 21 29  1  0  0  0  0
 22 19  1  0  0  0  0
 23 22  1  0  0  0  0
 24 25  2  0  0  0  0
 24 23  1  0  0  0  0
 25 26  1  0  0  0  0
 26150  1  0  0  0  0
 26 22  2  0  0  0  0
 27152  1  0  0  0  0
 27 24  1  0  0  0  0
 28155  1  0  0  0  0
 28 27  1  0  0  0  0
 29 30  2  0  0  0  0
 30156  1  0  0  0  0
 30 31  1  0  0  0  0
 31157  1  0  0  0  0
 32 34  1  0  0  0  0
 32 31  2  0  0  0  0
 33 29  1  0  0  0  0
 33 32  1  0  0  0  0
 34158  1  0  0  0  0
 35 34  1  0  0  0  0
 35161  1  0  0  0  0
 35160  1  0  0  0  0
 36  6  2  0  0  0  0
 36 37  1  0  0  0  0
 37 38  2  0  0  0  0
 38 39  1  0  0  0  0
 38 44  1  0  0  0  0
 39 41  2  0  0  0  0
 40 43  2  0  0  0  0
 40 39  1  0  0  0  0
 42 41  1  0  0  0  0
 43 42  1  0  0  0  0
 44 45  2  0  0  0  0
 45165  1  0  0  0  0
 45 46  1  0  0  0  0
 46166  1  0  0  0  0
 47167  1  0  0  0  0
 47 46  2  0  0  0  0
 48 44  1  0  0  0  0
 48 47  1  0  0  0  0
 49 53  2  0  0  0  0
 50 49  1  0  0  0  0
 50 51  1  0  0  0  0
 51 52  2  0  0  0  0
 52169  1  0  0  0  0
 53 52  1  0  0  0  0
 53 54  1  0  0  0  0
 54 88  1  0  0  0  0
 54 84  2  0  0  0  0
 55 51  1  0  0  0  0
 55 56  1  0  0  0  0
 57 60  1  0  0  0  0
 57 56  1  0  0  0  0
 58 57  2  0  0  0  0
 59 58  1  0  0  0  0
 59 55  2  0  0  0  0
 60 64  1  0  0  0  0
 61 60  2  0  0  0  0
 61 66  1  0  0  0  0
 62 61  1  0  0  0  0
 63 58  1  0  0  0  0
 63 62  1  0  0  0  0
 65 64  1  0  0  0  0
 65143  1  0  0  0  0
 66 65  2  0  0  0  0
 67 70  1  0  0  0  0
 67 62  2  0  0  0  0
 68 69  1  0  0  0  0
 68 67  1  0  0  0  0
 69 63  2  0  0  0  0
 70 71  1  0  0  0  0
 72 71  1  0  0  0  0
 72 75  1  0  0  0  0
 73 72  2  0  0  0  0
 74 73  1  0  0  0  0
 74 70  2  0  0  0  0
 75174  1  0  0  0  0
 75 76  1  0  0  0  0
 76176  1  0  0  0  0
 76177  1  0  0  0  0
 77 69  1  0  0  0  0
 78179  1  0  0  0  0
 78 77  2  0  0  0  0
 79 78  1  0  0  0  0
 80 79  2  0  0  0  0
 80 81  1  0  0  0  0
 81 77  1  0  0  0  0
 82 83  1  0  0  0  0
 82 80  1  0  0  0  0
 83183  1  0  0  0  0
 83185  1  0  0  0  0
 84 85  1  0  0  0  0
 85187  1  0  0  0  0
 85 86  2  0  0  0  0
 86 92  1  0  0  0  0
 87 89  2  0  0  0  0
 87 86  1  0  0  0  0
 88 87  1  0  0  0  0
 90 89  1  0  0  0  0
 91 88  2  0  0  0  0
 91 90  1  0  0  0  0
 92 96  1  0  0  0  0
 92 93  2  0  0  0  0
 93 94  1  0  0  0  0
 94189  1  0  0  0  0
 95 94  2  0  0  0  0
 95 17  1  0  0  0  0
 96 95  1  0  0  0  0
 97190  1  0  0  0  0
 97 98  1  0  0  0  0
 99103  1  0  0  0  0
 99 98  1  0  0  0  0
100 99  2  0  0  0  0
101100  1  0  0  0  0
101 97  2  0  0  0  0
102101  1  0  0  0  0
103107  2  0  0  0  0
104103  1  0  0  0  0
104105  1  0  0  0  0
105108  1  0  0  0  0
105106  2  0  0  0  0
106111  1  0  0  0  0
107106  1  0  0  0  0
107192  1  0  0  0  0
108109  2  0  0  0  0
109110  1  0  0  0  0
110111  1  0  0  0  0
110115  2  0  0  0  0
111117  2  0  0  0  0
112113  1  0  0  0  0
112108  1  0  0  0  0
113114  2  0  0  0  0
114109  1  0  0  0  0
114194  1  0  0  0  0
115118  1  0  0  0  0
115116  1  0  0  0  0
117125  1  0  0  0  0
117116  1  0  0  0  0
118119  1  0  0  0  0
120119  1  0  0  0  0
120123  1  0  0  0  0
121120  2  0  0  0  0
122121  1  0  0  0  0
122118  2  0  0  0  0
123124  1  0  0  0  0
123197  1  0  0  0  0
124199  1  0  0  0  0
124200  1  0  0  0  0
125129  1  0  0  0  0
125126  2  0  0  0  0
126202  1  0  0  0  0
126127  1  0  0  0  0
127203  1  0  0  0  0
128127  2  0  0  0  0
128130  1  0  0  0  0
129128  1  0  0  0  0
130204  1  0  0  0  0
130205  1  0  0  0  0
131207  1  0  0  0  0
131130  1  0  0  0  0
132102  2  0  0  0  0
132209  1  0  0  0  0
133132  1  0  0  0  0
134135  1  0  0  0  0
134133  2  0  0  0  0
135136  1  0  0  0  0
136139  2  0  0  0  0
136102  1  0  0  0  0
137135  2  0  0  0  0
137138  1  0  0  0  0
138139  1  0  0  0  0
140134  1  0  0  0  0
141211  1  0  0  0  0
141140  2  0  0  0  0
142141  1  0  0  0  0
143142  2  0  0  0  0
143144  1  0  0  0  0
144140  1  0  0  0  0
146  4  1  0  0  0  0
148 18  1  0  0  0  0
149 25  1  0  0  0  0
151 27  1  0  0  0  0
153 28  1  0  0  0  0
154 28  1  0  0  0  0
159 34  1  0  0  0  0
162 35  1  0  0  0  0
163 36  1  0  0  0  0
164 37  1  0  0  0  0
168 49  1  0  0  0  0
170 59  1  0  0  0  0
171 66  1  0  0  0  0
172 73  1  0  0  0  0
173 74  1  0  0  0  0
175 75  1  0  0  0  0
178 76  1  0  0  0  0
180 79  1  0  0  0  0
181 82  1  0  0  0  0
182 82  1  0  0  0  0
184 83  1  0  0  0  0
186 84  1  0  0  0  0
188 93  1  0  0  0  0
191100  1  0  0  0  0
193113  1  0  0  0  0
195121  1  0  0  0  0
196122  1  0  0  0  0
198123  1  0  0  0  0
201124  1  0  0  0  0
206131  1  0  0  0  0
208131  1  0  0  0  0
210133  1  0  0  0  0
212142  1  0  0  0  0
M  END
