SCF done       -285.590693885960          0.000950831481
 OpenBabel12282109573D

164181  0  0  0  0  0  0  0  0999 V2000
  -10.8093    2.7101    9.4115 C   0  0  0  0  0  0  0  0  0  0  0  0
   -9.8367    3.7445    9.3670 C   0  0  0  0  0  0  0  0  0  0  0  0
  -11.1605    1.7353    8.0084 S   0  0  0  0  0  0  0  0  0  0  0  0
  -12.3248    0.8398    8.8930 C   0  0  0  0  0  0  0  0  0  0  0  0
  -12.4459    1.2527   10.1887 C   0  0  0  0  0  0  0  0  0  0  0  0
  -11.5772    2.3228   10.4832 C   0  0  0  0  0  0  0  0  0  0  0  0
  -13.3534    0.6255   11.1989 C   0  0  0  0  0  0  0  0  0  0  0  0
  -12.5553   -0.2238   12.1889 C   0  0  0  0  0  0  0  0  0  0  0  0
   -8.9452    4.0722    7.8889 S   0  0  0  0  0  0  0  0  0  0  0  0
   -8.0204    5.3742    8.6202 C   0  0  0  0  0  0  0  0  0  0  0  0
   -8.4108    5.5150    9.9293 C   0  0  0  0  0  0  0  0  0  0  0  0
   -9.4201    4.6100   10.3512 C   0  0  0  0  0  0  0  0  0  0  0  0
   -8.0514    6.3744   11.0520 C   0  0  0  0  0  0  0  0  0  0  0  0
   -8.8612    5.9438   12.0991 N   0  0  0  0  0  0  0  0  0  0  0  0
   -9.7064    4.8922   11.7632 C   0  0  0  0  0  0  0  0  0  0  0  0
   -8.8267    6.5341   13.4134 C   0  0  0  0  0  0  0  0  0  0  0  0
   -7.2457    7.2738   11.1268 O   0  0  0  0  0  0  0  0  0  0  0  0
  -10.4818    4.3770   12.5354 O   0  0  0  0  0  0  0  0  0  0  0  0
   -7.0421    6.0838    7.8855 C   0  0  0  0  0  0  0  0  0  0  0  0
   -6.6853    5.8797    6.5680 C   0  0  0  0  0  0  0  0  0  0  0  0
   -5.6676    6.7226    6.1141 C   0  0  0  0  0  0  0  0  0  0  0  0
   -5.2354    7.5851    7.1135 C   0  0  0  0  0  0  0  0  0  0  0  0
   -6.1060    7.3595    8.6021 S   0  0  0  0  0  0  0  0  0  0  0  0
   -5.1458    6.7327    4.7085 C   0  0  0  0  0  0  0  0  0  0  0  0
   -6.1640    6.2385    3.6851 C   0  0  0  0  0  0  0  0  0  0  0  0
   -4.2063    8.5733    7.0591 C   0  0  0  0  0  0  0  0  0  0  0  0
   -4.2841    9.9633    8.1078 S   0  0  0  0  0  0  0  0  0  0  0  0
   -2.7781   10.5728    7.4855 C   0  0  0  0  0  0  0  0  0  0  0  0
   -2.2632    9.7244    6.5306 C   0  0  0  0  0  0  0  0  0  0  0  0
   -3.0647    8.6071    6.2887 C   0  0  0  0  0  0  0  0  0  0  0  0
   -2.2284   11.7961    7.9536 C   0  0  0  0  0  0  0  0  0  0  0  0
   -2.7827   12.7088    8.8242 C   0  0  0  0  0  0  0  0  0  0  0  0
   -1.9705   13.8167    9.0545 C   0  0  0  0  0  0  0  0  0  0  0  0
   -0.7676   13.7787    8.3766 C   0  0  0  0  0  0  0  0  0  0  0  0
   -0.6577   12.3235    7.4229 S   0  0  0  0  0  0  0  0  0  0  0  0
    1.5382   16.8408    8.8995 C   0  0  0  0  0  0  0  0  0  0  0  0
    1.9769   18.1156    9.3293 C   0  0  0  0  0  0  0  0  0  0  0  0
   -0.0560   16.2495    9.2696 S   0  0  0  0  0  0  0  0  0  0  0  0
    0.2570   14.7617    8.4164 C   0  0  0  0  0  0  0  0  0  0  0  0
    1.5383   14.7472    7.8757 C   0  0  0  0  0  0  0  0  0  0  0  0
    2.2475   15.9178    8.1601 C   0  0  0  0  0  0  0  0  0  0  0  0
    2.0863   13.5991    7.0871 C   0  0  0  0  0  0  0  0  0  0  0  0
    3.5346   13.7837    6.6521 C   0  0  0  0  0  0  0  0  0  0  0  0
    0.8861   19.2058   10.1747 S   0  0  0  0  0  0  0  0  0  0  0  0
    2.1037   20.4639   10.3229 C   0  0  0  0  0  0  0  0  0  0  0  0
    3.2704   20.0235    9.7459 C   0  0  0  0  0  0  0  0  0  0  0  0
    3.2064   18.7213    9.1871 C   0  0  0  0  0  0  0  0  0  0  0  0
    4.6150   20.5541    9.5469 C   0  0  0  0  0  0  0  0  0  0  0  0
    5.2973   19.5434    8.8772 N   0  0  0  0  0  0  0  0  0  0  0  0
    4.5241   18.4166    8.6194 C   0  0  0  0  0  0  0  0  0  0  0  0
    6.6791   19.6547    8.4833 C   0  0  0  0  0  0  0  0  0  0  0  0
    5.0956   21.6181    9.8649 O   0  0  0  0  0  0  0  0  0  0  0  0
    4.9335   17.4373    8.0379 O   0  0  0  0  0  0  0  0  0  0  0  0
    1.8153   21.7032   10.9384 C   0  0  0  0  0  0  0  0  0  0  0  0
    0.6048   22.1140   11.4609 C   0  0  0  0  0  0  0  0  0  0  0  0
    0.6178   23.4076   11.9874 C   0  0  0  0  0  0  0  0  0  0  0  0
    1.8705   23.9978   11.8623 C   0  0  0  0  0  0  0  0  0  0  0  0
    3.0221   22.9416   11.0980 S   0  0  0  0  0  0  0  0  0  0  0  0
   -0.5589   24.0662   12.6430 C   0  0  0  0  0  0  0  0  0  0  0  0
   -1.6309   23.0839   13.1036 C   0  0  0  0  0  0  0  0  0  0  0  0
    2.3076   25.2954   12.2625 C   0  0  0  0  0  0  0  0  0  0  0  0
    4.0094   25.5692   12.5241 S   0  0  0  0  0  0  0  0  0  0  0  0
    3.7300   27.2439   12.9019 C   0  0  0  0  0  0  0  0  0  0  0  0
    2.3890   27.5470   12.8189 C   0  0  0  0  0  0  0  0  0  0  0  0
    1.5924   26.4565   12.4643 C   0  0  0  0  0  0  0  0  0  0  0  0
    4.8099   28.1026   13.2373 C   0  0  0  0  0  0  0  0  0  0  0  0
    6.1412   27.7759   13.3804 C   0  0  0  0  0  0  0  0  0  0  0  0
    6.9432   28.8618   13.7197 C   0  0  0  0  0  0  0  0  0  0  0  0
    6.2517   30.0520   13.8385 C   0  0  0  0  0  0  0  0  0  0  0  0
    4.5554   29.7994   13.5248 S   0  0  0  0  0  0  0  0  0  0  0  0
    8.4093   33.1084   14.8157 C   0  0  0  0  0  0  0  0  0  0  0  0
    9.5438   33.8608   15.2021 C   0  0  0  0  0  0  0  0  0  0  0  0
    8.5013   31.3880   14.5761 S   0  0  0  0  0  0  0  0  0  0  0  0
    6.8073   31.3161   14.1700 C   0  0  0  0  0  0  0  0  0  0  0  0
    6.2188   32.5748   14.2263 C   0  0  0  0  0  0  0  0  0  0  0  0
    7.1310   33.5718   14.5858 C   0  0  0  0  0  0  0  0  0  0  0  0
    4.7721   32.8192   13.9296 C   0  0  0  0  0  0  0  0  0  0  0  0
    4.3689   34.2870   13.9882 C   0  0  0  0  0  0  0  0  0  0  0  0
   11.0790   33.0661   15.5234 S   0  0  0  0  0  0  0  0  0  0  0  0
   11.8881   34.5753   15.9171 C   0  0  0  0  0  0  0  0  0  0  0  0
   10.9899   35.6074   15.7912 C   0  0  0  0  0  0  0  0  0  0  0  0
    9.6839   35.2174   15.3970 C   0  0  0  0  0  0  0  0  0  0  0  0
   11.0157   37.0564   15.9601 C   0  0  0  0  0  0  0  0  0  0  0  0
    9.7210   37.4693   15.6588 N   0  0  0  0  0  0  0  0  0  0  0  0
    8.8634   36.4300   15.3154 C   0  0  0  0  0  0  0  0  0  0  0  0
    9.3041   38.8480   15.7002 C   0  0  0  0  0  0  0  0  0  0  0  0
   11.9178   37.7945   16.2847 O   0  0  0  0  0  0  0  0  0  0  0  0
    7.6981   36.5844   15.0270 O   0  0  0  0  0  0  0  0  0  0  0  0
   13.2496   34.5998   16.2959 C   0  0  0  0  0  0  0  0  0  0  0  0
   14.0946   33.5152   16.4224 C   0  0  0  0  0  0  0  0  0  0  0  0
   15.3933   33.8435   16.8173 C   0  0  0  0  0  0  0  0  0  0  0  0
   15.5416   35.2142   17.0000 C   0  0  0  0  0  0  0  0  0  0  0  0
   14.0706   36.0832   16.6726 S   0  0  0  0  0  0  0  0  0  0  0  0
   16.5013   32.8466   16.9812 C   0  0  0  0  0  0  0  0  0  0  0  0
   16.2367   31.5168   16.2827 C   0  0  0  0  0  0  0  0  0  0  0  0
   16.6978   35.9540   17.3908 C   0  0  0  0  0  0  0  0  0  0  0  0
   16.7888   37.6545   17.0099 S   0  0  0  0  0  0  0  0  0  0  0  0
   18.3472   37.7900   17.7672 C   0  0  0  0  0  0  0  0  0  0  0  0
   18.7477   36.5796   18.2820 C   0  0  0  0  0  0  0  0  0  0  0  0
   17.8254   35.5507   18.0715 C   0  0  0  0  0  0  0  0  0  0  0  0
   19.0443   39.0327   17.7976 C   0  0  0  0  0  0  0  0  0  0  0  0
   18.6484   40.2440   17.2897 C   0  0  0  0  0  0  0  0  0  0  0  0
   19.5944   41.2643   17.4949 C   0  0  0  0  0  0  0  0  0  0  0  0
   20.7011   40.8307   18.1539 C   0  0  0  0  0  0  0  0  0  0  0  0
   20.6148   39.1590   18.5423 S   0  0  0  0  0  0  0  0  0  0  0  0
  -12.8603    0.0511    8.4015 H   0  0  0  0  0  0  0  0  0  0  0  0
  -11.5136    2.7998   11.4446 H   0  0  0  0  0  0  0  0  0  0  0  0
  -14.0927    0.0031   10.6915 H   0  0  0  0  0  0  0  0  0  0  0  0
  -13.8795    1.4124   11.7432 H   0  0  0  0  0  0  0  0  0  0  0  0
  -12.0280   -1.0194   11.6667 H   0  0  0  0  0  0  0  0  0  0  0  0
  -13.2196   -0.6718   12.9237 H   0  0  0  0  0  0  0  0  0  0  0  0
  -11.8245    0.3901   12.7094 H   0  0  0  0  0  0  0  0  0  0  0  0
   -9.8072    6.9380   13.6689 H   0  0  0  0  0  0  0  0  0  0  0  0
   -8.0861    7.3317   13.3966 H   0  0  0  0  0  0  0  0  0  0  0  0
   -8.5515    5.7828   14.1549 H   0  0  0  0  0  0  0  0  0  0  0  0
   -7.1683    5.1312    5.9658 H   0  0  0  0  0  0  0  0  0  0  0  0
   -4.2508    6.1050    4.6517 H   0  0  0  0  0  0  0  0  0  0  0  0
   -4.8491    7.7537    4.4568 H   0  0  0  0  0  0  0  0  0  0  0  0
   -6.3653    5.1781    3.8108 H   0  0  0  0  0  0  0  0  0  0  0  0
   -5.7787    6.3918    2.6799 H   0  0  0  0  0  0  0  0  0  0  0  0
   -7.0986    6.7857    3.7830 H   0  0  0  0  0  0  0  0  0  0  0  0
   -1.3312    9.9172    6.0289 H   0  0  0  0  0  0  0  0  0  0  0  0
   -2.7939    7.8274    5.6019 H   0  0  0  0  0  0  0  0  0  0  0  0
   -3.7508   12.5652    9.2702 H   0  0  0  0  0  0  0  0  0  0  0  0
   -2.2379   14.6333    9.7018 H   0  0  0  0  0  0  0  0  0  0  0  0
    3.2565   16.1082    7.8452 H   0  0  0  0  0  0  0  0  0  0  0  0
    1.4592   13.4509    6.2015 H   0  0  0  0  0  0  0  0  0  0  0  0
    2.0025   12.6882    7.6888 H   0  0  0  0  0  0  0  0  0  0  0  0
    3.6375   14.6492    6.0030 H   0  0  0  0  0  0  0  0  0  0  0  0
    3.8654   12.9040    6.1052 H   0  0  0  0  0  0  0  0  0  0  0  0
    4.1839   13.9168    7.5133 H   0  0  0  0  0  0  0  0  0  0  0  0
    7.2790   18.9012    8.9963 H   0  0  0  0  0  0  0  0  0  0  0  0
    7.0203   20.6516    8.7569 H   0  0  0  0  0  0  0  0  0  0  0  0
    6.7735   19.5065    7.4069 H   0  0  0  0  0  0  0  0  0  0  0  0
   -0.2560   21.4699   11.4505 H   0  0  0  0  0  0  0  0  0  0  0  0
   -1.0073   24.7757   11.9399 H   0  0  0  0  0  0  0  0  0  0  0  0
   -0.1999   24.6379   13.5029 H   0  0  0  0  0  0  0  0  0  0  0  0
   -2.1083   22.5995   12.2558 H   0  0  0  0  0  0  0  0  0  0  0  0
   -2.3972   23.6134   13.6650 H   0  0  0  0  0  0  0  0  0  0  0  0
   -1.1995   22.3205   13.7466 H   0  0  0  0  0  0  0  0  0  0  0  0
    2.0072   28.5348   13.0089 H   0  0  0  0  0  0  0  0  0  0  0  0
    0.5310   26.5300   12.3226 H   0  0  0  0  0  0  0  0  0  0  0  0
    6.5062   26.7739   13.2408 H   0  0  0  0  0  0  0  0  0  0  0  0
    8.0059   28.7987   13.8743 H   0  0  0  0  0  0  0  0  0  0  0  0
    6.8871   34.6135   14.6809 H   0  0  0  0  0  0  0  0  0  0  0  0
    4.1671   32.2484   14.6421 H   0  0  0  0  0  0  0  0  0  0  0  0
    4.5458   32.4215   12.9349 H   0  0  0  0  0  0  0  0  0  0  0  0
    4.5332   34.6955   14.9818 H   0  0  0  0  0  0  0  0  0  0  0  0
    3.3129   34.3851   13.7478 H   0  0  0  0  0  0  0  0  0  0  0  0
    4.9398   34.8738   13.2734 H   0  0  0  0  0  0  0  0  0  0  0  0
    8.9839   39.1740   14.7094 H   0  0  0  0  0  0  0  0  0  0  0  0
   10.1557   39.4401   16.0306 H   0  0  0  0  0  0  0  0  0  0  0  0
    8.4717   38.9659   16.3951 H   0  0  0  0  0  0  0  0  0  0  0  0
   13.7544   32.5151   16.2225 H   0  0  0  0  0  0  0  0  0  0  0  0
   16.6578   32.6601   18.0485 H   0  0  0  0  0  0  0  0  0  0  0  0
   17.4212   33.2845   16.5847 H   0  0  0  0  0  0  0  0  0  0  0  0
   15.4065   30.9894   16.7454 H   0  0  0  0  0  0  0  0  0  0  0  0
   17.1188   30.8844   16.3527 H   0  0  0  0  0  0  0  0  0  0  0  0
   16.0100   31.6750   15.2312 H   0  0  0  0  0  0  0  0  0  0  0  0
   19.6828   36.4513   18.7984 H   0  0  0  0  0  0  0  0  0  0  0  0
   17.9705   34.5545   18.4431 H   0  0  0  0  0  0  0  0  0  0  0  0
   17.7067   40.3830   16.7892 H   0  0  0  0  0  0  0  0  0  0  0  0
   19.4584   42.2790   17.1660 H   0  0  0  0  0  0  0  0  0  0  0  0
   21.5701   41.3890   18.4398 H   0  0  0  0  0  0  0  0  0  0  0  0
  1  6  2  0  0  0  0
  2  1  1  0  0  0  0
  2 12  2  0  0  0  0
  3  4  1  0  0  0  0
  3  1  1  0  0  0  0
  4  5  2  0  0  0  0
  5  6  1  0  0  0  0
  5  7  1  0  0  0  0
  6107  1  0  0  0  0
  7109  1  0  0  0  0
  7  8  1  0  0  0  0
  8112  1  0  0  0  0
  8111  1  0  0  0  0
  9 10  1  0  0  0  0
  9  2  1  0  0  0  0
 10 11  2  0  0  0  0
 11 12  1  0  0  0  0
 11 13  1  0  0  0  0
 12 15  1  0  0  0  0
 13 17  2  0  0  0  0
 13 14  1  0  0  0  0
 14 16  1  0  0  0  0
 15 14  1  0  0  0  0
 15 18  2  0  0  0  0
 16113  1  0  0  0  0
 16115  1  0  0  0  0
 19 23  1  0  0  0  0
 19 10  1  0  0  0  0
 20 19  2  0  0  0  0
 21 20  1  0  0  0  0
 21 22  2  0  0  0  0
 22 23  1  0  0  0  0
 24 21  1  0  0  0  0
 25121  1  0  0  0  0
 25119  1  0  0  0  0
 25 24  1  0  0  0  0
 26 22  1  0  0  0  0
 26 27  1  0  0  0  0
 28 31  1  0  0  0  0
 28 27  1  0  0  0  0
 29 28  2  0  0  0  0
 30 29  1  0  0  0  0
 30 26  2  0  0  0  0
 31 32  2  0  0  0  0
 32 33  1  0  0  0  0
 32124  1  0  0  0  0
 33125  1  0  0  0  0
 34 39  1  0  0  0  0
 34 33  2  0  0  0  0
 35 31  1  0  0  0  0
 35 34  1  0  0  0  0
 36 38  1  0  0  0  0
 36 37  1  0  0  0  0
 37 44  1  0  0  0  0
 39 38  1  0  0  0  0
 40 41  1  0  0  0  0
 40 39  2  0  0  0  0
 41 36  2  0  0  0  0
 42128  1  0  0  0  0
 42 40  1  0  0  0  0
 43 42  1  0  0  0  0
 43131  1  0  0  0  0
 44 45  1  0  0  0  0
 45 54  1  0  0  0  0
 46 45  2  0  0  0  0
 47 37  2  0  0  0  0
 47 46  1  0  0  0  0
 48 46  1  0  0  0  0
 48 52  2  0  0  0  0
 49 48  1  0  0  0  0
 50 49  1  0  0  0  0
 50 47  1  0  0  0  0
 51133  1  0  0  0  0
 51 49  1  0  0  0  0
 51132  1  0  0  0  0
 53 50  2  0  0  0  0
 54 58  1  0  0  0  0
 54 55  2  0  0  0  0
 55 56  1  0  0  0  0
 56 59  1  0  0  0  0
 57 56  2  0  0  0  0
 57 61  1  0  0  0  0
 58 57  1  0  0  0  0
 59 60  1  0  0  0  0
 59137  1  0  0  0  0
 60139  1  0  0  0  0
 60140  1  0  0  0  0
 61 65  2  0  0  0  0
 61 62  1  0  0  0  0
 62 63  1  0  0  0  0
 63 66  1  0  0  0  0
 64 63  2  0  0  0  0
 64141  1  0  0  0  0
 65 64  1  0  0  0  0
 66 67  2  0  0  0  0
 66 70  1  0  0  0  0
 67 68  1  0  0  0  0
 68 69  2  0  0  0  0
 68144  1  0  0  0  0
 69 74  1  0  0  0  0
 70 69  1  0  0  0  0
 71 72  1  0  0  0  0
 72 82  2  0  0  0  0
 72 79  1  0  0  0  0
 73 71  1  0  0  0  0
 74 75  2  0  0  0  0
 74 73  1  0  0  0  0
 75 76  1  0  0  0  0
 76145  1  0  0  0  0
 76 71  2  0  0  0  0
 77 78  1  0  0  0  0
 77 75  1  0  0  0  0
 77146  1  0  0  0  0
 78148  1  0  0  0  0
 79 80  1  0  0  0  0
 80 89  1  0  0  0  0
 81 80  2  0  0  0  0
 81 83  1  0  0  0  0
 82 81  1  0  0  0  0
 83 87  2  0  0  0  0
 84 86  1  0  0  0  0
 84 83  1  0  0  0  0
 85 82  1  0  0  0  0
 85 84  1  0  0  0  0
 86152  1  0  0  0  0
 86153  1  0  0  0  0
 88 85  2  0  0  0  0
 89 90  2  0  0  0  0
 89 93  1  0  0  0  0
 90 91  1  0  0  0  0
 91 94  1  0  0  0  0
 91 92  2  0  0  0  0
 92 96  1  0  0  0  0
 93 92  1  0  0  0  0
 94155  1  0  0  0  0
 95158  1  0  0  0  0
 95157  1  0  0  0  0
 95 94  1  0  0  0  0
 96100  2  0  0  0  0
 97 96  1  0  0  0  0
 97 98  1  0  0  0  0
 98101  1  0  0  0  0
 98 99  2  0  0  0  0
 99160  1  0  0  0  0
100 99  1  0  0  0  0
100161  1  0  0  0  0
101105  1  0  0  0  0
102103  1  0  0  0  0
102101  2  0  0  0  0
103104  2  0  0  0  0
104164  1  0  0  0  0
104105  1  0  0  0  0
106  4  1  0  0  0  0
108  7  1  0  0  0  0
110  8  1  0  0  0  0
114 16  1  0  0  0  0
116 20  1  0  0  0  0
117 24  1  0  0  0  0
118 24  1  0  0  0  0
120 25  1  0  0  0  0
122 29  1  0  0  0  0
123 30  1  0  0  0  0
126 41  1  0  0  0  0
127 42  1  0  0  0  0
129 43  1  0  0  0  0
130 43  1  0  0  0  0
134 51  1  0  0  0  0
135 55  1  0  0  0  0
136 59  1  0  0  0  0
138 60  1  0  0  0  0
142 65  1  0  0  0  0
143 67  1  0  0  0  0
147 77  1  0  0  0  0
149 78  1  0  0  0  0
150 78  1  0  0  0  0
151 86  1  0  0  0  0
154 90  1  0  0  0  0
156 94  1  0  0  0  0
159 95  1  0  0  0  0
162102  1  0  0  0  0
163103  1  0  0  0  0
M  END
