SCF done       -440.496798815732          0.000885780165
 OpenBabel12282109573D

251274  0  0  0  0  0  0  0  0999 V2000
    4.1352   15.5741    3.9067 C   0  0  0  0  0  0  0  0  0  0  0  0
    4.6970   16.6453    4.6259 C   0  0  0  0  0  0  0  0  0  0  0  0
    6.0088   16.5487    5.1422 C   0  0  0  0  0  0  0  0  0  0  0  0
    6.8147   15.4210    4.9865 C   0  0  0  0  0  0  0  0  0  0  0  0
    6.2323   14.3312    4.3077 C   0  0  0  0  0  0  0  0  0  0  0  0
    4.9161   14.4292    3.7945 C   0  0  0  0  0  0  0  0  0  0  0  0
    4.0976   17.9010    4.9401 C   0  0  0  0  0  0  0  0  0  0  0  0
    4.9210   18.7219    5.6216 C   0  0  0  0  0  0  0  0  0  0  0  0
    6.4713   18.0276    5.9444 S   0  0  0  0  0  0  0  0  0  0  0  0
    6.7992   13.0599    4.0434 C   0  0  0  0  0  0  0  0  0  0  0  0
    5.9839   12.2285    3.3360 C   0  0  0  0  0  0  0  0  0  0  0  0
    4.4408   12.9679    2.9699 S   0  0  0  0  0  0  0  0  0  0  0  0
    2.8282   15.6837    3.2919 C   0  0  0  0  0  0  0  0  0  0  0  0
    8.1722   15.3926    5.4825 C   0  0  0  0  0  0  0  0  0  0  0  0
    2.3147   16.7381    2.5911 C   0  0  0  0  0  0  0  0  0  0  0  0
    1.0115   16.5217    2.1047 C   0  0  0  0  0  0  0  0  0  0  0  0
    0.5254   15.2918    2.4432 C   0  0  0  0  0  0  0  0  0  0  0  0
    1.6748   14.3746    3.3641 S   0  0  0  0  0  0  0  0  0  0  0  0
    8.6768   15.9571    6.6237 C   0  0  0  0  0  0  0  0  0  0  0  0
   10.0558   15.7606    6.7973 C   0  0  0  0  0  0  0  0  0  0  0  0
   10.6243   15.0530    5.7747 C   0  0  0  0  0  0  0  0  0  0  0  0
    9.4499   14.6211    4.5740 S   0  0  0  0  0  0  0  0  0  0  0  0
   -1.0162   14.5486    2.0954 S   0  0  0  0  0  0  0  0  0  0  0  0
   -1.8341   15.8560    1.1033 C   0  0  0  0  0  0  0  0  0  0  0  0
   12.3082   14.6194    5.6472 S   0  0  0  0  0  0  0  0  0  0  0  0
   12.2675   13.4866    4.2059 C   0  0  0  0  0  0  0  0  0  0  0  0
    6.2821   10.9111    2.8831 C   0  0  0  0  0  0  0  0  0  0  0  0
    7.8795   10.2450    3.0706 S   0  0  0  0  0  0  0  0  0  0  0  0
    7.4269    8.7652    2.2743 C   0  0  0  0  0  0  0  0  0  0  0  0
    6.0866    8.8027    1.9026 C   0  0  0  0  0  0  0  0  0  0  0  0
    5.4620   10.0220    2.2452 C   0  0  0  0  0  0  0  0  0  0  0  0
    8.4531    7.8017    2.0481 C   0  0  0  0  0  0  0  0  0  0  0  0
    8.5171    6.7655    1.1421 C   0  0  0  0  0  0  0  0  0  0  0  0
    9.7442    6.1036    1.1355 C   0  0  0  0  0  0  0  0  0  0  0  0
   10.6515    6.6128    2.0366 C   0  0  0  0  0  0  0  0  0  0  0  0
    9.9544    7.9361    2.9248 S   0  0  0  0  0  0  0  0  0  0  0  0
   11.9805    6.1770    2.3231 C   0  0  0  0  0  0  0  0  0  0  0  0
   12.5822    6.3099    3.9488 S   0  0  0  0  0  0  0  0  0  0  0  0
   14.1187    5.2650    2.1761 C   0  0  0  0  0  0  0  0  0  0  0  0
   12.9303    5.5978    1.4927 C   0  0  0  0  0  0  0  0  0  0  0  0
    5.3048    7.7070    1.3044 C   0  0  0  0  0  0  0  0  0  0  0  0
    4.1297    8.1627    0.8442 O   0  0  0  0  0  0  0  0  0  0  0  0
    5.6354    6.5470    1.2381 O   0  0  0  0  0  0  0  0  0  0  0  0
   12.8062    5.4316    0.0341 C   0  0  0  0  0  0  0  0  0  0  0  0
   13.7971    4.6597   -0.4404 O   0  0  0  0  0  0  0  0  0  0  0  0
   11.9634    5.9355   -0.6679 O   0  0  0  0  0  0  0  0  0  0  0  0
   13.8077    4.4211   -1.8463 C   0  0  0  0  0  0  0  0  0  0  0  0
    3.2337    7.1987    0.2957 C   0  0  0  0  0  0  0  0  0  0  0  0
   14.1008    5.5778    3.5080 C   0  0  0  0  0  0  0  0  0  0  0  0
   -3.2089   15.3742    0.6831 C   0  0  0  0  0  0  0  0  0  0  0  0
   13.6442   12.8967    3.9772 C   0  0  0  0  0  0  0  0  0  0  0  0
    2.4233    6.5111    1.3855 C   0  0  0  0  0  0  0  0  0  0  0  0
   12.8638    3.2894   -2.2279 C   0  0  0  0  0  0  0  0  0  0  0  0
   16.5037    5.0606    7.8778 C   0  0  0  0  0  0  0  0  0  0  0  0
   16.2609    5.1079    6.4897 C   0  0  0  0  0  0  0  0  0  0  0  0
   17.2780    4.7356    5.5784 C   0  0  0  0  0  0  0  0  0  0  0  0
   18.5556    4.3453    5.9676 C   0  0  0  0  0  0  0  0  0  0  0  0
   18.8108    4.3446    7.3540 C   0  0  0  0  0  0  0  0  0  0  0  0
   17.7866    4.6913    8.2688 C   0  0  0  0  0  0  0  0  0  0  0  0
   15.0655    5.4799    5.8241 C   0  0  0  0  0  0  0  0  0  0  0  0
   15.1269    5.3435    4.4695 C   0  0  0  0  0  0  0  0  0  0  0  0
   16.6980    4.7815    3.9345 S   0  0  0  0  0  0  0  0  0  0  0  0
   20.0159    4.0138    8.0181 C   0  0  0  0  0  0  0  0  0  0  0  0
   19.9205    4.0474    9.3781 C   0  0  0  0  0  0  0  0  0  0  0  0
   18.3284    4.5304    9.9188 S   0  0  0  0  0  0  0  0  0  0  0  0
   15.4554    5.3495    8.8325 C   0  0  0  0  0  0  0  0  0  0  0  0
   19.5415    3.9362    4.9905 C   0  0  0  0  0  0  0  0  0  0  0  0
   14.1443    4.9645    8.7913 C   0  0  0  0  0  0  0  0  0  0  0  0
   13.3840    5.4061    9.8893 C   0  0  0  0  0  0  0  0  0  0  0  0
   14.1204    6.1422   10.7734 C   0  0  0  0  0  0  0  0  0  0  0  0
   15.7728    6.2928   10.2680 S   0  0  0  0  0  0  0  0  0  0  0  0
   19.7640    4.4620    3.7481 C   0  0  0  0  0  0  0  0  0  0  0  0
   20.7669    3.8012    3.0158 C   0  0  0  0  0  0  0  0  0  0  0  0
   21.3062    2.7479    3.6971 C   0  0  0  0  0  0  0  0  0  0  0  0
   20.5897    2.5637    5.2651 S   0  0  0  0  0  0  0  0  0  0  0  0
   13.6543    6.9118   12.2685 S   0  0  0  0  0  0  0  0  0  0  0  0
   11.8527    6.5718   12.3062 C   0  0  0  0  0  0  0  0  0  0  0  0
   22.5610    1.6232    3.2406 S   0  0  0  0  0  0  0  0  0  0  0  0
   22.9127    2.1504    1.5204 C   0  0  0  0  0  0  0  0  0  0  0  0
   20.9393    3.7135   10.3167 C   0  0  0  0  0  0  0  0  0  0  0  0
   22.5695    3.4160    9.7805 S   0  0  0  0  0  0  0  0  0  0  0  0
   23.0996    3.0532   11.3998 C   0  0  0  0  0  0  0  0  0  0  0  0
   22.0454    3.1696   12.2909 C   0  0  0  0  0  0  0  0  0  0  0  0
   20.8345    3.5376   11.6706 C   0  0  0  0  0  0  0  0  0  0  0  0
   24.4442    2.6111   11.5752 C   0  0  0  0  0  0  0  0  0  0  0  0
   25.4959    2.8687   10.7203 C   0  0  0  0  0  0  0  0  0  0  0  0
   26.6697    2.2183   11.0849 C   0  0  0  0  0  0  0  0  0  0  0  0
   26.5362    1.4190   12.2060 C   0  0  0  0  0  0  0  0  0  0  0  0
   24.9264    1.5308   12.8462 S   0  0  0  0  0  0  0  0  0  0  0  0
   27.5635    0.5844   12.7316 C   0  0  0  0  0  0  0  0  0  0  0  0
   29.1739    0.8202   12.0949 S   0  0  0  0  0  0  0  0  0  0  0  0
   28.7954   -1.1534   13.6848 C   0  0  0  0  0  0  0  0  0  0  0  0
   27.5450   -0.5066   13.5880 C   0  0  0  0  0  0  0  0  0  0  0  0
   22.1051    2.9992   13.7554 C   0  0  0  0  0  0  0  0  0  0  0  0
   23.3100    3.3156   14.2463 O   0  0  0  0  0  0  0  0  0  0  0  0
   21.1708    2.6429   14.4293 O   0  0  0  0  0  0  0  0  0  0  0  0
   26.4190   -1.0605   14.3634 C   0  0  0  0  0  0  0  0  0  0  0  0
   25.5666   -0.1198   14.7935 O   0  0  0  0  0  0  0  0  0  0  0  0
   26.3235   -2.2309   14.6385 O   0  0  0  0  0  0  0  0  0  0  0  0
   24.4758   -0.5600   15.6063 C   0  0  0  0  0  0  0  0  0  0  0  0
   23.4911    3.2098   15.6569 C   0  0  0  0  0  0  0  0  0  0  0  0
   29.7904   -0.5603   12.9573 C   0  0  0  0  0  0  0  0  0  0  0  0
   11.2486    7.2269   13.5329 C   0  0  0  0  0  0  0  0  0  0  0  0
   23.9565    1.2277    0.9219 C   0  0  0  0  0  0  0  0  0  0  0  0
   23.1771    4.5284   16.3484 C   0  0  0  0  0  0  0  0  0  0  0  0
   23.2467   -0.8950   14.7749 C   0  0  0  0  0  0  0  0  0  0  0  0
   34.6613   -0.4441   11.8112 C   0  0  0  0  0  0  0  0  0  0  0  0
   33.4196   -0.9090   12.2909 C   0  0  0  0  0  0  0  0  0  0  0  0
   33.3192   -2.1879   12.8891 C   0  0  0  0  0  0  0  0  0  0  0  0
   34.3933   -3.0661   13.0054 C   0  0  0  0  0  0  0  0  0  0  0  0
   35.6172   -2.6296   12.4570 C   0  0  0  0  0  0  0  0  0  0  0  0
   35.7227   -1.3392   11.8823 C   0  0  0  0  0  0  0  0  0  0  0  0
   32.1696   -0.2445   12.2512 C   0  0  0  0  0  0  0  0  0  0  0  0
   31.1578   -0.9427   12.8411 C   0  0  0  0  0  0  0  0  0  0  0  0
   31.7005   -2.4843   13.4702 S   0  0  0  0  0  0  0  0  0  0  0  0
   36.8398   -3.3396   12.3760 C   0  0  0  0  0  0  0  0  0  0  0  0
   37.8512   -2.6278   11.8022 C   0  0  0  0  0  0  0  0  0  0  0  0
   37.3420   -1.0243   11.3198 S   0  0  0  0  0  0  0  0  0  0  0  0
   34.8080    0.9052   11.3112 C   0  0  0  0  0  0  0  0  0  0  0  0
   34.2481   -4.3474   13.6613 C   0  0  0  0  0  0  0  0  0  0  0  0
   34.2599    2.0501   11.8198 C   0  0  0  0  0  0  0  0  0  0  0  0
   34.6106    3.2152   11.1143 C   0  0  0  0  0  0  0  0  0  0  0  0
   35.4301    2.9564   10.0529 C   0  0  0  0  0  0  0  0  0  0  0  0
   35.7900    1.2650    9.9128 S   0  0  0  0  0  0  0  0  0  0  0  0
   33.1790   -5.1992   13.6221 C   0  0  0  0  0  0  0  0  0  0  0  0
   33.3348   -6.3529   14.4110 C   0  0  0  0  0  0  0  0  0  0  0  0
   34.5292   -6.3794   15.0726 C   0  0  0  0  0  0  0  0  0  0  0  0
   35.4887   -4.9791   14.7200 S   0  0  0  0  0  0  0  0  0  0  0  0
   36.1337    4.0397    8.8787 S   0  0  0  0  0  0  0  0  0  0  0  0
   35.4649    5.6554    9.4314 C   0  0  0  0  0  0  0  0  0  0  0  0
   35.1973   -7.5696   16.1604 S   0  0  0  0  0  0  0  0  0  0  0  0
   33.8997   -8.8641   16.1232 C   0  0  0  0  0  0  0  0  0  0  0  0
   39.1894   -3.0546   11.5661 C   0  0  0  0  0  0  0  0  0  0  0  0
   39.7036   -4.6667   11.9669 S   0  0  0  0  0  0  0  0  0  0  0  0
   41.3167   -4.3716   11.3802 C   0  0  0  0  0  0  0  0  0  0  0  0
   41.4314   -3.0657   10.9096 C   0  0  0  0  0  0  0  0  0  0  0  0
   40.2237   -2.3421   11.0247 C   0  0  0  0  0  0  0  0  0  0  0  0
   42.2494   -5.4439   11.4970 C   0  0  0  0  0  0  0  0  0  0  0  0
   43.5017   -5.6179   10.9494 C   0  0  0  0  0  0  0  0  0  0  0  0
   44.0946   -6.8346   11.2899 C   0  0  0  0  0  0  0  0  0  0  0  0
   43.3148   -7.6196   12.1081 C   0  0  0  0  0  0  0  0  0  0  0  0
   41.8041   -6.8380   12.4503 S   0  0  0  0  0  0  0  0  0  0  0  0
   43.5829   -8.9324   12.6095 C   0  0  0  0  0  0  0  0  0  0  0  0
   42.2715  -10.0544   12.8146 S   0  0  0  0  0  0  0  0  0  0  0  0
   44.6426  -10.9008   13.2647 C   0  0  0  0  0  0  0  0  0  0  0  0
   44.7899   -9.5375   12.9032 C   0  0  0  0  0  0  0  0  0  0  0  0
   42.6215   -2.4025   10.3490 C   0  0  0  0  0  0  0  0  0  0  0  0
   42.4980   -1.0705   10.4461 O   0  0  0  0  0  0  0  0  0  0  0  0
   43.5859   -2.9370    9.8539 O   0  0  0  0  0  0  0  0  0  0  0  0
   46.1178   -8.8967   12.9527 C   0  0  0  0  0  0  0  0  0  0  0  0
   46.0403   -7.6013   13.2830 O   0  0  0  0  0  0  0  0  0  0  0  0
   47.1532   -9.4832   12.7524 O   0  0  0  0  0  0  0  0  0  0  0  0
   47.2691   -6.8817   13.3792 C   0  0  0  0  0  0  0  0  0  0  0  0
   43.5487   -0.2809    9.8930 C   0  0  0  0  0  0  0  0  0  0  0  0
   43.3518  -11.3108   13.2726 C   0  0  0  0  0  0  0  0  0  0  0  0
   35.9720    6.7470    8.5094 C   0  0  0  0  0  0  0  0  0  0  0  0
   34.3415  -10.0346   16.9797 C   0  0  0  0  0  0  0  0  0  0  0  0
   43.3664   -0.0835    8.3946 C   0  0  0  0  0  0  0  0  0  0  0  0
   47.9118   -7.0589   14.7472 C   0  0  0  0  0  0  0  0  0  0  0  0
    3.0862   18.1534    4.6807 H   0  0  0  0  0  0  0  0  0  0  0  0
    4.7187   19.7116    5.9816 H   0  0  0  0  0  0  0  0  0  0  0  0
    7.7734   12.7478    4.3721 H   0  0  0  0  0  0  0  0  0  0  0  0
    2.8714   17.6356    2.3879 H   0  0  0  0  0  0  0  0  0  0  0  0
    0.4737   17.2509    1.5280 H   0  0  0  0  0  0  0  0  0  0  0  0
    8.0652   16.4629    7.3482 H   0  0  0  0  0  0  0  0  0  0  0  0
   10.6159   16.1163    7.6421 H   0  0  0  0  0  0  0  0  0  0  0  0
   -1.2032   16.0521    0.2364 H   0  0  0  0  0  0  0  0  0  0  0  0
   -1.9024   16.7478    1.7263 H   0  0  0  0  0  0  0  0  0  0  0  0
   11.9350   14.0670    3.3446 H   0  0  0  0  0  0  0  0  0  0  0  0
   11.5350   12.7091    4.4256 H   0  0  0  0  0  0  0  0  0  0  0  0
    4.4289   10.2293    2.0328 H   0  0  0  0  0  0  0  0  0  0  0  0
    7.6963    6.4936    0.5074 H   0  0  0  0  0  0  0  0  0  0  0  0
    9.9643    5.2739    0.4915 H   0  0  0  0  0  0  0  0  0  0  0  0
   14.9648    4.8117    1.6925 H   0  0  0  0  0  0  0  0  0  0  0  0
   14.8432    4.1654   -2.0808 H   0  0  0  0  0  0  0  0  0  0  0  0
   13.5224    5.3422   -2.3655 H   0  0  0  0  0  0  0  0  0  0  0  0
    3.8088    6.4589   -0.2714 H   0  0  0  0  0  0  0  0  0  0  0  0
    2.5877    7.7656   -0.3780 H   0  0  0  0  0  0  0  0  0  0  0  0
   -3.1286   14.4700    0.0844 H   0  0  0  0  0  0  0  0  0  0  0  0
   -3.7042   16.1421    0.0927 H   0  0  0  0  0  0  0  0  0  0  0  0
   -3.8191   15.1563    1.5563 H   0  0  0  0  0  0  0  0  0  0  0  0
   14.3683   13.6834    3.7787 H   0  0  0  0  0  0  0  0  0  0  0  0
   13.6163   12.2220    3.1246 H   0  0  0  0  0  0  0  0  0  0  0  0
   13.9699   12.3402    4.8528 H   0  0  0  0  0  0  0  0  0  0  0  0
    3.0843    5.9451    2.0375 H   0  0  0  0  0  0  0  0  0  0  0  0
    1.7076    5.8307    0.9330 H   0  0  0  0  0  0  0  0  0  0  0  0
    1.8880    7.2492    1.9783 H   0  0  0  0  0  0  0  0  0  0  0  0
   13.1111    2.3892   -1.6699 H   0  0  0  0  0  0  0  0  0  0  0  0
   12.9508    3.0849   -3.2911 H   0  0  0  0  0  0  0  0  0  0  0  0
   11.8376    3.5724   -2.0073 H   0  0  0  0  0  0  0  0  0  0  0  0
   14.1894    5.8472    6.3269 H   0  0  0  0  0  0  0  0  0  0  0  0
   20.9303    3.7530    7.5176 H   0  0  0  0  0  0  0  0  0  0  0  0
   13.7388    4.3372    8.0176 H   0  0  0  0  0  0  0  0  0  0  0  0
   12.3417    5.1766   10.0091 H   0  0  0  0  0  0  0  0  0  0  0  0
   19.2512    5.3295    3.3742 H   0  0  0  0  0  0  0  0  0  0  0  0
   21.0667    4.1043    2.0301 H   0  0  0  0  0  0  0  0  0  0  0  0
   11.7224    5.4899   12.3335 H   0  0  0  0  0  0  0  0  0  0  0  0
   11.4241    6.9780   11.3901 H   0  0  0  0  0  0  0  0  0  0  0  0
   23.2710    3.1792    1.5580 H   0  0  0  0  0  0  0  0  0  0  0  0
   21.9760    2.1002    0.9655 H   0  0  0  0  0  0  0  0  0  0  0  0
   19.9176    3.6676   12.2173 H   0  0  0  0  0  0  0  0  0  0  0  0
   25.4050    3.5142    9.8647 H   0  0  0  0  0  0  0  0  0  0  0  0
   27.5931    2.2984   10.5389 H   0  0  0  0  0  0  0  0  0  0  0  0
   28.9452   -2.0299   14.2897 H   0  0  0  0  0  0  0  0  0  0  0  0
   24.2752    0.2669   16.2906 H   0  0  0  0  0  0  0  0  0  0  0  0
   24.8008   -1.4411   16.1700 H   0  0  0  0  0  0  0  0  0  0  0  0
   24.5392    2.9308   15.7894 H   0  0  0  0  0  0  0  0  0  0  0  0
   22.8377    2.4177   16.0377 H   0  0  0  0  0  0  0  0  0  0  0  0
   11.7025    6.8307   14.4381 H   0  0  0  0  0  0  0  0  0  0  0  0
   10.1785    7.0343   13.5647 H   0  0  0  0  0  0  0  0  0  0  0  0
   11.4101    8.3020   13.5084 H   0  0  0  0  0  0  0  0  0  0  0  0
   24.8756    1.2661    1.5017 H   0  0  0  0  0  0  0  0  0  0  0  0
   24.1742    1.5309   -0.0999 H   0  0  0  0  0  0  0  0  0  0  0  0
   23.5971    0.2014    0.9135 H   0  0  0  0  0  0  0  0  0  0  0  0
   23.7892    5.3256   15.9337 H   0  0  0  0  0  0  0  0  0  0  0  0
   23.3795    4.4406   17.4120 H   0  0  0  0  0  0  0  0  0  0  0  0
   22.1284    4.7802   16.2090 H   0  0  0  0  0  0  0  0  0  0  0  0
   22.8970   -0.0193   14.2344 H   0  0  0  0  0  0  0  0  0  0  0  0
   22.4540   -1.2438   15.4304 H   0  0  0  0  0  0  0  0  0  0  0  0
   23.4832   -1.6799   14.0607 H   0  0  0  0  0  0  0  0  0  0  0  0
   32.0130    0.7091   11.7804 H   0  0  0  0  0  0  0  0  0  0  0  0
   36.9761   -4.3503   12.7148 H   0  0  0  0  0  0  0  0  0  0  0  0
   33.6553    2.0678   12.7089 H   0  0  0  0  0  0  0  0  0  0  0  0
   34.2687    4.1939   11.3951 H   0  0  0  0  0  0  0  0  0  0  0  0
   32.3100   -5.0291   13.0129 H   0  0  0  0  0  0  0  0  0  0  0  0
   32.5867   -7.1205   14.4769 H   0  0  0  0  0  0  0  0  0  0  0  0
   35.8023    5.8167   10.4552 H   0  0  0  0  0  0  0  0  0  0  0  0
   34.3776    5.5877    9.4016 H   0  0  0  0  0  0  0  0  0  0  0  0
   33.7674   -9.1637   15.0837 H   0  0  0  0  0  0  0  0  0  0  0  0
   32.9802   -8.4205   16.5051 H   0  0  0  0  0  0  0  0  0  0  0  0
   40.1234   -1.3201   10.7068 H   0  0  0  0  0  0  0  0  0  0  0  0
   43.9594   -4.8881   10.3094 H   0  0  0  0  0  0  0  0  0  0  0  0
   45.0558   -7.1468   10.9248 H   0  0  0  0  0  0  0  0  0  0  0  0
   45.4828  -11.5205   13.5197 H   0  0  0  0  0  0  0  0  0  0  0  0
   46.9982   -5.8387   13.2008 H   0  0  0  0  0  0  0  0  0  0  0  0
   47.9489   -7.2324   12.5952 H   0  0  0  0  0  0  0  0  0  0  0  0
   44.5074   -0.7697   10.0967 H   0  0  0  0  0  0  0  0  0  0  0  0
   43.4952    0.6711   10.4253 H   0  0  0  0  0  0  0  0  0  0  0  0
   42.9609  -12.2776   13.5190 H   0  0  0  0  0  0  0  0  0  0  0  0
   37.0584    6.7876    8.5295 H   0  0  0  0  0  0  0  0  0  0  0  0
   35.5797    7.7103    8.8280 H   0  0  0  0  0  0  0  0  0  0  0  0
   35.6530    6.5600    7.4868 H   0  0  0  0  0  0  0  0  0  0  0  0
   35.2719  -10.4520   16.6023 H   0  0  0  0  0  0  0  0  0  0  0  0
   33.5786  -10.8099   16.9660 H   0  0  0  0  0  0  0  0  0  0  0  0
   34.4983   -9.7164   18.0076 H   0  0  0  0  0  0  0  0  0  0  0  0
   43.4316   -1.0412    7.8838 H   0  0  0  0  0  0  0  0  0  0  0  0
   44.1459    0.5713    8.0158 H   0  0  0  0  0  0  0  0  0  0  0  0
   42.3958    0.3616    8.1892 H   0  0  0  0  0  0  0  0  0  0  0  0
   47.2183   -6.7589   15.5292 H   0  0  0  0  0  0  0  0  0  0  0  0
   48.8076   -6.4479   14.8110 H   0  0  0  0  0  0  0  0  0  0  0  0
   48.1844   -8.1009   14.8962 H   0  0  0  0  0  0  0  0  0  0  0  0
  1  2  1  0  0  0  0
  2  7  1  0  0  0  0
  2  3  2  0  0  0  0
  3  9  1  0  0  0  0
  4  3  1  0  0  0  0
  4 14  1  0  0  0  0
  5  4  2  0  0  0  0
  6  1  2  0  0  0  0
  6  5  1  0  0  0  0
  7  8  2  0  0  0  0
  8  9  1  0  0  0  0
  8161  1  0  0  0  0
 10  5  1  0  0  0  0
 10162  1  0  0  0  0
 11 10  2  0  0  0  0
 12 11  1  0  0  0  0
 12  6  1  0  0  0  0
 13 18  1  0  0  0  0
 13  1  1  0  0  0  0
 14 19  2  0  0  0  0
 15 13  2  0  0  0  0
 16 17  2  0  0  0  0
 16 15  1  0  0  0  0
 17 18  1  0  0  0  0
 19 20  1  0  0  0  0
 19165  1  0  0  0  0
 20166  1  0  0  0  0
 21 20  2  0  0  0  0
 22 14  1  0  0  0  0
 22 21  1  0  0  0  0
 23 17  1  0  0  0  0
 24168  1  0  0  0  0
 24 23  1  0  0  0  0
 25 21  1  0  0  0  0
 26170  1  0  0  0  0
 26 25  1  0  0  0  0
 27 28  1  0  0  0  0
 27 11  1  0  0  0  0
 29 28  1  0  0  0  0
 30 31  1  0  0  0  0
 30 29  2  0  0  0  0
 31 27  2  0  0  0  0
 32 29  1  0  0  0  0
 32 36  1  0  0  0  0
 33 32  2  0  0  0  0
 34 33  1  0  0  0  0
 34 35  2  0  0  0  0
 35 37  1  0  0  0  0
 35 36  1  0  0  0  0
 37 38  1  0  0  0  0
 39 49  2  0  0  0  0
 40 39  1  0  0  0  0
 40 37  2  0  0  0  0
 41 30  1  0  0  0  0
 42 41  1  0  0  0  0
 43 41  2  0  0  0  0
 44 40  1  0  0  0  0
 45 44  1  0  0  0  0
 46 44  2  0  0  0  0
 47 45  1  0  0  0  0
 48 42  1  0  0  0  0
 48 52  1  0  0  0  0
 49 38  1  0  0  0  0
 49 61  1  0  0  0  0
 50 24  1  0  0  0  0
 50181  1  0  0  0  0
 51 26  1  0  0  0  0
 51184  1  0  0  0  0
 52187  1  0  0  0  0
 52185  1  0  0  0  0
 53190  1  0  0  0  0
 53 47  1  0  0  0  0
 53188  1  0  0  0  0
 54 59  1  0  0  0  0
 54 66  1  0  0  0  0
 55 54  2  0  0  0  0
 56 57  2  0  0  0  0
 56 55  1  0  0  0  0
 57 58  1  0  0  0  0
 58 63  1  0  0  0  0
 58 59  2  0  0  0  0
 59 65  1  0  0  0  0
 60191  1  0  0  0  0
 60 55  1  0  0  0  0
 61 60  2  0  0  0  0
 62 61  1  0  0  0  0
 62 56  1  0  0  0  0
 63 64  2  0  0  0  0
 64 65  1  0  0  0  0
 64 80  1  0  0  0  0
 66 71  1  0  0  0  0
 67 75  1  0  0  0  0
 67 57  1  0  0  0  0
 68 66  2  0  0  0  0
 68 69  1  0  0  0  0
 69194  1  0  0  0  0
 69 70  2  0  0  0  0
 70 76  1  0  0  0  0
 71 70  1  0  0  0  0
 72 67  2  0  0  0  0
 73 74  2  0  0  0  0
 73 72  1  0  0  0  0
 74 75  1  0  0  0  0
 76 77  1  0  0  0  0
 77197  1  0  0  0  0
 77103  1  0  0  0  0
 78 74  1  0  0  0  0
 79199  1  0  0  0  0
 79 78  1  0  0  0  0
 80 84  2  0  0  0  0
 81 80  1  0  0  0  0
 81 82  1  0  0  0  0
 82 85  1  0  0  0  0
 82 83  2  0  0  0  0
 83 94  1  0  0  0  0
 84201  1  0  0  0  0
 84 83  1  0  0  0  0
 85 89  1  0  0  0  0
 86 87  1  0  0  0  0
 86 85  2  0  0  0  0
 87 88  2  0  0  0  0
 88 90  1  0  0  0  0
 88 89  1  0  0  0  0
 90 93  2  0  0  0  0
 91 90  1  0  0  0  0
 91102  1  0  0  0  0
 92204  1  0  0  0  0
 93 92  1  0  0  0  0
 93 97  1  0  0  0  0
 94 95  1  0  0  0  0
 94 96  2  0  0  0  0
 95101  1  0  0  0  0
 97 99  2  0  0  0  0
 97 98  1  0  0  0  0
 98100  1  0  0  0  0
100206  1  0  0  0  0
100205  1  0  0  0  0
101207  1  0  0  0  0
101208  1  0  0  0  0
101105  1  0  0  0  0
102 92  2  0  0  0  0
103210  1  0  0  0  0
103209  1  0  0  0  0
104212  1  0  0  0  0
104 79  1  0  0  0  0
105216  1  0  0  0  0
106219  1  0  0  0  0
106100  1  0  0  0  0
107112  2  0  0  0  0
107108  1  0  0  0  0
108109  2  0  0  0  0
109110  1  0  0  0  0
109115  1  0  0  0  0
110120  1  0  0  0  0
111110  2  0  0  0  0
112111  1  0  0  0  0
113108  1  0  0  0  0
113114  2  0  0  0  0
114102  1  0  0  0  0
114115  1  0  0  0  0
116111  1  0  0  0  0
116222  1  0  0  0  0
117116  2  0  0  0  0
118117  1  0  0  0  0
118112  1  0  0  0  0
119107  1  0  0  0  0
119121  2  0  0  0  0
120128  1  0  0  0  0
121223  1  0  0  0  0
122224  1  0  0  0  0
122121  1  0  0  0  0
123122  2  0  0  0  0
124123  1  0  0  0  0
124119  1  0  0  0  0
125120  2  0  0  0  0
125126  1  0  0  0  0
126226  1  0  0  0  0
126127  2  0  0  0  0
127131  1  0  0  0  0
128127  1  0  0  0  0
129130  1  0  0  0  0
129123  1  0  0  0  0
130227  1  0  0  0  0
132131  1  0  0  0  0
132230  1  0  0  0  0
132157  1  0  0  0  0
133117  1  0  0  0  0
133134  1  0  0  0  0
135138  1  0  0  0  0
135134  1  0  0  0  0
136137  1  0  0  0  0
136135  2  0  0  0  0
137133  2  0  0  0  0
138142  1  0  0  0  0
139140  1  0  0  0  0
139138  2  0  0  0  0
140141  2  0  0  0  0
141142  1  0  0  0  0
141143  1  0  0  0  0
143144  1  0  0  0  0
143146  2  0  0  0  0
144155  1  0  0  0  0
145155  2  0  0  0  0
145234  1  0  0  0  0
146150  1  0  0  0  0
146145  1  0  0  0  0
147148  1  0  0  0  0
147136  1  0  0  0  0
149147  2  0  0  0  0
150151  1  0  0  0  0
151153  1  0  0  0  0
152150  2  0  0  0  0
153159  1  0  0  0  0
154237  1  0  0  0  0
154238  1  0  0  0  0
154148  1  0  0  0  0
155239  1  0  0  0  0
156240  1  0  0  0  0
156241  1  0  0  0  0
156130  1  0  0  0  0
157245  1  0  0  0  0
158154  1  0  0  0  0
159250  1  0  0  0  0
159251  1  0  0  0  0
159249  1  0  0  0  0
160  7  1  0  0  0  0
163 15  1  0  0  0  0
164 16  1  0  0  0  0
167 24  1  0  0  0  0
169 26  1  0  0  0  0
171 31  1  0  0  0  0
172 33  1  0  0  0  0
173 34  1  0  0  0  0
174 39  1  0  0  0  0
175 47  1  0  0  0  0
176 47  1  0  0  0  0
177 48  1  0  0  0  0
178 48  1  0  0  0  0
179 50  1  0  0  0  0
180 50  1  0  0  0  0
182 51  1  0  0  0  0
183 51  1  0  0  0  0
186 52  1  0  0  0  0
189 53  1  0  0  0  0
192 63  1  0  0  0  0
193 68  1  0  0  0  0
195 72  1  0  0  0  0
196 73  1  0  0  0  0
198 77  1  0  0  0  0
200 79  1  0  0  0  0
202 86  1  0  0  0  0
203 87  1  0  0  0  0
211103  1  0  0  0  0
213104  1  0  0  0  0
214104  1  0  0  0  0
215105  1  0  0  0  0
217105  1  0  0  0  0
218106  1  0  0  0  0
220106  1  0  0  0  0
221113  1  0  0  0  0
225125  1  0  0  0  0
228130  1  0  0  0  0
229132  1  0  0  0  0
231137  1  0  0  0  0
232139  1  0  0  0  0
233140  1  0  0  0  0
235153  1  0  0  0  0
236153  1  0  0  0  0
242156  1  0  0  0  0
243157  1  0  0  0  0
244157  1  0  0  0  0
246158  1  0  0  0  0
247158  1  0  0  0  0
248158  1  0  0  0  0
M  END
