SCF done       -513.795498625447          0.000330292386
 OpenBabel12282109573D

290325  0  0  0  0  0  0  0  0999 V2000
   -2.9082    6.6758    2.0946 C   0  0  0  0  0  0  0  0  0  0  0  0
   -2.2887    7.0865    0.8906 C   0  0  0  0  0  0  0  0  0  0  0  0
   -0.9253    7.3416    0.7795 C   0  0  0  0  0  0  0  0  0  0  0  0
   -0.1540    7.1538    1.9419 C   0  0  0  0  0  0  0  0  0  0  0  0
   -0.7765    6.7562    3.1499 C   0  0  0  0  0  0  0  0  0  0  0  0
   -2.1397    6.4984    3.2596 C   0  0  0  0  0  0  0  0  0  0  0  0
   -4.3192    6.5451    1.9367 C   0  0  0  0  0  0  0  0  0  0  0  0
   -4.7377    6.8324    0.6877 C   0  0  0  0  0  0  0  0  0  0  0  0
   -3.4596    7.2797   -0.3854 S   0  0  0  0  0  0  0  0  0  0  0  0
    1.2519    7.2621    2.0831 C   0  0  0  0  0  0  0  0  0  0  0  0
    1.7007    6.9890    3.3414 C   0  0  0  0  0  0  0  0  0  0  0  0
    0.3921    6.5726    4.4306 S   0  0  0  0  0  0  0  0  0  0  0  0
   -0.3168    7.7905   -0.4566 C   0  0  0  0  0  0  0  0  0  0  0  0
   -2.7084    6.0460    4.5144 C   0  0  0  0  0  0  0  0  0  0  0  0
    3.0437    7.0297    3.8127 C   0  0  0  0  0  0  0  0  0  0  0  0
    3.5053    6.7967    5.0900 C   0  0  0  0  0  0  0  0  0  0  0  0
    4.8869    6.9417    5.2121 C   0  0  0  0  0  0  0  0  0  0  0  0
    5.5003    7.2843    4.0263 C   0  0  0  0  0  0  0  0  0  0  0  0
    4.3486    7.4323    2.7379 S   0  0  0  0  0  0  0  0  0  0  0  0
   -2.3931    6.4637    5.7758 C   0  0  0  0  0  0  0  0  0  0  0  0
   -3.0938    5.7552    6.7749 C   0  0  0  0  0  0  0  0  0  0  0  0
   -3.9398    4.7954    6.3008 C   0  0  0  0  0  0  0  0  0  0  0  0
   -3.8757    4.7541    4.5735 S   0  0  0  0  0  0  0  0  0  0  0  0
   -4.7824    3.8366    7.0670 C   0  0  0  0  0  0  0  0  0  0  0  0
   -4.0204    2.5380    7.3433 C   0  0  0  0  0  0  0  0  0  0  0  0
    0.6283    8.7627   -0.6226 C   0  0  0  0  0  0  0  0  0  0  0  0
    0.9939    8.9385   -1.9740 C   0  0  0  0  0  0  0  0  0  0  0  0
    0.3533    8.1053   -2.8448 C   0  0  0  0  0  0  0  0  0  0  0  0
   -0.7498    7.0856   -1.9885 S   0  0  0  0  0  0  0  0  0  0  0  0
    0.4570    8.0516   -4.3288 C   0  0  0  0  0  0  0  0  0  0  0  0
   -0.6335    8.9050   -4.9813 C   0  0  0  0  0  0  0  0  0  0  0  0
    6.8858    7.5141    3.8087 C   0  0  0  0  0  0  0  0  0  0  0  0
    7.7829    7.4587    4.7318 N   0  0  0  0  0  0  0  0  0  0  0  0
    9.0275    7.7284    4.2755 C   0  0  0  0  0  0  0  0  0  0  0  0
    9.0958    8.0133    2.8849 C   0  0  0  0  0  0  0  0  0  0  0  0
    7.5025    7.9106    2.1986 S   0  0  0  0  0  0  0  0  0  0  0  0
   10.1807    7.7581    5.0899 C   0  0  0  0  0  0  0  0  0  0  0  0
   11.3553    8.1054    4.4244 C   0  0  0  0  0  0  0  0  0  0  0  0
   11.4211    8.4066    3.0372 C   0  0  0  0  0  0  0  0  0  0  0  0
   10.2721    8.3533    2.2179 C   0  0  0  0  0  0  0  0  0  0  0  0
   12.9458    8.2231    5.1142 S   0  0  0  0  0  0  0  0  0  0  0  0
   13.5544    8.6741    3.5151 C   0  0  0  0  0  0  0  0  0  0  0  0
   12.6594    8.7193    2.5902 N   0  0  0  0  0  0  0  0  0  0  0  0
   10.1125    7.4610    6.4962 C   0  0  0  0  0  0  0  0  0  0  0  0
    9.0860    6.8715    7.1902 C   0  0  0  0  0  0  0  0  0  0  0  0
    9.3420    6.7383    8.5648 C   0  0  0  0  0  0  0  0  0  0  0  0
   10.5572    7.2267    8.9428 C   0  0  0  0  0  0  0  0  0  0  0  0
   11.4202    7.8573    7.5816 S   0  0  0  0  0  0  0  0  0  0  0  0
   11.1758    7.2456   10.2978 C   0  0  0  0  0  0  0  0  0  0  0  0
   12.4005    6.3314   10.3672 C   0  0  0  0  0  0  0  0  0  0  0  0
   10.3460    8.6218    0.8062 C   0  0  0  0  0  0  0  0  0  0  0  0
   11.3772    9.1925    0.1032 C   0  0  0  0  0  0  0  0  0  0  0  0
   11.1310    9.2870   -1.2761 C   0  0  0  0  0  0  0  0  0  0  0  0
    9.9192    8.7861   -1.6491 C   0  0  0  0  0  0  0  0  0  0  0  0
    9.0465    8.1935   -0.2772 S   0  0  0  0  0  0  0  0  0  0  0  0
    9.3147    8.7259   -3.0090 C   0  0  0  0  0  0  0  0  0  0  0  0
    8.0771    9.6187   -3.1125 C   0  0  0  0  0  0  0  0  0  0  0  0
   14.9283    8.9826    3.3217 C   0  0  0  0  0  0  0  0  0  0  0  0
   16.0912    8.7089    4.5787 S   0  0  0  0  0  0  0  0  0  0  0  0
   17.3670    9.3396    3.5821 C   0  0  0  0  0  0  0  0  0  0  0  0
   16.8889    9.7341    2.3516 C   0  0  0  0  0  0  0  0  0  0  0  0
   15.5179    9.5261    2.2008 C   0  0  0  0  0  0  0  0  0  0  0  0
   -2.8969    6.0877    8.4526 Cl  0  0  0  0  0  0  0  0  0  0  0  0
    2.1602   10.1049   -2.4701 Cl  0  0  0  0  0  0  0  0  0  0  0  0
   20.5663    9.0315    5.4198 C   0  0  0  0  0  0  0  0  0  0  0  0
   21.1393    9.8038    4.3787 C   0  0  0  0  0  0  0  0  0  0  0  0
   22.4676   10.2106    4.3729 C   0  0  0  0  0  0  0  0  0  0  0  0
   23.2640    9.7741    5.4506 C   0  0  0  0  0  0  0  0  0  0  0  0
   22.6962    8.9858    6.4813 C   0  0  0  0  0  0  0  0  0  0  0  0
   21.3607    8.5963    6.4998 C   0  0  0  0  0  0  0  0  0  0  0  0
   19.1801    8.8315    5.2201 C   0  0  0  0  0  0  0  0  0  0  0  0
   18.7039    9.3858    4.0680 C   0  0  0  0  0  0  0  0  0  0  0  0
   19.9563   10.2115    3.1655 S   0  0  0  0  0  0  0  0  0  0  0  0
   24.6538    9.9676    5.6381 C   0  0  0  0  0  0  0  0  0  0  0  0
   25.1456    9.3690    6.7610 C   0  0  0  0  0  0  0  0  0  0  0  0
   23.8978    8.5277    7.6581 S   0  0  0  0  0  0  0  0  0  0  0  0
   23.0202   11.0508    3.3297 C   0  0  0  0  0  0  0  0  0  0  0  0
   20.8396    7.7636    7.5645 C   0  0  0  0  0  0  0  0  0  0  0  0
   26.4865    9.3856    7.2377 C   0  0  0  0  0  0  0  0  0  0  0  0
   27.0180    8.6981    8.3073 C   0  0  0  0  0  0  0  0  0  0  0  0
   28.3745    8.9520    8.5059 C   0  0  0  0  0  0  0  0  0  0  0  0
   28.8949    9.8452    7.5939 C   0  0  0  0  0  0  0  0  0  0  0  0
   27.6903   10.3724    6.4641 S   0  0  0  0  0  0  0  0  0  0  0  0
   21.1549    7.8052    8.8933 C   0  0  0  0  0  0  0  0  0  0  0  0
   20.4963    6.8064    9.6412 C   0  0  0  0  0  0  0  0  0  0  0  0
   19.6955    5.9825    8.9049 C   0  0  0  0  0  0  0  0  0  0  0  0
   19.7319    6.4570    7.2429 S   0  0  0  0  0  0  0  0  0  0  0  0
   18.8260    4.8657    9.3658 C   0  0  0  0  0  0  0  0  0  0  0  0
   17.3748    5.3277    9.5206 C   0  0  0  0  0  0  0  0  0  0  0  0
   23.8626   12.1167    3.4709 C   0  0  0  0  0  0  0  0  0  0  0  0
   24.1989   12.7096    2.2353 C   0  0  0  0  0  0  0  0  0  0  0  0
   23.6374   12.1053    1.1481 C   0  0  0  0  0  0  0  0  0  0  0  0
   22.6462   10.7801    1.6511 S   0  0  0  0  0  0  0  0  0  0  0  0
   23.7373   12.4904   -0.2862 C   0  0  0  0  0  0  0  0  0  0  0  0
   22.5592   13.3783   -0.6949 C   0  0  0  0  0  0  0  0  0  0  0  0
   30.2270   10.3376    7.5462 C   0  0  0  0  0  0  0  0  0  0  0  0
   31.1773    9.9139    8.3057 N   0  0  0  0  0  0  0  0  0  0  0  0
   32.3456   10.5636    8.1014 C   0  0  0  0  0  0  0  0  0  0  0  0
   32.2904   11.5795    7.1096 C   0  0  0  0  0  0  0  0  0  0  0  0
   30.6889   11.6349    6.4355 S   0  0  0  0  0  0  0  0  0  0  0  0
   33.5316   10.2969    8.8187 C   0  0  0  0  0  0  0  0  0  0  0  0
   34.6031   11.1299    8.5024 C   0  0  0  0  0  0  0  0  0  0  0  0
   34.5391   12.1699    7.5359 C   0  0  0  0  0  0  0  0  0  0  0  0
   33.3637   12.4108    6.7898 C   0  0  0  0  0  0  0  0  0  0  0  0
   36.1977   11.0787    9.1905 S   0  0  0  0  0  0  0  0  0  0  0  0
   36.6326   12.4512    8.1624 C   0  0  0  0  0  0  0  0  0  0  0  0
   35.6872   12.8724    7.3960 N   0  0  0  0  0  0  0  0  0  0  0  0
   33.5875    9.2480    9.8020 C   0  0  0  0  0  0  0  0  0  0  0  0
   32.7042    8.2144    9.9876 C   0  0  0  0  0  0  0  0  0  0  0  0
   33.0496    7.3669   11.0529 C   0  0  0  0  0  0  0  0  0  0  0  0
   34.1905    7.7404   11.6985 C   0  0  0  0  0  0  0  0  0  0  0  0
   34.8721    9.1594   10.9794 S   0  0  0  0  0  0  0  0  0  0  0  0
   34.8699    7.0795   12.8474 C   0  0  0  0  0  0  0  0  0  0  0  0
   36.1908    6.4373   12.4189 C   0  0  0  0  0  0  0  0  0  0  0  0
   33.3091   13.4402    5.7861 C   0  0  0  0  0  0  0  0  0  0  0  0
   34.2178   14.4400    5.5439 C   0  0  0  0  0  0  0  0  0  0  0  0
   33.8601   15.2765    4.4745 C   0  0  0  0  0  0  0  0  0  0  0  0
   32.6842   14.9283    3.8792 C   0  0  0  0  0  0  0  0  0  0  0  0
   31.9864   13.5462    4.6521 S   0  0  0  0  0  0  0  0  0  0  0  0
   31.9882   15.5837    2.7371 C   0  0  0  0  0  0  0  0  0  0  0  0
   30.6509   16.1888    3.1675 C   0  0  0  0  0  0  0  0  0  0  0  0
   37.9251   13.0382    8.2408 C   0  0  0  0  0  0  0  0  0  0  0  0
   39.2094   12.2688    9.1165 S   0  0  0  0  0  0  0  0  0  0  0  0
   40.2871   13.5831    8.7566 C   0  0  0  0  0  0  0  0  0  0  0  0
   39.6595   14.5492    8.0011 C   0  0  0  0  0  0  0  0  0  0  0  0
   38.3329   14.2392    7.7019 C   0  0  0  0  0  0  0  0  0  0  0  0
   20.7022    6.6453   11.3430 Cl  0  0  0  0  0  0  0  0  0  0  0  0
   25.2404   14.0764    2.1218 Cl  0  0  0  0  0  0  0  0  0  0  0  0
   43.6400   12.8155   10.1310 C   0  0  0  0  0  0  0  0  0  0  0  0
   43.9714   14.1619    9.8379 C   0  0  0  0  0  0  0  0  0  0  0  0
   45.1996   14.7317   10.1508 C   0  0  0  0  0  0  0  0  0  0  0  0
   46.1542   13.8823   10.7457 C   0  0  0  0  0  0  0  0  0  0  0  0
   45.8297   12.5312   11.0199 C   0  0  0  0  0  0  0  0  0  0  0  0
   44.5926   11.9659   10.7280 C   0  0  0  0  0  0  0  0  0  0  0  0
   42.2996   12.5186    9.7875 C   0  0  0  0  0  0  0  0  0  0  0  0
   41.6323   13.5656    9.2224 C   0  0  0  0  0  0  0  0  0  0  0  0
   42.6325   14.9977    9.0997 S   0  0  0  0  0  0  0  0  0  0  0  0
   47.4989   14.1791   11.0742 C   0  0  0  0  0  0  0  0  0  0  0  0
   48.1869   13.1181   11.5861 C   0  0  0  0  0  0  0  0  0  0  0  0
   47.1930   11.6795   11.6937 S   0  0  0  0  0  0  0  0  0  0  0  0
   45.4970   16.1273    9.8998 C   0  0  0  0  0  0  0  0  0  0  0  0
   44.3331   10.5662   10.9964 C   0  0  0  0  0  0  0  0  0  0  0  0
   49.5408   13.0898   12.0240 C   0  0  0  0  0  0  0  0  0  0  0  0
   50.2812   12.0009   12.4304 C   0  0  0  0  0  0  0  0  0  0  0  0
   51.5831   12.3295   12.8064 C   0  0  0  0  0  0  0  0  0  0  0  0
   51.8510   13.6774   12.7000 C   0  0  0  0  0  0  0  0  0  0  0  0
   50.4739   14.5534   12.1150 S   0  0  0  0  0  0  0  0  0  0  0  0
   44.7537    9.8253   12.0643 C   0  0  0  0  0  0  0  0  0  0  0  0
   44.3856    8.4671   11.9635 C   0  0  0  0  0  0  0  0  0  0  0  0
   43.6918    8.1507   10.8316 C   0  0  0  0  0  0  0  0  0  0  0  0
   43.4813    9.5616    9.8551 S   0  0  0  0  0  0  0  0  0  0  0  0
   43.2040    6.8196   10.3782 C   0  0  0  0  0  0  0  0  0  0  0  0
   44.2130    6.1610    9.4340 C   0  0  0  0  0  0  0  0  0  0  0  0
   46.1522   17.0042   10.7170 C   0  0  0  0  0  0  0  0  0  0  0  0
   46.2603   18.2935   10.1539 C   0  0  0  0  0  0  0  0  0  0  0  0
   45.7087   18.4147    8.9115 C   0  0  0  0  0  0  0  0  0  0  0  0
   45.0151   16.9082    8.4203 S   0  0  0  0  0  0  0  0  0  0  0  0
   45.5983   19.6274    8.0555 C   0  0  0  0  0  0  0  0  0  0  0  0
   44.2410   20.3082    8.2493 C   0  0  0  0  0  0  0  0  0  0  0  0
   53.0654   14.3382   13.0293 C   0  0  0  0  0  0  0  0  0  0  0  0
   54.1420   13.7297   13.3894 N   0  0  0  0  0  0  0  0  0  0  0  0
   55.1577   14.5765   13.6747 C   0  0  0  0  0  0  0  0  0  0  0  0
   54.8338   15.9525   13.5320 C   0  0  0  0  0  0  0  0  0  0  0  0
   53.1873   16.1024   12.9956 S   0  0  0  0  0  0  0  0  0  0  0  0
   56.4363   14.1601   14.1057 C   0  0  0  0  0  0  0  0  0  0  0  0
   57.3214   15.1993   14.3909 C   0  0  0  0  0  0  0  0  0  0  0  0
   56.9947   16.5751   14.2562 C   0  0  0  0  0  0  0  0  0  0  0  0
   55.7183   16.9916   13.8188 C   0  0  0  0  0  0  0  0  0  0  0  0
   58.9671   15.0494   14.9307 S   0  0  0  0  0  0  0  0  0  0  0  0
   59.0809   16.8141   14.9250 C   0  0  0  0  0  0  0  0  0  0  0  0
   58.0056   17.4219   14.5629 N   0  0  0  0  0  0  0  0  0  0  0  0
   56.7647   12.7645   14.2256 C   0  0  0  0  0  0  0  0  0  0  0  0
   56.0714   11.6872   13.7323 C   0  0  0  0  0  0  0  0  0  0  0  0
   56.6705   10.4522   14.0271 C   0  0  0  0  0  0  0  0  0  0  0  0
   57.8201   10.5633   14.7512 C   0  0  0  0  0  0  0  0  0  0  0  0
   58.1898   12.2225   15.0744 S   0  0  0  0  0  0  0  0  0  0  0  0
   58.7367    9.4836   15.2119 C   0  0  0  0  0  0  0  0  0  0  0  0
   60.0344    9.4769   14.4009 C   0  0  0  0  0  0  0  0  0  0  0  0
   55.3835   18.3861   13.7014 C   0  0  0  0  0  0  0  0  0  0  0  0
   56.0773   19.4680   14.1828 C   0  0  0  0  0  0  0  0  0  0  0  0
   55.4618   20.6989   13.9036 C   0  0  0  0  0  0  0  0  0  0  0  0
   54.2986   20.5804   13.2027 C   0  0  0  0  0  0  0  0  0  0  0  0
   53.9391   18.9189   12.8795 S   0  0  0  0  0  0  0  0  0  0  0  0
   53.3672   21.6526   12.7541 C   0  0  0  0  0  0  0  0  0  0  0  0
   52.0244   21.5662   13.4818 C   0  0  0  0  0  0  0  0  0  0  0  0
   60.2820   17.4815   15.3001 C   0  0  0  0  0  0  0  0  0  0  0  0
   61.6857   16.6093   15.8301 S   0  0  0  0  0  0  0  0  0  0  0  0
   62.5486   18.0743   16.0492 C   0  0  0  0  0  0  0  0  0  0  0  0
   61.8035   19.1696   15.7330 C   0  0  0  0  0  0  0  0  0  0  0  0
   60.5086   18.8370   15.3048 C   0  0  0  0  0  0  0  0  0  0  0  0
   44.7807    7.3127   13.1781 Cl  0  0  0  0  0  0  0  0  0  0  0  0
   47.0344   19.5951   10.9738 Cl  0  0  0  0  0  0  0  0  0  0  0  0
   -4.9842    6.2613    2.7307 H   0  0  0  0  0  0  0  0  0  0  0  0
   -5.7411    6.8136    0.3098 H   0  0  0  0  0  0  0  0  0  0  0  0
    1.9178    7.5089    1.2766 H   0  0  0  0  0  0  0  0  0  0  0  0
    2.8491    6.5337    5.9008 H   0  0  0  0  0  0  0  0  0  0  0  0
    5.4386    6.8101    6.1243 H   0  0  0  0  0  0  0  0  0  0  0  0
   -1.7141    7.2668    5.9935 H   0  0  0  0  0  0  0  0  0  0  0  0
   -5.6880    3.6130    6.4999 H   0  0  0  0  0  0  0  0  0  0  0  0
   -5.0689    4.2994    8.0138 H   0  0  0  0  0  0  0  0  0  0  0  0
   -3.7288    2.0649    6.4083 H   0  0  0  0  0  0  0  0  0  0  0  0
   -4.6464    1.8483    7.9033 H   0  0  0  0  0  0  0  0  0  0  0  0
   -3.1236    2.7438    7.9225 H   0  0  0  0  0  0  0  0  0  0  0  0
    1.0204    9.3648    0.1762 H   0  0  0  0  0  0  0  0  0  0  0  0
    0.3572    7.0176   -4.6642 H   0  0  0  0  0  0  0  0  0  0  0  0
    1.4398    8.4221   -4.6269 H   0  0  0  0  0  0  0  0  0  0  0  0
   -1.6177    8.5465   -4.6887 H   0  0  0  0  0  0  0  0  0  0  0  0
   -0.5507    8.8558   -6.0639 H   0  0  0  0  0  0  0  0  0  0  0  0
   -0.5359    9.9425   -4.6710 H   0  0  0  0  0  0  0  0  0  0  0  0
    8.1838    6.5443    6.7098 H   0  0  0  0  0  0  0  0  0  0  0  0
    8.6465    6.2956    9.2564 H   0  0  0  0  0  0  0  0  0  0  0  0
   10.4305    6.9239   11.0284 H   0  0  0  0  0  0  0  0  0  0  0  0
   11.4798    8.2660   10.5467 H   0  0  0  0  0  0  0  0  0  0  0  0
   12.1205    5.3058   10.1372 H   0  0  0  0  0  0  0  0  0  0  0  0
   12.8360    6.3588   11.3630 H   0  0  0  0  0  0  0  0  0  0  0  0
   13.1508    6.6542    9.6491 H   0  0  0  0  0  0  0  0  0  0  0  0
   12.2765    9.5313    0.5806 H   0  0  0  0  0  0  0  0  0  0  0  0
   11.8314    9.7103   -1.9749 H   0  0  0  0  0  0  0  0  0  0  0  0
    9.0297    7.6951   -3.2373 H   0  0  0  0  0  0  0  0  0  0  0  0
   10.0629    9.0422   -3.7391 H   0  0  0  0  0  0  0  0  0  0  0  0
    7.3231    9.2996   -2.3964 H   0  0  0  0  0  0  0  0  0  0  0  0
    7.6539    9.5633   -4.1124 H   0  0  0  0  0  0  0  0  0  0  0  0
    8.3380   10.6533   -2.9013 H   0  0  0  0  0  0  0  0  0  0  0  0
   17.5265   10.1524    1.5930 H   0  0  0  0  0  0  0  0  0  0  0  0
   14.9570    9.7629    1.3160 H   0  0  0  0  0  0  0  0  0  0  0  0
   18.5409    8.3022    5.9022 H   0  0  0  0  0  0  0  0  0  0  0  0
   25.2830   10.5031    4.9511 H   0  0  0  0  0  0  0  0  0  0  0  0
   26.4289    8.0358    8.9166 H   0  0  0  0  0  0  0  0  0  0  0  0
   28.9722    8.5215    9.2877 H   0  0  0  0  0  0  0  0  0  0  0  0
   21.8006    8.5388    9.3386 H   0  0  0  0  0  0  0  0  0  0  0  0
   19.2006    4.5042   10.3254 H   0  0  0  0  0  0  0  0  0  0  0  0
   18.8696    4.0471    8.6444 H   0  0  0  0  0  0  0  0  0  0  0  0
   17.3112    6.1341   10.2472 H   0  0  0  0  0  0  0  0  0  0  0  0
   16.7537    4.5032    9.8605 H   0  0  0  0  0  0  0  0  0  0  0  0
   16.9884    5.6863    8.5691 H   0  0  0  0  0  0  0  0  0  0  0  0
   24.1993   12.4979    4.4172 H   0  0  0  0  0  0  0  0  0  0  0  0
   23.7455   11.5915   -0.9056 H   0  0  0  0  0  0  0  0  0  0  0  0
   24.6738   13.0297   -0.4414 H   0  0  0  0  0  0  0  0  0  0  0  0
   21.6201   12.8509   -0.5435 H   0  0  0  0  0  0  0  0  0  0  0  0
   22.6421   13.6519   -1.7434 H   0  0  0  0  0  0  0  0  0  0  0  0
   22.5471   14.2866   -0.0973 H   0  0  0  0  0  0  0  0  0  0  0  0
   31.8412    8.0778    9.3643 H   0  0  0  0  0  0  0  0  0  0  0  0
   32.4696    6.5059   11.3365 H   0  0  0  0  0  0  0  0  0  0  0  0
   34.2040    6.3179   13.2586 H   0  0  0  0  0  0  0  0  0  0  0  0
   35.0701    7.8174   13.6287 H   0  0  0  0  0  0  0  0  0  0  0  0
   36.0148    5.6861   11.6522 H   0  0  0  0  0  0  0  0  0  0  0  0
   36.6726    5.9613   13.2694 H   0  0  0  0  0  0  0  0  0  0  0  0
   36.8611    7.1928   12.0155 H   0  0  0  0  0  0  0  0  0  0  0  0
   35.1091   14.5565    6.1297 H   0  0  0  0  0  0  0  0  0  0  0  0
   34.4566   16.1120    4.1515 H   0  0  0  0  0  0  0  0  0  0  0  0
   31.8078   14.8486    1.9478 H   0  0  0  0  0  0  0  0  0  0  0  0
   32.6366   16.3645    2.3338 H   0  0  0  0  0  0  0  0  0  0  0  0
   29.9951   15.4125    3.5549 H   0  0  0  0  0  0  0  0  0  0  0  0
   30.1631   16.6670    2.3217 H   0  0  0  0  0  0  0  0  0  0  0  0
   30.8050   16.9318    3.9468 H   0  0  0  0  0  0  0  0  0  0  0  0
   40.1613   15.4441    7.6780 H   0  0  0  0  0  0  0  0  0  0  0  0
   37.6752   14.8610    7.1238 H   0  0  0  0  0  0  0  0  0  0  0  0
   41.8304   11.5663    9.9530 H   0  0  0  0  0  0  0  0  0  0  0  0
   47.9606   15.1350   10.9078 H   0  0  0  0  0  0  0  0  0  0  0  0
   49.8779   11.0038   12.4474 H   0  0  0  0  0  0  0  0  0  0  0  0
   52.3164   11.6273   13.1572 H   0  0  0  0  0  0  0  0  0  0  0  0
   45.2765   10.2287   12.9112 H   0  0  0  0  0  0  0  0  0  0  0  0
   42.2483    6.9367    9.8634 H   0  0  0  0  0  0  0  0  0  0  0  0
   43.0533    6.1844   11.2533 H   0  0  0  0  0  0  0  0  0  0  0  0
   44.3695    6.7831    8.5555 H   0  0  0  0  0  0  0  0  0  0  0  0
   43.8471    5.1893    9.1129 H   0  0  0  0  0  0  0  0  0  0  0  0
   45.1672    6.0253    9.9375 H   0  0  0  0  0  0  0  0  0  0  0  0
   46.5069   16.7611   11.7014 H   0  0  0  0  0  0  0  0  0  0  0  0
   45.7163   19.3464    7.0072 H   0  0  0  0  0  0  0  0  0  0  0  0
   46.3981   20.3208    8.3230 H   0  0  0  0  0  0  0  0  0  0  0  0
   43.4364   19.6251    7.9865 H   0  0  0  0  0  0  0  0  0  0  0  0
   44.1707   21.1910    7.6194 H   0  0  0  0  0  0  0  0  0  0  0  0
   44.1154   20.6091    9.2866 H   0  0  0  0  0  0  0  0  0  0  0  0
   55.1641   11.7982   13.1701 H   0  0  0  0  0  0  0  0  0  0  0  0
   56.2629    9.5066   13.7142 H   0  0  0  0  0  0  0  0  0  0  0  0
   58.2297    8.5221   15.1052 H   0  0  0  0  0  0  0  0  0  0  0  0
   58.9768    9.6302   16.2679 H   0  0  0  0  0  0  0  0  0  0  0  0
   59.8201    9.3211   13.3460 H   0  0  0  0  0  0  0  0  0  0  0  0
   60.6906    8.6811   14.7446 H   0  0  0  0  0  0  0  0  0  0  0  0
   60.5505   10.4277   14.5120 H   0  0  0  0  0  0  0  0  0  0  0  0
   56.9963   19.3622   14.7266 H   0  0  0  0  0  0  0  0  0  0  0  0
   55.8671   21.6469   14.2118 H   0  0  0  0  0  0  0  0  0  0  0  0
   53.1949   21.5629   11.6782 H   0  0  0  0  0  0  0  0  0  0  0  0
   53.8312   22.6226   12.9459 H   0  0  0  0  0  0  0  0  0  0  0  0
   51.5500   20.6083   13.2811 H   0  0  0  0  0  0  0  0  0  0  0  0
   51.3613   22.3602   13.1474 H   0  0  0  0  0  0  0  0  0  0  0  0
   52.1690   21.6619   14.5557 H   0  0  0  0  0  0  0  0  0  0  0  0
   63.5607   18.0398   16.4006 H   0  0  0  0  0  0  0  0  0  0  0  0
   62.1698   20.1779   15.8044 H   0  0  0  0  0  0  0  0  0  0  0  0
   59.7611   19.5468   15.0035 H   0  0  0  0  0  0  0  0  0  0  0  0
  1  6  2  0  0  0  0
  2  1  1  0  0  0  0
  3  2  2  0  0  0  0
  3  4  1  0  0  0  0
  4 10  1  0  0  0  0
  4  5  2  0  0  0  0
  5  6  1  0  0  0  0
  5 12  1  0  0  0  0
  6 14  1  0  0  0  0
  7  1  1  0  0  0  0
  7193  1  0  0  0  0
  8  7  2  0  0  0  0
  9  8  1  0  0  0  0
  9  2  1  0  0  0  0
 10 11  2  0  0  0  0
 11 15  1  0  0  0  0
 11 12  1  0  0  0  0
 13  3  1  0  0  0  0
 14 23  1  0  0  0  0
 14 20  2  0  0  0  0
 15 16  2  0  0  0  0
 16 17  1  0  0  0  0
 16196  1  0  0  0  0
 17197  1  0  0  0  0
 18 17  2  0  0  0  0
 19 15  1  0  0  0  0
 19 18  1  0  0  0  0
 20198  1  0  0  0  0
 20 21  1  0  0  0  0
 21 63  1  0  0  0  0
 22 21  2  0  0  0  0
 22 24  1  0  0  0  0
 23 22  1  0  0  0  0
 24 25  1  0  0  0  0
 24200  1  0  0  0  0
 25202  1  0  0  0  0
 25203  1  0  0  0  0
 26 13  2  0  0  0  0
 26204  1  0  0  0  0
 27 26  1  0  0  0  0
 28 29  1  0  0  0  0
 28 27  2  0  0  0  0
 29 13  1  0  0  0  0
 30 28  1  0  0  0  0
 31207  1  0  0  0  0
 31209  1  0  0  0  0
 31 30  1  0  0  0  0
 32 18  1  0  0  0  0
 32 33  2  0  0  0  0
 34 33  1  0  0  0  0
 34 37  2  0  0  0  0
 35 34  1  0  0  0  0
 36 35  1  0  0  0  0
 36 32  1  0  0  0  0
 37 44  1  0  0  0  0
 38 37  1  0  0  0  0
 38 41  1  0  0  0  0
 39 38  2  0  0  0  0
 40 35  2  0  0  0  0
 40 39  1  0  0  0  0
 42 41  1  0  0  0  0
 43 39  1  0  0  0  0
 43 42  2  0  0  0  0
 44 45  2  0  0  0  0
 44 48  1  0  0  0  0
 45 46  1  0  0  0  0
 46 47  2  0  0  0  0
 46211  1  0  0  0  0
 47 49  1  0  0  0  0
 48 47  1  0  0  0  0
 49 50  1  0  0  0  0
 49213  1  0  0  0  0
 49212  1  0  0  0  0
 50215  1  0  0  0  0
 51 40  1  0  0  0  0
 52217  1  0  0  0  0
 52 51  2  0  0  0  0
 53 52  1  0  0  0  0
 54 53  2  0  0  0  0
 54 55  1  0  0  0  0
 55 51  1  0  0  0  0
 56 54  1  0  0  0  0
 57 56  1  0  0  0  0
 57223  1  0  0  0  0
 57221  1  0  0  0  0
 58 42  1  0  0  0  0
 58 59  1  0  0  0  0
 60 72  1  0  0  0  0
 60 59  1  0  0  0  0
 61 60  2  0  0  0  0
 62 61  1  0  0  0  0
 62 58  2  0  0  0  0
 64 27  1  0  0  0  0
 65 70  2  0  0  0  0
 66 65  1  0  0  0  0
 67 66  2  0  0  0  0
 67 68  1  0  0  0  0
 68 74  1  0  0  0  0
 68 69  2  0  0  0  0
 69 70  1  0  0  0  0
 69 76  1  0  0  0  0
 70 78  1  0  0  0  0
 71 65  1  0  0  0  0
 71226  1  0  0  0  0
 72 71  2  0  0  0  0
 73 72  1  0  0  0  0
 73 66  1  0  0  0  0
 74 75  2  0  0  0  0
 75 79  1  0  0  0  0
 75 76  1  0  0  0  0
 77 90  2  0  0  0  0
 77 67  1  0  0  0  0
 78 84  2  0  0  0  0
 79 80  2  0  0  0  0
 80 81  1  0  0  0  0
 80228  1  0  0  0  0
 81229  1  0  0  0  0
 82 81  2  0  0  0  0
 83 79  1  0  0  0  0
 83 82  1  0  0  0  0
 84230  1  0  0  0  0
 84 85  1  0  0  0  0
 85127  1  0  0  0  0
 86 88  1  0  0  0  0
 86 85  2  0  0  0  0
 87 78  1  0  0  0  0
 87 86  1  0  0  0  0
 88 89  1  0  0  0  0
 88231  1  0  0  0  0
 89234  1  0  0  0  0
 89233  1  0  0  0  0
 90236  1  0  0  0  0
 91 90  1  0  0  0  0
 92 93  1  0  0  0  0
 92 91  2  0  0  0  0
 93 77  1  0  0  0  0
 94 92  1  0  0  0  0
 95239  1  0  0  0  0
 95 94  1  0  0  0  0
 95241  1  0  0  0  0
 96 82  1  0  0  0  0
 96 97  2  0  0  0  0
 98 97  1  0  0  0  0
 98101  2  0  0  0  0
 99 98  1  0  0  0  0
100 99  1  0  0  0  0
100 96  1  0  0  0  0
101108  1  0  0  0  0
102101  1  0  0  0  0
102105  1  0  0  0  0
103102  2  0  0  0  0
104 99  2  0  0  0  0
104103  1  0  0  0  0
106122  1  0  0  0  0
106105  1  0  0  0  0
107103  1  0  0  0  0
107106  2  0  0  0  0
108109  2  0  0  0  0
108112  1  0  0  0  0
109110  1  0  0  0  0
110243  1  0  0  0  0
110111  2  0  0  0  0
111113  1  0  0  0  0
112111  1  0  0  0  0
113244  1  0  0  0  0
113245  1  0  0  0  0
114113  1  0  0  0  0
114247  1  0  0  0  0
115104  1  0  0  0  0
116115  2  0  0  0  0
116249  1  0  0  0  0
117116  1  0  0  0  0
118117  2  0  0  0  0
118119  1  0  0  0  0
119115  1  0  0  0  0
120121  1  0  0  0  0
120118  1  0  0  0  0
121253  1  0  0  0  0
121255  1  0  0  0  0
122123  1  0  0  0  0
124123  1  0  0  0  0
124136  1  0  0  0  0
125124  2  0  0  0  0
126125  1  0  0  0  0
126122  2  0  0  0  0
128 91  1  0  0  0  0
129134  1  0  0  0  0
130129  2  0  0  0  0
130131  1  0  0  0  0
131132  2  0  0  0  0
132133  1  0  0  0  0
132138  1  0  0  0  0
133140  1  0  0  0  0
134142  1  0  0  0  0
134133  2  0  0  0  0
135258  1  0  0  0  0
135129  1  0  0  0  0
136135  2  0  0  0  0
137136  1  0  0  0  0
137130  1  0  0  0  0
138139  2  0  0  0  0
139140  1  0  0  0  0
139143  1  0  0  0  0
141131  1  0  0  0  0
141154  2  0  0  0  0
142148  2  0  0  0  0
143147  1  0  0  0  0
143144  2  0  0  0  0
144260  1  0  0  0  0
144145  1  0  0  0  0
145261  1  0  0  0  0
146145  2  0  0  0  0
146160  1  0  0  0  0
147146  1  0  0  0  0
148262  1  0  0  0  0
149148  1  0  0  0  0
149191  1  0  0  0  0
150149  2  0  0  0  0
151150  1  0  0  0  0
151142  1  0  0  0  0
152150  1  0  0  0  0
152264  1  0  0  0  0
153267  1  0  0  0  0
153152  1  0  0  0  0
154268  1  0  0  0  0
155154  1  0  0  0  0
155192  1  0  0  0  0
156155  2  0  0  0  0
157156  1  0  0  0  0
157141  1  0  0  0  0
158159  1  0  0  0  0
158270  1  0  0  0  0
158156  1  0  0  0  0
159273  1  0  0  0  0
160161  2  0  0  0  0
161162  1  0  0  0  0
162165  1  0  0  0  0
163162  2  0  0  0  0
163168  1  0  0  0  0
164160  1  0  0  0  0
164163  1  0  0  0  0
165172  1  0  0  0  0
165166  2  0  0  0  0
166169  1  0  0  0  0
167166  1  0  0  0  0
167171  1  0  0  0  0
168167  2  0  0  0  0
170169  1  0  0  0  0
170186  1  0  0  0  0
171170  2  0  0  0  0
172176  1  0  0  0  0
173174  1  0  0  0  0
173172  2  0  0  0  0
174175  2  0  0  0  0
175176  1  0  0  0  0
175177  1  0  0  0  0
177277  1  0  0  0  0
178280  1  0  0  0  0
178279  1  0  0  0  0
178177  1  0  0  0  0
179168  1  0  0  0  0
179180  2  0  0  0  0
180281  1  0  0  0  0
181180  1  0  0  0  0
181282  1  0  0  0  0
182181  2  0  0  0  0
183182  1  0  0  0  0
183179  1  0  0  0  0
184284  1  0  0  0  0
184182  1  0  0  0  0
184185  1  0  0  0  0
185287  1  0  0  0  0
186190  2  0  0  0  0
186187  1  0  0  0  0
187188  1  0  0  0  0
188288  1  0  0  0  0
189289  1  0  0  0  0
189188  2  0  0  0  0
190189  1  0  0  0  0
194  8  1  0  0  0  0
195 10  1  0  0  0  0
199 24  1  0  0  0  0
201 25  1  0  0  0  0
205 30  1  0  0  0  0
206 30  1  0  0  0  0
208 31  1  0  0  0  0
210 45  1  0  0  0  0
214 50  1  0  0  0  0
216 50  1  0  0  0  0
218 53  1  0  0  0  0
219 56  1  0  0  0  0
220 56  1  0  0  0  0
222 57  1  0  0  0  0
224 61  1  0  0  0  0
225 62  1  0  0  0  0
227 74  1  0  0  0  0
232 88  1  0  0  0  0
235 89  1  0  0  0  0
237 94  1  0  0  0  0
238 94  1  0  0  0  0
240 95  1  0  0  0  0
242109  1  0  0  0  0
246114  1  0  0  0  0
248114  1  0  0  0  0
250117  1  0  0  0  0
251120  1  0  0  0  0
252120  1  0  0  0  0
254121  1  0  0  0  0
256125  1  0  0  0  0
257126  1  0  0  0  0
259138  1  0  0  0  0
263152  1  0  0  0  0
265153  1  0  0  0  0
266153  1  0  0  0  0
269158  1  0  0  0  0
271159  1  0  0  0  0
272159  1  0  0  0  0
274173  1  0  0  0  0
275174  1  0  0  0  0
276177  1  0  0  0  0
278178  1  0  0  0  0
283184  1  0  0  0  0
285185  1  0  0  0  0
286185  1  0  0  0  0
290190  1  0  0  0  0
M  END
