SCF done       -514.705073991220          0.000279563461
 OpenBabel12282109573D

290326  0  0  1  0  0  0  0  0999 V2000
   19.6386   17.8765    4.7718 C   0  0  0  0  0  0  0  0  0  0  0  0
   20.0676   17.3280    3.5407 C   0  0  0  0  0  0  0  0  0  0  0  0
   19.4053   16.2853    2.8967 C   0  0  0  0  0  0  0  0  0  0  0  0
   18.2842   15.7529    3.5616 C   0  0  0  0  0  0  0  0  0  0  0  0
   17.8573   16.2995    4.7969 C   0  0  0  0  0  0  0  0  0  0  0  0
   18.4910   17.3730    5.4112 C   0  0  0  0  0  0  0  0  0  0  0  0
   20.5010   18.9251    5.2085 C   0  0  0  0  0  0  0  0  0  0  0  0
   21.5037   19.1764    4.3434 C   0  0  0  0  0  0  0  0  0  0  0  0
   21.4814   18.1573    2.9471 S   0  0  0  0  0  0  0  0  0  0  0  0
   17.4605   14.6760    3.1561 C   0  0  0  0  0  0  0  0  0  0  0  0
   16.4251   14.4212    4.0059 C   0  0  0  0  0  0  0  0  0  0  0  0
   16.4269   15.4950    5.3881 S   0  0  0  0  0  0  0  0  0  0  0  0
   19.8410   15.7950    1.6048 C   0  0  0  0  0  0  0  0  0  0  0  0
   17.9892   17.9706    6.6338 C   0  0  0  0  0  0  0  0  0  0  0  0
   15.4090   13.4408    3.8253 C   0  0  0  0  0  0  0  0  0  0  0  0
   14.3383   13.1353    4.6365 C   0  0  0  0  0  0  0  0  0  0  0  0
   13.5051   12.1508    4.1024 C   0  0  0  0  0  0  0  0  0  0  0  0
   13.9313   11.6920    2.8748 C   0  0  0  0  0  0  0  0  0  0  0  0
   15.3933   12.4804    2.3776 S   0  0  0  0  0  0  0  0  0  0  0  0
   17.8545   19.2984    6.9230 C   0  0  0  0  0  0  0  0  0  0  0  0
   17.3184   19.5055    8.2091 C   0  0  0  0  0  0  0  0  0  0  0  0
   17.0498   18.3739    8.9194 C   0  0  0  0  0  0  0  0  0  0  0  0
   17.4556   16.9867    7.9680 S   0  0  0  0  0  0  0  0  0  0  0  0
   16.4621   18.2516   10.2825 C   0  0  0  0  0  0  0  0  0  0  0  0
   15.0635   17.6350   10.2319 C   0  0  0  0  0  0  0  0  0  0  0  0
   21.1197   15.6237    1.1539 C   0  0  0  0  0  0  0  0  0  0  0  0
   21.1548   15.1479   -0.1711 C   0  0  0  0  0  0  0  0  0  0  0  0
   19.9399   14.9659   -0.7623 C   0  0  0  0  0  0  0  0  0  0  0  0
   18.6918   15.3897    0.3561 S   0  0  0  0  0  0  0  0  0  0  0  0
   19.6339   14.4524   -2.1267 C   0  0  0  0  0  0  0  0  0  0  0  0
   18.8620   13.1330   -2.0718 C   0  0  0  0  0  0  0  0  0  0  0  0
   13.2954   10.7568    2.0147 C   0  0  0  0  0  0  0  0  0  0  0  0
   12.1725   10.1746    2.2562 N   0  0  0  0  0  0  0  0  0  0  0  0
   11.7477    9.4011    1.2300 C   0  0  0  0  0  0  0  0  0  0  0  0
   12.6175    9.3866    0.1064 C   0  0  0  0  0  0  0  0  0  0  0  0
   14.0059   10.3748    0.4388 S   0  0  0  0  0  0  0  0  0  0  0  0
   10.5225    8.6978    1.2206 C   0  0  0  0  0  0  0  0  0  0  0  0
   10.2265    8.0598    0.0161 C   0  0  0  0  0  0  0  0  0  0  0  0
   11.1005    8.0418   -1.1043 C   0  0  0  0  0  0  0  0  0  0  0  0
   12.3519    8.6937   -1.0728 C   0  0  0  0  0  0  0  0  0  0  0  0
    8.7607    7.2178   -0.3883 S   0  0  0  0  0  0  0  0  0  0  0  0
    9.4115    6.9623   -2.0144 C   0  0  0  0  0  0  0  0  0  0  0  0
   10.6027    7.4186   -2.1964 N   0  0  0  0  0  0  0  0  0  0  0  0
    9.6625    8.6846    2.3732 C   0  0  0  0  0  0  0  0  0  0  0  0
    9.9615    9.0782    3.6542 C   0  0  0  0  0  0  0  0  0  0  0  0
    8.8906    8.9317    4.5499 C   0  0  0  0  0  0  0  0  0  0  0  0
    7.7613    8.4318    3.9721 C   0  0  0  0  0  0  0  0  0  0  0  0
    8.0133    8.1203    2.2892 S   0  0  0  0  0  0  0  0  0  0  0  0
    6.4530    8.1139    4.6086 C   0  0  0  0  0  0  0  0  0  0  0  0
    6.2535    6.6024    4.7402 C   0  0  0  0  0  0  0  0  0  0  0  0
   13.2439    8.6517   -2.2008 C   0  0  0  0  0  0  0  0  0  0  0  0
   13.2178    7.7883   -3.2668 C   0  0  0  0  0  0  0  0  0  0  0  0
   14.2407    8.0209   -4.2010 C   0  0  0  0  0  0  0  0  0  0  0  0
   15.0549    9.0626   -3.8695 C   0  0  0  0  0  0  0  0  0  0  0  0
   14.5674    9.7753   -2.3693 S   0  0  0  0  0  0  0  0  0  0  0  0
   16.2391    9.5917   -4.6025 C   0  0  0  0  0  0  0  0  0  0  0  0
   17.5215    9.4402   -3.7830 C   0  0  0  0  0  0  0  0  0  0  0  0
    8.6145    6.3972   -3.0466 C   0  0  0  0  0  0  0  0  0  0  0  0
    6.9336    6.0510   -2.7969 S   0  0  0  0  0  0  0  0  0  0  0  0
    6.7266    5.6726   -4.4816 C   0  0  0  0  0  0  0  0  0  0  0  0
    7.9193    5.7775   -5.1641 C   0  0  0  0  0  0  0  0  0  0  0  0
    8.9822    6.1839   -4.3580 C   0  0  0  0  0  0  0  0  0  0  0  0
   17.0954   20.7397    8.6994 F   0  0  0  0  0  0  0  0  0  0  0  0
   22.3129   14.8899   -0.8063 F   0  0  0  0  0  0  0  0  0  0  0  0
    3.1002    5.3923   -5.1562 C   0  0  0  0  0  0  0  0  0  0  0  0
    3.4430    5.4486   -6.5298 C   0  0  0  0  0  0  0  0  0  0  0  0
    2.5076    5.5890   -7.5493 C   0  0  0  0  0  0  0  0  0  0  0  0
    1.1595    5.6880   -7.1515 C   0  0  0  0  0  0  0  0  0  0  0  0
    0.8124    5.5938   -5.7808 C   0  0  0  0  0  0  0  0  0  0  0  0
    1.7477    5.4429   -4.7652 C   0  0  0  0  0  0  0  0  0  0  0  0
    4.2478    5.3731   -4.3273 C   0  0  0  0  0  0  0  0  0  0  0  0
    5.4236    5.4587   -5.0143 C   0  0  0  0  0  0  0  0  0  0  0  0
    5.1721    5.4686   -6.7492 S   0  0  0  0  0  0  0  0  0  0  0  0
    0.0322    5.9709   -7.9560 C   0  0  0  0  0  0  0  0  0  0  0  0
   -1.1214    6.1502   -7.2489 C   0  0  0  0  0  0  0  0  0  0  0  0
   -0.8948    5.8607   -5.5371 S   0  0  0  0  0  0  0  0  0  0  0  0
    2.9296    5.7036   -8.9315 C   0  0  0  0  0  0  0  0  0  0  0  0
    1.3559    5.4027   -3.3688 C   0  0  0  0  0  0  0  0  0  0  0  0
   -2.3337    6.6995   -7.7546 C   0  0  0  0  0  0  0  0  0  0  0  0
   -3.4964    7.0127   -7.0849 C   0  0  0  0  0  0  0  0  0  0  0  0
   -4.3820    7.7798   -7.8448 C   0  0  0  0  0  0  0  0  0  0  0  0
   -3.9070    8.0587   -9.1080 C   0  0  0  0  0  0  0  0  0  0  0  0
   -2.3622    7.3175   -9.3792 S   0  0  0  0  0  0  0  0  0  0  0  0
    1.8889    6.0791   -2.3098 C   0  0  0  0  0  0  0  0  0  0  0  0
    1.2224    5.7791   -1.1050 C   0  0  0  0  0  0  0  0  0  0  0  0
    0.2009    4.8829   -1.2085 C   0  0  0  0  0  0  0  0  0  0  0  0
    0.0327    4.3902   -2.8581 S   0  0  0  0  0  0  0  0  0  0  0  0
   -0.7047    4.3796   -0.1384 C   0  0  0  0  0  0  0  0  0  0  0  0
   -2.1433    4.8477   -0.3611 C   0  0  0  0  0  0  0  0  0  0  0  0
    3.9210    5.0034   -9.5594 C   0  0  0  0  0  0  0  0  0  0  0  0
    4.0902    5.4089  -10.8975 C   0  0  0  0  0  0  0  0  0  0  0  0
    3.2716    6.4168  -11.3128 C   0  0  0  0  0  0  0  0  0  0  0  0
    2.2367    6.8858  -10.0098 S   0  0  0  0  0  0  0  0  0  0  0  0
    3.1839    7.0550  -12.6560 C   0  0  0  0  0  0  0  0  0  0  0  0
    1.7955    6.8830  -13.2729 C   0  0  0  0  0  0  0  0  0  0  0  0
   -4.4130    8.9828  -10.0625 C   0  0  0  0  0  0  0  0  0  0  0  0
   -5.3613    9.8255   -9.8415 N   0  0  0  0  0  0  0  0  0  0  0  0
   -5.4847   10.7489  -10.8238 C   0  0  0  0  0  0  0  0  0  0  0  0
   -4.5692   10.5911  -11.8989 C   0  0  0  0  0  0  0  0  0  0  0  0
   -3.5848    9.1892  -11.6146 S   0  0  0  0  0  0  0  0  0  0  0  0
   -6.3628   11.8537  -10.7617 C   0  0  0  0  0  0  0  0  0  0  0  0
   -6.1742   12.8017  -11.7676 C   0  0  0  0  0  0  0  0  0  0  0  0
   -5.2605   12.6407  -12.8437 C   0  0  0  0  0  0  0  0  0  0  0  0
   -4.4557   11.4858  -12.9616 C   0  0  0  0  0  0  0  0  0  0  0  0
   -6.9207   14.3676  -11.8785 S   0  0  0  0  0  0  0  0  0  0  0  0
   -5.9171   14.6926  -13.2993 C   0  0  0  0  0  0  0  0  0  0  0  0
   -5.1674   13.7106  -13.6657 N   0  0  0  0  0  0  0  0  0  0  0  0
   -7.3280   11.9772   -9.7037 C   0  0  0  0  0  0  0  0  0  0  0  0
   -7.7288   11.0121   -8.8126 C   0  0  0  0  0  0  0  0  0  0  0  0
   -8.7036   11.4572   -7.9061 C   0  0  0  0  0  0  0  0  0  0  0  0
   -9.0594   12.7614   -8.0850 C   0  0  0  0  0  0  0  0  0  0  0  0
   -8.1884   13.4651   -9.4037 S   0  0  0  0  0  0  0  0  0  0  0  0
  -10.0725   13.5605   -7.3415 C   0  0  0  0  0  0  0  0  0  0  0  0
  -11.3181   13.8097   -8.1947 C   0  0  0  0  0  0  0  0  0  0  0  0
   -3.5585   11.3097  -14.0714 C   0  0  0  0  0  0  0  0  0  0  0  0
   -3.5194   12.0174  -15.2472 C   0  0  0  0  0  0  0  0  0  0  0  0
   -2.5088   11.5926  -16.1247 C   0  0  0  0  0  0  0  0  0  0  0  0
   -1.7662   10.5574  -15.6398 C   0  0  0  0  0  0  0  0  0  0  0  0
   -2.3152   10.0854  -14.0679 S   0  0  0  0  0  0  0  0  0  0  0  0
   -0.6004    9.8711  -16.2634 C   0  0  0  0  0  0  0  0  0  0  0  0
    0.6996   10.2095  -15.5308 C   0  0  0  0  0  0  0  0  0  0  0  0
   -5.8781   15.9816  -13.8980 C   0  0  0  0  0  0  0  0  0  0  0  0
   -6.5967   17.3540  -13.1174 S   0  0  0  0  0  0  0  0  0  0  0  0
   -5.9275   18.4261  -14.3115 C   0  0  0  0  0  0  0  0  0  0  0  0
   -5.2247   17.7265  -15.2687 C   0  0  0  0  0  0  0  0  0  0  0  0
   -5.1919   16.3522  -15.0344 C   0  0  0  0  0  0  0  0  0  0  0  0
    1.5778    6.3396    0.0659 F   0  0  0  0  0  0  0  0  0  0  0  0
    5.0001    4.8365  -11.7073 F   0  0  0  0  0  0  0  0  0  0  0  0
   -6.4768   21.9227  -13.2234 C   0  0  0  0  0  0  0  0  0  0  0  0
   -5.7242   22.3058  -14.3607 C   0  0  0  0  0  0  0  0  0  0  0  0
   -5.3663   23.6218  -14.6366 C   0  0  0  0  0  0  0  0  0  0  0  0
   -5.8029   24.5987  -13.7184 C   0  0  0  0  0  0  0  0  0  0  0  0
   -6.5674   24.2149  -12.5882 C   0  0  0  0  0  0  0  0  0  0  0  0
   -6.9087   22.8984  -12.3043 C   0  0  0  0  0  0  0  0  0  0  0  0
   -6.6623   20.5207  -13.1589 C   0  0  0  0  0  0  0  0  0  0  0  0
   -6.0449   19.8372  -14.1653 C   0  0  0  0  0  0  0  0  0  0  0  0
   -5.2439   20.9130  -15.2936 S   0  0  0  0  0  0  0  0  0  0  0  0
   -5.5665   25.9941  -13.7416 C   0  0  0  0  0  0  0  0  0  0  0  0
   -6.0828   26.6579  -12.6643 C   0  0  0  0  0  0  0  0  0  0  0  0
   -6.9336   25.5837  -11.5770 S   0  0  0  0  0  0  0  0  0  0  0  0
   -4.5492   23.9363  -15.7914 C   0  0  0  0  0  0  0  0  0  0  0  0
   -7.6391   22.5367  -11.1052 C   0  0  0  0  0  0  0  0  0  0  0  0
   -5.9630   28.0437  -12.3544 C   0  0  0  0  0  0  0  0  0  0  0  0
   -5.2914   29.0189  -13.0638 C   0  0  0  0  0  0  0  0  0  0  0  0
   -5.3236   30.2690  -12.4494 C   0  0  0  0  0  0  0  0  0  0  0  0
   -6.0221   30.2699  -11.2590 C   0  0  0  0  0  0  0  0  0  0  0  0
   -6.6563   28.6968  -10.9017 S   0  0  0  0  0  0  0  0  0  0  0  0
   -7.3927   21.5089  -10.2401 C   0  0  0  0  0  0  0  0  0  0  0  0
   -8.3162   21.4834   -9.1768 C   0  0  0  0  0  0  0  0  0  0  0  0
   -9.2717   22.4551   -9.2085 C   0  0  0  0  0  0  0  0  0  0  0  0
   -9.0256   23.4600  -10.5944 S   0  0  0  0  0  0  0  0  0  0  0  0
  -10.3638   22.7159   -8.2301 C   0  0  0  0  0  0  0  0  0  0  0  0
  -10.1439   24.0368   -7.4914 C   0  0  0  0  0  0  0  0  0  0  0  0
   -4.6165   23.3794  -17.0373 C   0  0  0  0  0  0  0  0  0  0  0  0
   -3.6218   23.8821  -17.8980 C   0  0  0  0  0  0  0  0  0  0  0  0
   -2.7768   24.7977  -17.3459 C   0  0  0  0  0  0  0  0  0  0  0  0
   -3.2288   25.0717  -15.6986 S   0  0  0  0  0  0  0  0  0  0  0  0
   -1.6450   25.5232  -17.9873 C   0  0  0  0  0  0  0  0  0  0  0  0
   -1.9131   27.0265  -18.0651 C   0  0  0  0  0  0  0  0  0  0  0  0
   -6.2048   31.3718  -10.3851 C   0  0  0  0  0  0  0  0  0  0  0  0
   -5.6762   32.5474  -10.5829 N   0  0  0  0  0  0  0  0  0  0  0  0
   -6.0082   33.3510   -9.5686 C   0  0  0  0  0  0  0  0  0  0  0  0
   -6.7949   32.8350   -8.5754 C   0  0  0  0  0  0  0  0  0  0  0  0
   -7.1863   31.2053   -8.8908 S   0  0  0  0  0  0  0  0  0  0  0  0
   -5.9010   34.7258   -8.9507 C   0  0  1  0  0  0  0  0  0  0  0  0
   -7.0915   35.6046   -9.2353 C   0  0  0  0  0  0  0  0  0  0  0  0
   -7.9013   35.0819   -8.2675 C   0  0  0  0  0  0  0  0  0  0  0  0
   -6.8774   34.0960   -7.7548 C   0  0  1  0  0  0  0  0  0  0  0  0
   -7.9061   36.8082  -10.1318 S   0  0  0  0  0  0  0  0  0  0  0  0
   -9.3181   36.4909   -9.0627 C   0  0  0  0  0  0  0  0  0  0  0  0
   -9.1433   35.5683   -8.1645 N   0  0  0  0  0  0  0  0  0  0  0  0
   -4.5957   35.2773   -8.6241 C   0  0  0  0  0  0  0  0  0  0  0  0
   -3.3736   34.6940   -8.7793 C   0  0  0  0  0  0  0  0  0  0  0  0
   -2.3265   35.4710   -8.2415 C   0  0  0  0  0  0  0  0  0  0  0  0
   -2.7483   36.6276   -7.6634 C   0  0  0  0  0  0  0  0  0  0  0  0
   -4.4720   36.7916   -7.7802 S   0  0  0  0  0  0  0  0  0  0  0  0
   -1.9317   37.6997   -7.0281 C   0  0  0  0  0  0  0  0  0  0  0  0
   -1.8581   38.9434   -7.9161 C   0  0  0  0  0  0  0  0  0  0  0  0
   -6.4642   34.1331   -6.3611 C   0  0  0  0  0  0  0  0  0  0  0  0
   -6.8448   35.0165   -5.3951 C   0  0  0  0  0  0  0  0  0  0  0  0
   -6.1553   34.8257   -4.1798 C   0  0  0  0  0  0  0  0  0  0  0  0
   -5.2429   33.8178   -4.2240 C   0  0  0  0  0  0  0  0  0  0  0  0
   -5.2195   33.0647   -5.7869 S   0  0  0  0  0  0  0  0  0  0  0  0
   -4.3706   33.3072   -3.1294 C   0  0  0  0  0  0  0  0  0  0  0  0
   -4.9209   32.0034   -2.5469 C   0  0  0  0  0  0  0  0  0  0  0  0
  -10.5154   37.2329   -9.2371 C   0  0  0  0  0  0  0  0  0  0  0  0
  -11.8791   36.9479   -8.1997 S   0  0  0  0  0  0  0  0  0  0  0  0
  -12.7875   38.1471   -9.0253 C   0  0  0  0  0  0  0  0  0  0  0  0
  -12.0864   38.7308  -10.0364 C   0  0  0  0  0  0  0  0  0  0  0  0
  -10.7878   38.2121  -10.1615 C   0  0  0  0  0  0  0  0  0  0  0  0
   -8.2567   20.5577   -8.2014 F   0  0  0  0  0  0  0  0  0  0  0  0
   -3.5142   23.4794  -19.1774 F   0  0  0  0  0  0  0  0  0  0  0  0
   20.3763   19.4443    6.1406 H   0  0  0  0  0  0  0  0  0  0  0  0
   22.2857   19.9047    4.4333 H   0  0  0  0  0  0  0  0  0  0  0  0
   17.6204   14.0927    2.2684 H   0  0  0  0  0  0  0  0  0  0  0  0
   14.1716   13.6245    5.5799 H   0  0  0  0  0  0  0  0  0  0  0  0
   12.6121   11.7834    4.5731 H   0  0  0  0  0  0  0  0  0  0  0  0
   18.0814   20.0978    6.2423 H   0  0  0  0  0  0  0  0  0  0  0  0
   16.4138   19.2481   10.7267 H   0  0  0  0  0  0  0  0  0  0  0  0
   17.1084   17.6275   10.9051 H   0  0  0  0  0  0  0  0  0  0  0  0
   14.3983   18.2530    9.6333 H   0  0  0  0  0  0  0  0  0  0  0  0
   14.6536   17.5537   11.2351 H   0  0  0  0  0  0  0  0  0  0  0  0
   15.1061   16.6423    9.7892 H   0  0  0  0  0  0  0  0  0  0  0  0
   22.0041   15.7866    1.7404 H   0  0  0  0  0  0  0  0  0  0  0  0
   20.5776   14.3112   -2.6580 H   0  0  0  0  0  0  0  0  0  0  0  0
   19.0411   15.1924   -2.6714 H   0  0  0  0  0  0  0  0  0  0  0  0
   19.4403   12.3757   -1.5473 H   0  0  0  0  0  0  0  0  0  0  0  0
   18.6578   12.7777   -3.0784 H   0  0  0  0  0  0  0  0  0  0  0  0
   17.9161   13.2685   -1.5519 H   0  0  0  0  0  0  0  0  0  0  0  0
   10.9287    9.4546    3.9275 H   0  0  0  0  0  0  0  0  0  0  0  0
    8.9511    9.1899    5.5928 H   0  0  0  0  0  0  0  0  0  0  0  0
    5.6408    8.5284    4.0063 H   0  0  0  0  0  0  0  0  0  0  0  0
    6.4200    8.5782    5.5966 H   0  0  0  0  0  0  0  0  0  0  0  0
    6.2733    6.1353    3.7583 H   0  0  0  0  0  0  0  0  0  0  0  0
    5.2963    6.3878    5.2088 H   0  0  0  0  0  0  0  0  0  0  0  0
    7.0447    6.1674    5.3468 H   0  0  0  0  0  0  0  0  0  0  0  0
   12.4838    7.0105   -3.3575 H   0  0  0  0  0  0  0  0  0  0  0  0
   14.3712    7.4347   -5.0939 H   0  0  0  0  0  0  0  0  0  0  0  0
   16.0849   10.6506   -4.8291 H   0  0  0  0  0  0  0  0  0  0  0  0
   16.3352    9.0525   -5.5473 H   0  0  0  0  0  0  0  0  0  0  0  0
   17.4379    9.9920   -2.8493 H   0  0  0  0  0  0  0  0  0  0  0  0
   18.3737    9.8221   -4.3398 H   0  0  0  0  0  0  0  0  0  0  0  0
   17.6997    8.3928   -3.5506 H   0  0  0  0  0  0  0  0  0  0  0  0
    7.9983    5.5851   -6.2195 H   0  0  0  0  0  0  0  0  0  0  0  0
    9.9854    6.3497   -4.7041 H   0  0  0  0  0  0  0  0  0  0  0  0
    4.2132    5.3202   -3.2548 H   0  0  0  0  0  0  0  0  0  0  0  0
    0.0638    6.0849   -9.0235 H   0  0  0  0  0  0  0  0  0  0  0  0
   -3.6716    6.7192   -6.0650 H   0  0  0  0  0  0  0  0  0  0  0  0
   -5.3241    8.1547   -7.4899 H   0  0  0  0  0  0  0  0  0  0  0  0
    2.6858    6.7961   -2.3771 H   0  0  0  0  0  0  0  0  0  0  0  0
   -0.3375    4.7461    0.8225 H   0  0  0  0  0  0  0  0  0  0  0  0
   -0.6802    3.2867   -0.1223 H   0  0  0  0  0  0  0  0  0  0  0  0
   -2.1923    5.9342   -0.3631 H   0  0  0  0  0  0  0  0  0  0  0  0
   -2.7863    4.4720    0.4304 H   0  0  0  0  0  0  0  0  0  0  0  0
   -2.5138    4.4827   -1.3165 H   0  0  0  0  0  0  0  0  0  0  0  0
    4.4858    4.2072   -9.1118 H   0  0  0  0  0  0  0  0  0  0  0  0
    3.9394    6.5993  -13.2998 H   0  0  0  0  0  0  0  0  0  0  0  0
    3.4077    8.1221  -12.5689 H   0  0  0  0  0  0  0  0  0  0  0  0
    1.5526    5.8277  -13.3735 H   0  0  0  0  0  0  0  0  0  0  0  0
    1.7652    7.3411  -14.2577 H   0  0  0  0  0  0  0  0  0  0  0  0
    1.0410    7.3536  -12.6460 H   0  0  0  0  0  0  0  0  0  0  0  0
   -7.3272   10.0170   -8.8248 H   0  0  0  0  0  0  0  0  0  0  0  0
   -9.1304   10.8324   -7.1409 H   0  0  0  0  0  0  0  0  0  0  0  0
   -9.6411   14.5222   -7.0526 H   0  0  0  0  0  0  0  0  0  0  0  0
  -10.3489   13.0211   -6.4330 H   0  0  0  0  0  0  0  0  0  0  0  0
  -11.0513   14.3571   -9.0958 H   0  0  0  0  0  0  0  0  0  0  0  0
  -12.0476   14.3912   -7.6366 H   0  0  0  0  0  0  0  0  0  0  0  0
  -11.7731   12.8654   -8.4853 H   0  0  0  0  0  0  0  0  0  0  0  0
   -4.2053   12.8151  -15.4587 H   0  0  0  0  0  0  0  0  0  0  0  0
   -2.3381   12.0361  -17.0902 H   0  0  0  0  0  0  0  0  0  0  0  0
   -0.5274   10.1799  -17.3084 H   0  0  0  0  0  0  0  0  0  0  0  0
   -0.7542    8.7891  -16.2352 H   0  0  0  0  0  0  0  0  0  0  0  0
    0.8806   11.2816  -15.5582 H   0  0  0  0  0  0  0  0  0  0  0  0
    1.5405    9.7034  -15.9992 H   0  0  0  0  0  0  0  0  0  0  0  0
    0.6356    9.8967  -14.4911 H   0  0  0  0  0  0  0  0  0  0  0  0
   -4.7356   18.2123  -16.0945 H   0  0  0  0  0  0  0  0  0  0  0  0
   -4.6758   15.6389  -15.6494 H   0  0  0  0  0  0  0  0  0  0  0  0
   -7.2300   20.0255  -12.3927 H   0  0  0  0  0  0  0  0  0  0  0  0
   -5.0299   26.4926  -14.5260 H   0  0  0  0  0  0  0  0  0  0  0  0
   -4.7888   28.8242  -13.9934 H   0  0  0  0  0  0  0  0  0  0  0  0
   -4.8585   31.1568  -12.8355 H   0  0  0  0  0  0  0  0  0  0  0  0
   -6.5677   20.8256  -10.3186 H   0  0  0  0  0  0  0  0  0  0  0  0
  -10.3906   21.8894   -7.5168 H   0  0  0  0  0  0  0  0  0  0  0  0
  -11.3230   22.7511   -8.7532 H   0  0  0  0  0  0  0  0  0  0  0  0
   -9.2023   24.0150   -6.9477 H   0  0  0  0  0  0  0  0  0  0  0  0
  -10.9502   24.2085   -6.7833 H   0  0  0  0  0  0  0  0  0  0  0  0
  -10.1161   24.8636   -8.1977 H   0  0  0  0  0  0  0  0  0  0  0  0
   -5.3585   22.6698  -17.3518 H   0  0  0  0  0  0  0  0  0  0  0  0
   -1.5046   25.1173  -18.9913 H   0  0  0  0  0  0  0  0  0  0  0  0
   -0.7290   25.3506  -17.4157 H   0  0  0  0  0  0  0  0  0  0  0  0
   -2.8143   27.2222  -18.6418 H   0  0  0  0  0  0  0  0  0  0  0  0
   -1.0783   27.5314  -18.5438 H   0  0  0  0  0  0  0  0  0  0  0  0
   -2.0430   27.4378  -17.0663 H   0  0  0  0  0  0  0  0  0  0  0  0
   -3.2361   33.7487   -9.2727 H   0  0  0  0  0  0  0  0  0  0  0  0
   -1.2927   35.1760   -8.2787 H   0  0  0  0  0  0  0  0  0  0  0  0
   -0.9257   37.3140   -6.8502 H   0  0  0  0  0  0  0  0  0  0  0  0
   -2.3696   37.9731   -6.0648 H   0  0  0  0  0  0  0  0  0  0  0  0
   -1.4145   38.6955   -8.8777 H   0  0  0  0  0  0  0  0  0  0  0  0
   -1.2531   39.7114   -7.4406 H   0  0  0  0  0  0  0  0  0  0  0  0
   -2.8554   39.3416   -8.0882 H   0  0  0  0  0  0  0  0  0  0  0  0
   -7.6013   35.7641   -5.5520 H   0  0  0  0  0  0  0  0  0  0  0  0
   -6.3290   35.4224   -3.3019 H   0  0  0  0  0  0  0  0  0  0  0  0
   -4.3123   34.0645   -2.3447 H   0  0  0  0  0  0  0  0  0  0  0  0
   -3.3628   33.1313   -3.5133 H   0  0  0  0  0  0  0  0  0  0  0  0
   -5.9195   32.1609   -2.1459 H   0  0  0  0  0  0  0  0  0  0  0  0
   -4.2764   31.6457   -1.7478 H   0  0  0  0  0  0  0  0  0  0  0  0
   -4.9754   31.2398   -3.3195 H   0  0  0  0  0  0  0  0  0  0  0  0
  -13.7926   38.3526   -8.7147 H   0  0  0  0  0  0  0  0  0  0  0  0
  -12.4840   39.5036  -10.6694 H   0  0  0  0  0  0  0  0  0  0  0  0
  -10.0730   38.5364  -10.8965 H   0  0  0  0  0  0  0  0  0  0  0  0
  1  7  1  0  0  0  0
  1  6  2  0  0  0  0
  2  1  1  0  0  0  0
  3  2  2  0  0  0  0
  3  4  1  0  0  0  0
  4  5  2  0  0  0  0
  5 12  1  0  0  0  0
  5  6  1  0  0  0  0
  6 14  1  0  0  0  0
  7193  1  0  0  0  0
  8194  1  0  0  0  0
  8  7  2  0  0  0  0
  9  2  1  0  0  0  0
  9  8  1  0  0  0  0
 10  4  1  0  0  0  0
 10 11  2  0  0  0  0
 11 12  1  0  0  0  0
 13  3  1  0  0  0  0
 14 20  2  0  0  0  0
 14 23  1  0  0  0  0
 15 11  1  0  0  0  0
 15 16  2  0  0  0  0
 16196  1  0  0  0  0
 17197  1  0  0  0  0
 17 16  1  0  0  0  0
 18 17  2  0  0  0  0
 19 18  1  0  0  0  0
 19 15  1  0  0  0  0
 20 21  1  0  0  0  0
 21 63  1  0  0  0  0
 21 22  2  0  0  0  0
 22 24  1  0  0  0  0
 23 22  1  0  0  0  0
 24199  1  0  0  0  0
 24200  1  0  0  0  0
 25 24  1  0  0  0  0
 25202  1  0  0  0  0
 26 13  2  0  0  0  0
 26204  1  0  0  0  0
 27 26  1  0  0  0  0
 28 27  2  0  0  0  0
 28 29  1  0  0  0  0
 29 13  1  0  0  0  0
 30 31  1  0  0  0  0
 30 28  1  0  0  0  0
 31209  1  0  0  0  0
 31207  1  0  0  0  0
 32 33  2  0  0  0  0
 32 18  1  0  0  0  0
 34 33  1  0  0  0  0
 35 36  1  0  0  0  0
 35 34  2  0  0  0  0
 36 32  1  0  0  0  0
 37 34  1  0  0  0  0
 37 44  1  0  0  0  0
 38 37  2  0  0  0  0
 39 40  2  0  0  0  0
 39 38  1  0  0  0  0
 40 35  1  0  0  0  0
 41 38  1  0  0  0  0
 42 41  1  0  0  0  0
 43 42  2  0  0  0  0
 43 39  1  0  0  0  0
 44 45  2  0  0  0  0
 45210  1  0  0  0  0
 45 46  1  0  0  0  0
 46211  1  0  0  0  0
 47 46  2  0  0  0  0
 47 49  1  0  0  0  0
 48 44  1  0  0  0  0
 48 47  1  0  0  0  0
 49 50  1  0  0  0  0
 49213  1  0  0  0  0
 50215  1  0  0  0  0
 50216  1  0  0  0  0
 51 40  1  0  0  0  0
 52 51  2  0  0  0  0
 53 54  2  0  0  0  0
 53 52  1  0  0  0  0
 54 55  1  0  0  0  0
 55 51  1  0  0  0  0
 56 54  1  0  0  0  0
 56 57  1  0  0  0  0
 57223  1  0  0  0  0
 57221  1  0  0  0  0
 58 59  1  0  0  0  0
 58 42  1  0  0  0  0
 60 59  1  0  0  0  0
 61 60  2  0  0  0  0
 61 62  1  0  0  0  0
 62 58  2  0  0  0  0
 64 27  1  0  0  0  0
 65 70  1  0  0  0  0
 65 71  1  0  0  0  0
 66 65  2  0  0  0  0
 67 68  2  0  0  0  0
 67 66  1  0  0  0  0
 68 69  1  0  0  0  0
 69 76  1  0  0  0  0
 69 70  2  0  0  0  0
 70 78  1  0  0  0  0
 71226  1  0  0  0  0
 72 60  1  0  0  0  0
 72 71  2  0  0  0  0
 73 66  1  0  0  0  0
 73 72  1  0  0  0  0
 74 75  2  0  0  0  0
 74 68  1  0  0  0  0
 75 76  1  0  0  0  0
 77 67  1  0  0  0  0
 78 87  1  0  0  0  0
 78 84  2  0  0  0  0
 79 75  1  0  0  0  0
 79 80  2  0  0  0  0
 80228  1  0  0  0  0
 81229  1  0  0  0  0
 81 80  1  0  0  0  0
 82 81  2  0  0  0  0
 83 82  1  0  0  0  0
 83 79  1  0  0  0  0
 84 85  1  0  0  0  0
 85127  1  0  0  0  0
 86 85  2  0  0  0  0
 86 88  1  0  0  0  0
 87 86  1  0  0  0  0
 88232  1  0  0  0  0
 88231  1  0  0  0  0
 89 88  1  0  0  0  0
 89234  1  0  0  0  0
 90236  1  0  0  0  0
 90 77  2  0  0  0  0
 91 90  1  0  0  0  0
 92 91  2  0  0  0  0
 92 93  1  0  0  0  0
 93 77  1  0  0  0  0
 94238  1  0  0  0  0
 94 92  1  0  0  0  0
 95 94  1  0  0  0  0
 95241  1  0  0  0  0
 96 97  2  0  0  0  0
 96 82  1  0  0  0  0
 98101  1  0  0  0  0
 98 97  1  0  0  0  0
 99100  1  0  0  0  0
 99 98  2  0  0  0  0
100 96  1  0  0  0  0
101108  1  0  0  0  0
102101  2  0  0  0  0
103102  1  0  0  0  0
104103  2  0  0  0  0
104 99  1  0  0  0  0
105102  1  0  0  0  0
106105  1  0  0  0  0
107106  2  0  0  0  0
107103  1  0  0  0  0
108112  1  0  0  0  0
108109  2  0  0  0  0
109110  1  0  0  0  0
110243  1  0  0  0  0
111110  2  0  0  0  0
111113  1  0  0  0  0
112111  1  0  0  0  0
113244  1  0  0  0  0
113245  1  0  0  0  0
114247  1  0  0  0  0
114113  1  0  0  0  0
115119  1  0  0  0  0
115104  1  0  0  0  0
116115  2  0  0  0  0
117118  2  0  0  0  0
117116  1  0  0  0  0
118119  1  0  0  0  0
120252  1  0  0  0  0
120118  1  0  0  0  0
120121  1  0  0  0  0
121255  1  0  0  0  0
122106  1  0  0  0  0
122123  1  0  0  0  0
124136  1  0  0  0  0
124123  1  0  0  0  0
125126  1  0  0  0  0
125124  2  0  0  0  0
126122  2  0  0  0  0
128 91  1  0  0  0  0
129135  1  0  0  0  0
129134  2  0  0  0  0
130129  1  0  0  0  0
131130  2  0  0  0  0
131132  1  0  0  0  0
132133  2  0  0  0  0
133134  1  0  0  0  0
133140  1  0  0  0  0
134142  1  0  0  0  0
135258  1  0  0  0  0
136135  2  0  0  0  0
137130  1  0  0  0  0
137136  1  0  0  0  0
138132  1  0  0  0  0
138139  2  0  0  0  0
139143  1  0  0  0  0
139140  1  0  0  0  0
141157  1  0  0  0  0
141131  1  0  0  0  0
142151  1  0  0  0  0
142148  2  0  0  0  0
143147  1  0  0  0  0
144145  1  0  0  0  0
144143  2  0  0  0  0
145146  2  0  0  0  0
146147  1  0  0  0  0
146160  1  0  0  0  0
148149  1  0  0  0  0
149191  1  0  0  0  0
150149  2  0  0  0  0
150152  1  0  0  0  0
151150  1  0  0  0  0
152263  1  0  0  0  0
152153  1  0  0  0  0
153265  1  0  0  0  0
153266  1  0  0  0  0
154141  2  0  0  0  0
155156  2  0  0  0  0
155154  1  0  0  0  0
156157  1  0  0  0  0
158270  1  0  0  0  0
158156  1  0  0  0  0
159158  1  0  0  0  0
159273  1  0  0  0  0
160164  1  0  0  0  0
161160  2  0  0  0  0
161162  1  0  0  0  0
162165  1  0  0  0  0
162163  2  0  0  0  0
163168  1  0  0  0  0
164163  1  0  0  0  0
165172  1  0  0  0  0
165168  1  1  0  0  0
166165  1  0  0  0  0
166167  2  0  0  0  0
167171  1  0  0  0  0
167168  1  0  0  0  0
168179  1  1  0  0  0
169166  1  0  0  0  0
169170  1  0  0  0  0
170171  2  0  0  0  0
172176  1  0  0  0  0
173172  2  0  0  0  0
173174  1  0  0  0  0
174175  2  0  0  0  0
175177  1  0  0  0  0
176175  1  0  0  0  0
177276  1  0  0  0  0
177277  1  0  0  0  0
178279  1  0  0  0  0
178177  1  0  0  0  0
179183  1  0  0  0  0
179180  2  0  0  0  0
180181  1  0  0  0  0
181282  1  0  0  0  0
182181  2  0  0  0  0
182184  1  0  0  0  0
183182  1  0  0  0  0
184185  1  0  0  0  0
184283  1  0  0  0  0
185285  1  0  0  0  0
185286  1  0  0  0  0
186170  1  0  0  0  0
186187  1  0  0  0  0
188288  1  0  0  0  0
188187  1  0  0  0  0
189188  2  0  0  0  0
190189  1  0  0  0  0
190186  2  0  0  0  0
192155  1  0  0  0  0
195 10  1  0  0  0  0
198 20  1  0  0  0  0
201 25  1  0  0  0  0
203 25  1  0  0  0  0
205 30  1  0  0  0  0
206 30  1  0  0  0  0
208 31  1  0  0  0  0
212 49  1  0  0  0  0
214 50  1  0  0  0  0
217 52  1  0  0  0  0
218 53  1  0  0  0  0
219 56  1  0  0  0  0
220 56  1  0  0  0  0
222 57  1  0  0  0  0
224 61  1  0  0  0  0
225 62  1  0  0  0  0
227 74  1  0  0  0  0
230 84  1  0  0  0  0
233 89  1  0  0  0  0
235 89  1  0  0  0  0
237 94  1  0  0  0  0
239 95  1  0  0  0  0
240 95  1  0  0  0  0
242109  1  0  0  0  0
246114  1  0  0  0  0
248114  1  0  0  0  0
249116  1  0  0  0  0
250117  1  0  0  0  0
251120  1  0  0  0  0
253121  1  0  0  0  0
254121  1  0  0  0  0
256125  1  0  0  0  0
257126  1  0  0  0  0
259138  1  0  0  0  0
260144  1  0  0  0  0
261145  1  0  0  0  0
262148  1  0  0  0  0
264152  1  0  0  0  0
267153  1  0  0  0  0
268154  1  0  0  0  0
269158  1  0  0  0  0
271159  1  0  0  0  0
272159  1  0  0  0  0
274173  1  0  0  0  0
275174  1  0  0  0  0
278178  1  0  0  0  0
280178  1  0  0  0  0
281180  1  0  0  0  0
284184  1  0  0  0  0
287185  1  0  0  0  0
289189  1  0  0  0  0
290190  1  0  0  0  0
M  END
