SCF done       -355.096719233606          0.000951462245
 OpenBabel12282109573D

212235  0  0  0  0  0  0  0  0999 V2000
    3.9830    1.4845   -5.9411 C   0  0  0  0  0  0  0  0  0  0  0  0
    2.7626    1.0301   -6.4727 C   0  0  0  0  0  0  0  0  0  0  0  0
    1.7998    0.4265   -5.6312 C   0  0  0  0  0  0  0  0  0  0  0  0
    1.9853    0.2349   -4.2642 C   0  0  0  0  0  0  0  0  0  0  0  0
    3.2339    0.6295   -3.7448 C   0  0  0  0  0  0  0  0  0  0  0  0
    4.1950    1.2378   -4.5886 C   0  0  0  0  0  0  0  0  0  0  0  0
    2.3183    1.0826   -7.8270 C   0  0  0  0  0  0  0  0  0  0  0  0
    1.0776    0.5826   -7.9938 C   0  0  0  0  0  0  0  0  0  0  0  0
    0.3638    0.0046   -6.5290 S   0  0  0  0  0  0  0  0  0  0  0  0
    3.7080    0.4775   -2.4181 C   0  0  0  0  0  0  0  0  0  0  0  0
    4.9683    0.9594   -2.2283 C   0  0  0  0  0  0  0  0  0  0  0  0
    5.6311    1.6536   -3.7026 S   0  0  0  0  0  0  0  0  0  0  0  0
    4.9458    2.2004   -6.7539 C   0  0  0  0  0  0  0  0  0  0  0  0
    0.9337   -0.3190   -3.4372 C   0  0  0  0  0  0  0  0  0  0  0  0
    4.7057    3.1695   -7.6876 C   0  0  0  0  0  0  0  0  0  0  0  0
    5.8800    3.6867   -8.2696 C   0  0  0  0  0  0  0  0  0  0  0  0
    7.0182    3.1129   -7.7929 C   0  0  0  0  0  0  0  0  0  0  0  0
    6.6559    1.9154   -6.5940 S   0  0  0  0  0  0  0  0  0  0  0  0
    0.0665   -1.3316   -3.7400 C   0  0  0  0  0  0  0  0  0  0  0  0
   -0.8828   -1.5752   -2.7290 C   0  0  0  0  0  0  0  0  0  0  0  0
   -0.7632   -0.7421   -1.6591 C   0  0  0  0  0  0  0  0  0  0  0  0
    0.5595    0.3550   -1.8745 S   0  0  0  0  0  0  0  0  0  0  0  0
    8.4339    3.4310   -8.1306 C   0  0  0  0  0  0  0  0  0  0  0  0
    9.0989    4.2305   -7.0075 C   0  0  0  0  0  0  0  0  0  0  0  0
   -1.5786   -0.7090   -0.4125 C   0  0  0  0  0  0  0  0  0  0  0  0
   -0.7815   -1.2140    0.7915 C   0  0  0  0  0  0  0  0  0  0  0  0
    5.7802    1.0386   -1.0543 C   0  0  0  0  0  0  0  0  0  0  0  0
    6.9541    2.3199   -1.0293 S   0  0  0  0  0  0  0  0  0  0  0  0
    7.5398    1.8667    0.5476 C   0  0  0  0  0  0  0  0  0  0  0  0
    6.8349    0.7681    1.0218 C   0  0  0  0  0  0  0  0  0  0  0  0
    5.8485    0.2823    0.1045 C   0  0  0  0  0  0  0  0  0  0  0  0
    7.0663    0.1614    2.3259 C   0  0  0  0  0  0  0  0  0  0  0  0
    6.3414   -1.0827    2.5567 C   0  0  0  0  0  0  0  0  0  0  0  0
    5.4208   -1.6234    1.6046 C   0  0  0  0  0  0  0  0  0  0  0  0
    5.0894   -0.9509    0.3463 C   0  0  0  0  0  0  0  0  0  0  0  0
    6.4686   -1.8573    3.6835 C   0  0  0  0  0  0  0  0  0  0  0  0
    5.4828   -3.2731    3.5660 S   0  0  0  0  0  0  0  0  0  0  0  0
    4.8816   -2.8196    2.0069 C   0  0  0  0  0  0  0  0  0  0  0  0
    7.8147    0.6466    3.1670 O   0  0  0  0  0  0  0  0  0  0  0  0
    4.2619   -1.4000   -0.4311 O   0  0  0  0  0  0  0  0  0  0  0  0
    7.3351   -1.6450    4.8722 C   0  0  0  0  0  0  0  0  0  0  0  0
    8.7777   -2.0691    4.5816 C   0  0  0  0  0  0  0  0  0  0  0  0
    3.8863   -3.6816    1.3181 C   0  0  0  0  0  0  0  0  0  0  0  0
    2.4640   -3.1605    1.5414 C   0  0  0  0  0  0  0  0  0  0  0  0
   11.1698    5.2634    0.5463 C   0  0  0  0  0  0  0  0  0  0  0  0
   10.3514    4.2058    1.0036 C   0  0  0  0  0  0  0  0  0  0  0  0
   10.6077    3.5708    2.2424 C   0  0  0  0  0  0  0  0  0  0  0  0
   11.6790    3.9218    3.0625 C   0  0  0  0  0  0  0  0  0  0  0  0
   12.5476    4.9150    2.5678 C   0  0  0  0  0  0  0  0  0  0  0  0
   12.2727    5.5608    1.3342 C   0  0  0  0  0  0  0  0  0  0  0  0
    9.2471    3.6252    0.3520 C   0  0  0  0  0  0  0  0  0  0  0  0
    8.6361    2.6182    1.0601 C   0  0  0  0  0  0  0  0  0  0  0  0
    9.4174    2.3481    2.6006 S   0  0  0  0  0  0  0  0  0  0  0  0
   13.7521    5.3768    3.1491 C   0  0  0  0  0  0  0  0  0  0  0  0
   14.3794    6.3447    2.4231 C   0  0  0  0  0  0  0  0  0  0  0  0
   13.4776    6.7641    0.9739 S   0  0  0  0  0  0  0  0  0  0  0  0
   10.8432    5.9847   -0.6642 C   0  0  0  0  0  0  0  0  0  0  0  0
   11.8565    3.2983    4.3567 C   0  0  0  0  0  0  0  0  0  0  0  0
    9.6043    6.3609   -1.1070 C   0  0  0  0  0  0  0  0  0  0  0  0
    9.6351    7.0486   -2.3350 C   0  0  0  0  0  0  0  0  0  0  0  0
   10.8903    7.1954   -2.8409 C   0  0  0  0  0  0  0  0  0  0  0  0
   12.0732    6.4955   -1.7859 S   0  0  0  0  0  0  0  0  0  0  0  0
   11.6066    2.0017    4.7132 C   0  0  0  0  0  0  0  0  0  0  0  0
   11.8129    1.7473    6.0820 C   0  0  0  0  0  0  0  0  0  0  0  0
   12.2020    2.8446    6.7874 C   0  0  0  0  0  0  0  0  0  0  0  0
   12.3505    4.2232    5.7502 S   0  0  0  0  0  0  0  0  0  0  0  0
   11.3117    7.8951   -4.0867 C   0  0  0  0  0  0  0  0  0  0  0  0
   11.8713    9.2840   -3.7712 C   0  0  0  0  0  0  0  0  0  0  0  0
   12.5129    2.9518    8.2409 C   0  0  0  0  0  0  0  0  0  0  0  0
   14.0147    3.1150    8.4835 C   0  0  0  0  0  0  0  0  0  0  0  0
   15.5758    7.0741    2.7030 C   0  0  0  0  0  0  0  0  0  0  0  0
   15.6657    8.6966    2.0904 S   0  0  0  0  0  0  0  0  0  0  0  0
   17.2329    8.9661    2.8045 C   0  0  0  0  0  0  0  0  0  0  0  0
   17.6540    7.8285    3.4820 C   0  0  0  0  0  0  0  0  0  0  0  0
   16.7225    6.7445    3.4064 C   0  0  0  0  0  0  0  0  0  0  0  0
   18.9172    7.7308    4.2007 C   0  0  0  0  0  0  0  0  0  0  0  0
   19.2095    6.4103    4.7481 C   0  0  0  0  0  0  0  0  0  0  0  0
   18.3193    5.3005    4.5999 C   0  0  0  0  0  0  0  0  0  0  0  0
   17.0273    5.4025    3.9181 C   0  0  0  0  0  0  0  0  0  0  0  0
   20.3504    6.0954    5.4449 C   0  0  0  0  0  0  0  0  0  0  0  0
   20.3465    4.4279    5.9034 S   0  0  0  0  0  0  0  0  0  0  0  0
   18.8063    4.1481    5.1638 C   0  0  0  0  0  0  0  0  0  0  0  0
   19.6865    8.6756    4.3378 O   0  0  0  0  0  0  0  0  0  0  0  0
   16.2887    4.4410    3.7757 O   0  0  0  0  0  0  0  0  0  0  0  0
   21.5136    6.9585    5.7777 C   0  0  0  0  0  0  0  0  0  0  0  0
   22.4582    7.0891    4.5791 C   0  0  0  0  0  0  0  0  0  0  0  0
   18.1799    2.8025    5.2399 C   0  0  0  0  0  0  0  0  0  0  0  0
   17.1217    2.7513    6.3454 C   0  0  0  0  0  0  0  0  0  0  0  0
   17.6239   13.5849    1.0013 C   0  0  0  0  0  0  0  0  0  0  0  0
   17.9683   12.4053    1.6993 C   0  0  0  0  0  0  0  0  0  0  0  0
   19.1839   12.3174    2.4202 C   0  0  0  0  0  0  0  0  0  0  0  0
   20.1008   13.3647    2.4886 C   0  0  0  0  0  0  0  0  0  0  0  0
   19.7829   14.5265    1.7593 C   0  0  0  0  0  0  0  0  0  0  0  0
   18.5616   14.6091    1.0419 C   0  0  0  0  0  0  0  0  0  0  0  0
   17.2363   11.2071    1.7964 C   0  0  0  0  0  0  0  0  0  0  0  0
   17.8227   10.2435    2.5814 C   0  0  0  0  0  0  0  0  0  0  0  0
   19.3522   10.7844    3.2315 S   0  0  0  0  0  0  0  0  0  0  0  0
   20.5606   15.7018    1.6231 C   0  0  0  0  0  0  0  0  0  0  0  0
   19.9713   16.6682    0.8653 C   0  0  0  0  0  0  0  0  0  0  0  0
   18.3943   16.1634    0.2743 S   0  0  0  0  0  0  0  0  0  0  0  0
   16.3663   13.7352    0.3007 C   0  0  0  0  0  0  0  0  0  0  0  0
   21.2905   13.2479    3.3055 C   0  0  0  0  0  0  0  0  0  0  0  0
   16.1264   14.3833   -0.8795 C   0  0  0  0  0  0  0  0  0  0  0  0
   14.7729   14.3579   -1.2682 C   0  0  0  0  0  0  0  0  0  0  0  0
   13.9657   13.7107   -0.3840 C   0  0  0  0  0  0  0  0  0  0  0  0
   14.8785   13.1044    0.9564 S   0  0  0  0  0  0  0  0  0  0  0  0
   22.0793   12.1470    3.4940 C   0  0  0  0  0  0  0  0  0  0  0  0
   23.1158   12.3539    4.4239 C   0  0  0  0  0  0  0  0  0  0  0  0
   23.1179   13.6015    4.9680 C   0  0  0  0  0  0  0  0  0  0  0  0
   21.8378   14.5640    4.3090 S   0  0  0  0  0  0  0  0  0  0  0  0
   12.5055   13.4327   -0.4811 C   0  0  0  0  0  0  0  0  0  0  0  0
   12.2512   11.9683   -0.8473 C   0  0  0  0  0  0  0  0  0  0  0  0
   24.0570   14.1768    5.9718 C   0  0  0  0  0  0  0  0  0  0  0  0
   24.9905   15.2099    5.3389 C   0  0  0  0  0  0  0  0  0  0  0  0
   20.4201   17.9904    0.5574 C   0  0  0  0  0  0  0  0  0  0  0  0
   19.1967   19.2103    0.3082 S   0  0  0  0  0  0  0  0  0  0  0  0
   20.3764   20.4198    0.0722 C   0  0  0  0  0  0  0  0  0  0  0  0
   21.6486   19.9326    0.1623 C   0  0  0  0  0  0  0  0  0  0  0  0
   21.6912   18.5295    0.4320 C   0  0  0  0  0  0  0  0  0  0  0  0
   22.8306   20.7864   -0.0221 C   0  0  0  0  0  0  0  0  0  0  0  0
   24.0903   20.0462    0.0222 C   0  0  0  0  0  0  0  0  0  0  0  0
   24.1421   18.6272    0.2263 C   0  0  0  0  0  0  0  0  0  0  0  0
   22.9574   17.7891    0.4528 C   0  0  0  0  0  0  0  0  0  0  0  0
   25.3305   20.6109   -0.1379 C   0  0  0  0  0  0  0  0  0  0  0  0
   26.5702   19.4064   -0.0665 S   0  0  0  0  0  0  0  0  0  0  0  0
   25.4229   18.1348    0.1872 C   0  0  0  0  0  0  0  0  0  0  0  0
   22.7426   21.9884   -0.2075 O   0  0  0  0  0  0  0  0  0  0  0  0
   23.0371   16.5840    0.6296 O   0  0  0  0  0  0  0  0  0  0  0  0
   25.6819   22.0296   -0.4043 C   0  0  0  0  0  0  0  0  0  0  0  0
   25.6343   22.3229   -1.9069 C   0  0  0  0  0  0  0  0  0  0  0  0
   25.9023   16.7383    0.3592 C   0  0  0  0  0  0  0  0  0  0  0  0
   25.9672   16.3558    1.8402 C   0  0  0  0  0  0  0  0  0  0  0  0
    2.9223    1.4569   -8.6328 H   0  0  0  0  0  0  0  0  0  0  0  0
    0.5167    0.4988   -8.9041 H   0  0  0  0  0  0  0  0  0  0  0  0
    3.1413    0.0103   -1.6371 H   0  0  0  0  0  0  0  0  0  0  0  0
    3.7203    3.5345   -7.9166 H   0  0  0  0  0  0  0  0  0  0  0  0
    5.8782    4.4605   -9.0172 H   0  0  0  0  0  0  0  0  0  0  0  0
    0.1275   -1.9100   -4.6440 H   0  0  0  0  0  0  0  0  0  0  0  0
   -1.6363   -2.3398   -2.7981 H   0  0  0  0  0  0  0  0  0  0  0  0
    8.4552    4.0085   -9.0574 H   0  0  0  0  0  0  0  0  0  0  0  0
    8.9922    2.5052   -8.2896 H   0  0  0  0  0  0  0  0  0  0  0  0
    8.5680    5.1657   -6.8436 H   0  0  0  0  0  0  0  0  0  0  0  0
   10.1311    4.4558   -7.2638 H   0  0  0  0  0  0  0  0  0  0  0  0
    9.0859    3.6605   -6.0813 H   0  0  0  0  0  0  0  0  0  0  0  0
   -2.4630   -1.3332   -0.5572 H   0  0  0  0  0  0  0  0  0  0  0  0
   -1.9107    0.3143   -0.2180 H   0  0  0  0  0  0  0  0  0  0  0  0
   -0.4535   -2.2374    0.6261 H   0  0  0  0  0  0  0  0  0  0  0  0
   -1.3938   -1.1848    1.6893 H   0  0  0  0  0  0  0  0  0  0  0  0
    0.0965   -0.5916    0.9490 H   0  0  0  0  0  0  0  0  0  0  0  0
    6.9444   -2.2210    5.7134 H   0  0  0  0  0  0  0  0  0  0  0  0
    7.3308   -0.5835    5.1274 H   0  0  0  0  0  0  0  0  0  0  0  0
    8.8175   -3.1118    4.2731 H   0  0  0  0  0  0  0  0  0  0  0  0
    9.3845   -1.9440    5.4741 H   0  0  0  0  0  0  0  0  0  0  0  0
    9.1925   -1.4484    3.7922 H   0  0  0  0  0  0  0  0  0  0  0  0
    3.9684   -4.7033    1.6943 H   0  0  0  0  0  0  0  0  0  0  0  0
    4.0940   -3.6727    0.2463 H   0  0  0  0  0  0  0  0  0  0  0  0
    2.2374   -3.0990    2.6038 H   0  0  0  0  0  0  0  0  0  0  0  0
    1.7500   -3.8290    1.0682 H   0  0  0  0  0  0  0  0  0  0  0  0
    2.3627   -2.1739    1.0984 H   0  0  0  0  0  0  0  0  0  0  0  0
    8.9302    3.9084   -0.6362 H   0  0  0  0  0  0  0  0  0  0  0  0
   14.1516    4.9898    4.0656 H   0  0  0  0  0  0  0  0  0  0  0  0
    8.7025    6.1899   -0.5467 H   0  0  0  0  0  0  0  0  0  0  0  0
    8.7533    7.4180   -2.8282 H   0  0  0  0  0  0  0  0  0  0  0  0
   11.3131    1.2423    4.0125 H   0  0  0  0  0  0  0  0  0  0  0  0
   11.6666    0.7809    6.5313 H   0  0  0  0  0  0  0  0  0  0  0  0
   10.4487    7.9871   -4.7499 H   0  0  0  0  0  0  0  0  0  0  0  0
   12.0774    7.3075   -4.5981 H   0  0  0  0  0  0  0  0  0  0  0  0
   11.1157    9.8914   -3.2782 H   0  0  0  0  0  0  0  0  0  0  0  0
   12.1801    9.7843   -4.6857 H   0  0  0  0  0  0  0  0  0  0  0  0
   12.7310    9.1996   -3.1103 H   0  0  0  0  0  0  0  0  0  0  0  0
   12.1548    2.0495    8.7420 H   0  0  0  0  0  0  0  0  0  0  0  0
   11.9869    3.8109    8.6661 H   0  0  0  0  0  0  0  0  0  0  0  0
   14.5584    2.2632    8.0811 H   0  0  0  0  0  0  0  0  0  0  0  0
   14.2190    3.1875    9.5488 H   0  0  0  0  0  0  0  0  0  0  0  0
   14.3787    4.0175    7.9973 H   0  0  0  0  0  0  0  0  0  0  0  0
   22.0520    6.5310    6.6260 H   0  0  0  0  0  0  0  0  0  0  0  0
   21.1511    7.9537    6.0429 H   0  0  0  0  0  0  0  0  0  0  0  0
   22.7995    6.1097    4.2501 H   0  0  0  0  0  0  0  0  0  0  0  0
   23.3222    7.6873    4.8549 H   0  0  0  0  0  0  0  0  0  0  0  0
   21.9445    7.5815    3.7581 H   0  0  0  0  0  0  0  0  0  0  0  0
   18.9508    2.0534    5.4313 H   0  0  0  0  0  0  0  0  0  0  0  0
   17.6941    2.5860    4.2862 H   0  0  0  0  0  0  0  0  0  0  0  0
   17.5541    3.0196    7.3073 H   0  0  0  0  0  0  0  0  0  0  0  0
   16.7099    1.7480    6.4123 H   0  0  0  0  0  0  0  0  0  0  0  0
   16.3154    3.4411    6.1130 H   0  0  0  0  0  0  0  0  0  0  0  0
   16.3029   11.0362    1.2910 H   0  0  0  0  0  0  0  0  0  0  0  0
   21.5314   15.8224    2.0620 H   0  0  0  0  0  0  0  0  0  0  0  0
   16.9012   14.8308   -1.4751 H   0  0  0  0  0  0  0  0  0  0  0  0
   14.4107   14.8083   -2.1754 H   0  0  0  0  0  0  0  0  0  0  0  0
   21.9408   11.2237    2.9624 H   0  0  0  0  0  0  0  0  0  0  0  0
   23.8314   11.5955    4.6886 H   0  0  0  0  0  0  0  0  0  0  0  0
   12.0720   14.0843   -1.2428 H   0  0  0  0  0  0  0  0  0  0  0  0
   12.0228   13.6523    0.4743 H   0  0  0  0  0  0  0  0  0  0  0  0
   12.7147   11.7325   -1.8026 H   0  0  0  0  0  0  0  0  0  0  0  0
   11.1836   11.7769   -0.9204 H   0  0  0  0  0  0  0  0  0  0  0  0
   12.6701   11.3108   -0.0887 H   0  0  0  0  0  0  0  0  0  0  0  0
   24.6452   13.3652    6.4055 H   0  0  0  0  0  0  0  0  0  0  0  0
   23.4886   14.6538    6.7745 H   0  0  0  0  0  0  0  0  0  0  0  0
   25.5767   14.7538    4.5449 H   0  0  0  0  0  0  0  0  0  0  0  0
   25.6692   15.6148    6.0855 H   0  0  0  0  0  0  0  0  0  0  0  0
   24.4125   16.0275    4.9145 H   0  0  0  0  0  0  0  0  0  0  0  0
   20.0937   21.4349   -0.1260 H   0  0  0  0  0  0  0  0  0  0  0  0
   26.6835   22.2364   -0.0219 H   0  0  0  0  0  0  0  0  0  0  0  0
   24.9602   22.6728    0.1021 H   0  0  0  0  0  0  0  0  0  0  0  0
   26.3138   21.6671   -2.4477 H   0  0  0  0  0  0  0  0  0  0  0  0
   25.9216   23.3543   -2.0913 H   0  0  0  0  0  0  0  0  0  0  0  0
   24.6250   22.1723   -2.2804 H   0  0  0  0  0  0  0  0  0  0  0  0
   26.8921   16.6379   -0.0908 H   0  0  0  0  0  0  0  0  0  0  0  0
   25.2071   16.0622   -0.1426 H   0  0  0  0  0  0  0  0  0  0  0  0
   26.6064   17.0437    2.3900 H   0  0  0  0  0  0  0  0  0  0  0  0
   26.3645   15.3495    1.9415 H   0  0  0  0  0  0  0  0  0  0  0  0
   24.9689   16.3785    2.2678 H   0  0  0  0  0  0  0  0  0  0  0  0
  1  6  1  0  0  0  0
  2  1  2  0  0  0  0
  2  3  1  0  0  0  0
  3  4  2  0  0  0  0
  4  5  1  0  0  0  0
  4 14  1  0  0  0  0
  5 10  1  0  0  0  0
  6  5  2  0  0  0  0
  6 12  1  0  0  0  0
  7  2  1  0  0  0  0
  8  7  2  0  0  0  0
  8  9  1  0  0  0  0
  9  3  1  0  0  0  0
 10 11  2  0  0  0  0
 10135  1  0  0  0  0
 11 27  1  0  0  0  0
 12 11  1  0  0  0  0
 13 18  1  0  0  0  0
 13  1  1  0  0  0  0
 14 22  1  0  0  0  0
 15 13  2  0  0  0  0
 16 17  2  0  0  0  0
 16 15  1  0  0  0  0
 17 18  1  0  0  0  0
 19 14  2  0  0  0  0
 19 20  1  0  0  0  0
 20 21  2  0  0  0  0
 21 25  1  0  0  0  0
 22 21  1  0  0  0  0
 23 17  1  0  0  0  0
 23 24  1  0  0  0  0
 24142  1  0  0  0  0
 24144  1  0  0  0  0
 25146  1  0  0  0  0
 25 26  1  0  0  0  0
 26149  1  0  0  0  0
 26148  1  0  0  0  0
 27 28  1  0  0  0  0
 27 31  2  0  0  0  0
 28 29  1  0  0  0  0
 29 30  2  0  0  0  0
 29 52  1  0  0  0  0
 30 32  1  0  0  0  0
 31 35  1  0  0  0  0
 31 30  1  0  0  0  0
 32 33  1  0  0  0  0
 32 39  2  0  0  0  0
 33 36  2  0  0  0  0
 34 38  2  0  0  0  0
 34 33  1  0  0  0  0
 35 34  1  0  0  0  0
 36 41  1  0  0  0  0
 37 36  1  0  0  0  0
 38 37  1  0  0  0  0
 40 35  2  0  0  0  0
 41151  1  0  0  0  0
 41150  1  0  0  0  0
 42 41  1  0  0  0  0
 42153  1  0  0  0  0
 43 44  1  0  0  0  0
 43155  1  0  0  0  0
 43 38  1  0  0  0  0
 44157  1  0  0  0  0
 45 46  2  0  0  0  0
 45 50  1  0  0  0  0
 46 47  1  0  0  0  0
 47 53  1  0  0  0  0
 47 48  2  0  0  0  0
 48 58  1  0  0  0  0
 49 48  1  0  0  0  0
 49 54  1  0  0  0  0
 50 49  2  0  0  0  0
 51 46  1  0  0  0  0
 51 52  2  0  0  0  0
 52 53  1  0  0  0  0
 54161  1  0  0  0  0
 55 71  1  0  0  0  0
 55 54  2  0  0  0  0
 56 50  1  0  0  0  0
 56 55  1  0  0  0  0
 57 45  1  0  0  0  0
 58 63  2  0  0  0  0
 58 66  1  0  0  0  0
 59 57  2  0  0  0  0
 59162  1  0  0  0  0
 60 59  1  0  0  0  0
 61 60  2  0  0  0  0
 61 62  1  0  0  0  0
 62 57  1  0  0  0  0
 63 64  1  0  0  0  0
 64165  1  0  0  0  0
 64 65  2  0  0  0  0
 65 69  1  0  0  0  0
 66 65  1  0  0  0  0
 67 68  1  0  0  0  0
 67 61  1  0  0  0  0
 68168  1  0  0  0  0
 68170  1  0  0  0  0
 69 70  1  0  0  0  0
 69172  1  0  0  0  0
 69171  1  0  0  0  0
 70174  1  0  0  0  0
 71 75  2  0  0  0  0
 72 71  1  0  0  0  0
 72 73  1  0  0  0  0
 73 74  2  0  0  0  0
 74 76  1  0  0  0  0
 75 74  1  0  0  0  0
 75 79  1  0  0  0  0
 76 83  2  0  0  0  0
 76 77  1  0  0  0  0
 77 80  2  0  0  0  0
 78 77  1  0  0  0  0
 78 82  2  0  0  0  0
 79 78  1  0  0  0  0
 80 85  1  0  0  0  0
 80 81  1  0  0  0  0
 82 87  1  0  0  0  0
 82 81  1  0  0  0  0
 84 79  2  0  0  0  0
 85177  1  0  0  0  0
 85176  1  0  0  0  0
 86179  1  0  0  0  0
 86 85  1  0  0  0  0
 87181  1  0  0  0  0
 87 88  1  0  0  0  0
 88184  1  0  0  0  0
 88183  1  0  0  0  0
 89 94  2  0  0  0  0
 89 90  1  0  0  0  0
 90 95  1  0  0  0  0
 90 91  2  0  0  0  0
 91 92  1  0  0  0  0
 91 97  1  0  0  0  0
 92102  1  0  0  0  0
 93 92  2  0  0  0  0
 94 93  1  0  0  0  0
 95 96  2  0  0  0  0
 96 73  1  0  0  0  0
 96 97  1  0  0  0  0
 98 93  1  0  0  0  0
 98187  1  0  0  0  0
 99 98  2  0  0  0  0
100 99  1  0  0  0  0
100 94  1  0  0  0  0
101106  1  0  0  0  0
101 89  1  0  0  0  0
102107  2  0  0  0  0
102110  1  0  0  0  0
103101  2  0  0  0  0
104103  1  0  0  0  0
104105  2  0  0  0  0
105106  1  0  0  0  0
107108  1  0  0  0  0
108191  1  0  0  0  0
108109  2  0  0  0  0
109113  1  0  0  0  0
110109  1  0  0  0  0
111105  1  0  0  0  0
111193  1  0  0  0  0
112111  1  0  0  0  0
112196  1  0  0  0  0
113197  1  0  0  0  0
113198  1  0  0  0  0
114113  1  0  0  0  0
114200  1  0  0  0  0
115 99  1  0  0  0  0
116115  1  0  0  0  0
117118  2  0  0  0  0
117116  1  0  0  0  0
118119  1  0  0  0  0
119123  1  0  0  0  0
119115  2  0  0  0  0
120121  1  0  0  0  0
120118  1  0  0  0  0
121122  1  0  0  0  0
122123  1  0  0  0  0
123128  2  0  0  0  0
124125  1  0  0  0  0
124121  2  0  0  0  0
125126  1  0  0  0  0
126122  2  0  0  0  0
126131  1  0  0  0  0
127120  2  0  0  0  0
129124  1  0  0  0  0
129203  1  0  0  0  0
129204  1  0  0  0  0
130129  1  0  0  0  0
131132  1  0  0  0  0
132211  1  0  0  0  0
132212  1  0  0  0  0
132210  1  0  0  0  0
133  7  1  0  0  0  0
134  8  1  0  0  0  0
136 15  1  0  0  0  0
137 16  1  0  0  0  0
138 19  1  0  0  0  0
139 20  1  0  0  0  0
140 23  1  0  0  0  0
141 23  1  0  0  0  0
143 24  1  0  0  0  0
145 25  1  0  0  0  0
147 26  1  0  0  0  0
152 42  1  0  0  0  0
154 42  1  0  0  0  0
156 43  1  0  0  0  0
158 44  1  0  0  0  0
159 44  1  0  0  0  0
160 51  1  0  0  0  0
163 60  1  0  0  0  0
164 63  1  0  0  0  0
166 67  1  0  0  0  0
167 67  1  0  0  0  0
169 68  1  0  0  0  0
173 70  1  0  0  0  0
175 70  1  0  0  0  0
178 86  1  0  0  0  0
180 86  1  0  0  0  0
182 87  1  0  0  0  0
185 88  1  0  0  0  0
186 95  1  0  0  0  0
188103  1  0  0  0  0
189104  1  0  0  0  0
190107  1  0  0  0  0
192111  1  0  0  0  0
194112  1  0  0  0  0
195112  1  0  0  0  0
199114  1  0  0  0  0
201114  1  0  0  0  0
202117  1  0  0  0  0
205130  1  0  0  0  0
206130  1  0  0  0  0
207130  1  0  0  0  0
208131  1  0  0  0  0
209131  1  0  0  0  0
M  END
