SCF done       -431.672828680269          0.000318469656
 OpenBabel12282109573D

254283  0  0  0  0  0  0  0  0999 V2000
    1.0324    5.8458   -4.0295 C   0  0  0  0  0  0  0  0  0  0  0  0
    0.5554    5.4746   -5.2995 C   0  0  0  0  0  0  0  0  0  0  0  0
    1.3927    4.7720   -6.1972 C   0  0  0  0  0  0  0  0  0  0  0  0
    2.7007    4.4004   -5.8983 C   0  0  0  0  0  0  0  0  0  0  0  0
    3.1823    4.7856   -4.6318 C   0  0  0  0  0  0  0  0  0  0  0  0
    2.3445    5.4928   -3.7345 C   0  0  0  0  0  0  0  0  0  0  0  0
   -0.7302    5.7213   -5.8657 C   0  0  0  0  0  0  0  0  0  0  0  0
   -0.8669    5.2114   -7.1057 C   0  0  0  0  0  0  0  0  0  0  0  0
    0.5527    4.4102   -7.6829 S   0  0  0  0  0  0  0  0  0  0  0  0
    4.4665    4.5676   -4.0813 C   0  0  0  0  0  0  0  0  0  0  0  0
    4.6156    5.0356   -2.8082 C   0  0  0  0  0  0  0  0  0  0  0  0
    3.1563    5.8122   -2.2234 S   0  0  0  0  0  0  0  0  0  0  0  0
    0.2198    6.5536   -3.0581 C   0  0  0  0  0  0  0  0  0  0  0  0
    3.5098    3.6512   -6.8374 C   0  0  0  0  0  0  0  0  0  0  0  0
    0.5948    7.5935   -2.2561 C   0  0  0  0  0  0  0  0  0  0  0  0
   -0.4290    8.0305   -1.3919 C   0  0  0  0  0  0  0  0  0  0  0  0
   -1.5822    7.3196   -1.5134 C   0  0  0  0  0  0  0  0  0  0  0  0
   -1.4267    6.0917   -2.7271 S   0  0  0  0  0  0  0  0  0  0  0  0
    3.5802    3.7964   -8.1952 C   0  0  0  0  0  0  0  0  0  0  0  0
    4.4700    2.8935   -8.8090 C   0  0  0  0  0  0  0  0  0  0  0  0
    5.0684    2.0409   -7.9330 C   0  0  0  0  0  0  0  0  0  0  0  0
    4.5428    2.3488   -6.3129 S   0  0  0  0  0  0  0  0  0  0  0  0
   -2.8721    7.5091   -0.7927 C   0  0  0  0  0  0  0  0  0  0  0  0
   -3.9446    8.0934   -1.7140 C   0  0  0  0  0  0  0  0  0  0  0  0
    6.1042    1.0035   -8.1974 C   0  0  0  0  0  0  0  0  0  0  0  0
    7.4875    1.4914   -7.7588 C   0  0  0  0  0  0  0  0  0  0  0  0
    5.7919    4.9353   -2.0191 C   0  0  0  0  0  0  0  0  0  0  0  0
    5.9535    5.3739   -0.7196 C   0  0  0  0  0  0  0  0  0  0  0  0
    7.2144    5.1474   -0.1852 C   0  0  0  0  0  0  0  0  0  0  0  0
    8.1391    4.5216   -1.0148 C   0  0  0  0  0  0  0  0  0  0  0  0
    7.3533    4.1425   -2.6866 Se  0  0  0  0  0  0  0  0  0  0  0  0
    9.4706    4.2581   -0.6192 C   0  0  0  0  0  0  0  0  0  0  0  0
    9.9256    4.7070    1.0123 S   0  0  0  0  0  0  0  0  0  0  0  0
   11.5878    4.1984    0.7970 C   0  0  0  0  0  0  0  0  0  0  0  0
   11.7640    3.7035   -0.4917 C   0  0  0  0  0  0  0  0  0  0  0  0
   10.5688    3.7110   -1.2800 C   0  0  0  0  0  0  0  0  0  0  0  0
   13.0275    3.2345   -1.0070 C   0  0  0  0  0  0  0  0  0  0  0  0
   12.9774    2.6632   -2.3415 C   0  0  0  0  0  0  0  0  0  0  0  0
   11.7741    2.6249   -3.1149 C   0  0  0  0  0  0  0  0  0  0  0  0
   10.5225    3.1820   -2.6218 C   0  0  0  0  0  0  0  0  0  0  0  0
   14.0515    2.0938   -2.9837 C   0  0  0  0  0  0  0  0  0  0  0  0
   13.5822    1.4922   -4.5348 S   0  0  0  0  0  0  0  0  0  0  0  0
   11.9436    2.0096   -4.3309 C   0  0  0  0  0  0  0  0  0  0  0  0
   12.4581    4.3301    1.9043 C   0  0  0  0  0  0  0  0  0  0  0  0
   12.0166    4.7188    3.1658 C   0  0  0  0  0  0  0  0  0  0  0  0
   12.9799    4.8106    4.1601 C   0  0  0  0  0  0  0  0  0  0  0  0
   14.3228    4.0470    1.9308 Se  0  0  0  0  0  0  0  0  0  0  0  0
   14.0863    3.3101   -0.3707 O   0  0  0  0  0  0  0  0  0  0  0  0
    9.4946    3.1846   -3.3103 O   0  0  0  0  0  0  0  0  0  0  0  0
   15.4443    1.9728   -2.4837 C   0  0  0  0  0  0  0  0  0  0  0  0
   16.3575    1.1965   -3.4211 C   0  0  0  0  0  0  0  0  0  0  0  0
   10.9551    1.8005   -5.4201 C   0  0  0  0  0  0  0  0  0  0  0  0
   10.8032    3.0682   -6.2656 C   0  0  0  0  0  0  0  0  0  0  0  0
   14.2656    4.5241    3.7386 C   0  0  0  0  0  0  0  0  0  0  0  0
   17.3845    4.5416    7.6724 C   0  0  0  0  0  0  0  0  0  0  0  0
   16.9128    4.5588    6.3435 C   0  0  0  0  0  0  0  0  0  0  0  0
   17.8302    4.5465    5.2626 C   0  0  0  0  0  0  0  0  0  0  0  0
   19.2105    4.5421    5.4252 C   0  0  0  0  0  0  0  0  0  0  0  0
   19.6799    4.5527    6.7547 C   0  0  0  0  0  0  0  0  0  0  0  0
   18.7649    4.5415    7.8372 C   0  0  0  0  0  0  0  0  0  0  0  0
   15.5701    4.5850    5.8946 C   0  0  0  0  0  0  0  0  0  0  0  0
   15.4435    4.5423    4.5358 C   0  0  0  0  0  0  0  0  0  0  0  0
   16.9973    4.4976    3.7324 S   0  0  0  0  0  0  0  0  0  0  0  0
   21.0181    4.5639    7.2046 C   0  0  0  0  0  0  0  0  0  0  0  0
   21.1537    4.5067    8.5620 C   0  0  0  0  0  0  0  0  0  0  0  0
   19.5985    4.4779    9.3699 S   0  0  0  0  0  0  0  0  0  0  0  0
   16.4990    4.5008    8.8190 C   0  0  0  0  0  0  0  0  0  0  0  0
   20.1064    4.5185    4.2873 C   0  0  0  0  0  0  0  0  0  0  0  0
   16.6357    5.1601   10.0082 C   0  0  0  0  0  0  0  0  0  0  0  0
   15.6187    4.8595   10.9356 C   0  0  0  0  0  0  0  0  0  0  0  0
   14.7106    3.9584   10.4729 C   0  0  0  0  0  0  0  0  0  0  0  0
   15.0918    3.4729    8.8535 S   0  0  0  0  0  0  0  0  0  0  0  0
   19.9703    5.1738    3.0947 C   0  0  0  0  0  0  0  0  0  0  0  0
   21.0301    4.9323    2.1991 C   0  0  0  0  0  0  0  0  0  0  0  0
   21.9707    4.0789    2.6884 C   0  0  0  0  0  0  0  0  0  0  0  0
   21.5599    3.5564    4.2865 S   0  0  0  0  0  0  0  0  0  0  0  0
   13.4964    3.4273   11.1535 C   0  0  0  0  0  0  0  0  0  0  0  0
   12.2175    4.0000   10.5390 C   0  0  0  0  0  0  0  0  0  0  0  0
   23.2540    3.6446    2.0689 C   0  0  0  0  0  0  0  0  0  0  0  0
   24.4405    4.3690    2.7103 C   0  0  0  0  0  0  0  0  0  0  0  0
   22.3867    4.4647    9.2632 C   0  0  0  0  0  0  0  0  0  0  0  0
   22.5646    4.3254   10.6257 C   0  0  0  0  0  0  0  0  0  0  0  0
   23.8908    4.2895   11.0345 C   0  0  0  0  0  0  0  0  0  0  0  0
   24.8537    4.4074   10.0373 C   0  0  0  0  0  0  0  0  0  0  0  0
   24.0218    4.5795    8.3543 Se  0  0  0  0  0  0  0  0  0  0  0  0
   26.2421    4.4008   10.3033 C   0  0  0  0  0  0  0  0  0  0  0  0
   26.7399    4.1387   11.9626 S   0  0  0  0  0  0  0  0  0  0  0  0
   28.4427    4.3008   11.5840 C   0  0  0  0  0  0  0  0  0  0  0  0
   28.5985    4.5593   10.2254 C   0  0  0  0  0  0  0  0  0  0  0  0
   27.3652    4.5845    9.4986 C   0  0  0  0  0  0  0  0  0  0  0  0
   29.8740    4.7948    9.5938 C   0  0  0  0  0  0  0  0  0  0  0  0
   29.8292    4.9560    8.1509 C   0  0  0  0  0  0  0  0  0  0  0  0
   28.6033    4.9305    7.4134 C   0  0  0  0  0  0  0  0  0  0  0  0
   27.3136    4.7622    8.0676 C   0  0  0  0  0  0  0  0  0  0  0  0
   30.9364    5.1260    7.3537 C   0  0  0  0  0  0  0  0  0  0  0  0
   30.4759    5.2408    5.6916 S   0  0  0  0  0  0  0  0  0  0  0  0
   28.7944    5.0643    6.0598 C   0  0  0  0  0  0  0  0  0  0  0  0
   29.3655    4.1191   12.6402 C   0  0  0  0  0  0  0  0  0  0  0  0
   28.9789    3.7020   13.9106 C   0  0  0  0  0  0  0  0  0  0  0  0
   29.9900    3.5442   14.8469 C   0  0  0  0  0  0  0  0  0  0  0  0
   31.2341    4.3744   12.5846 Se  0  0  0  0  0  0  0  0  0  0  0  0
   30.9370    4.8631   10.2240 O   0  0  0  0  0  0  0  0  0  0  0  0
   26.2549    4.7582    7.4274 O   0  0  0  0  0  0  0  0  0  0  0  0
   32.3552    5.2041    7.7838 C   0  0  0  0  0  0  0  0  0  0  0  0
   33.3317    5.3427    6.6255 C   0  0  0  0  0  0  0  0  0  0  0  0
   27.7834    5.1094    4.9719 C   0  0  0  0  0  0  0  0  0  0  0  0
   27.1504    6.4999    4.8694 C   0  0  0  0  0  0  0  0  0  0  0  0
   31.2556    3.8536   14.3814 C   0  0  0  0  0  0  0  0  0  0  0  0
   34.6118    2.7657   17.9478 C   0  0  0  0  0  0  0  0  0  0  0  0
   34.0410    3.2922   16.7710 C   0  0  0  0  0  0  0  0  0  0  0  0
   34.8384    4.0300   15.8603 C   0  0  0  0  0  0  0  0  0  0  0  0
   36.1881    4.2950   16.0621 C   0  0  0  0  0  0  0  0  0  0  0  0
   36.7475    3.8031   17.2595 C   0  0  0  0  0  0  0  0  0  0  0  0
   35.9549    3.0521   18.1632 C   0  0  0  0  0  0  0  0  0  0  0  0
   32.6982    3.1904   16.3347 C   0  0  0  0  0  0  0  0  0  0  0  0
   32.4665    3.7774   15.1237 C   0  0  0  0  0  0  0  0  0  0  0  0
   33.9116    4.5119   14.4641 S   0  0  0  0  0  0  0  0  0  0  0  0
   38.0718    3.9513   17.7282 C   0  0  0  0  0  0  0  0  0  0  0  0
   38.3218    3.3154   18.9103 C   0  0  0  0  0  0  0  0  0  0  0  0
   36.8940    2.5092   19.5300 S   0  0  0  0  0  0  0  0  0  0  0  0
   33.8671    1.9417   18.8786 C   0  0  0  0  0  0  0  0  0  0  0  0
   36.9698    5.0269   15.0866 C   0  0  0  0  0  0  0  0  0  0  0  0
   33.9286    1.9452   20.2437 C   0  0  0  0  0  0  0  0  0  0  0  0
   33.1126    0.9659   20.8437 C   0  0  0  0  0  0  0  0  0  0  0  0
   32.4378    0.1969   19.9469 C   0  0  0  0  0  0  0  0  0  0  0  0
   32.7885    0.6898   18.3228 S   0  0  0  0  0  0  0  0  0  0  0  0
   36.5883    6.1035   14.3350 C   0  0  0  0  0  0  0  0  0  0  0  0
   37.5994    6.5708   13.4730 C   0  0  0  0  0  0  0  0  0  0  0  0
   38.7498    5.8469   13.5426 C   0  0  0  0  0  0  0  0  0  0  0  0
   38.6039    4.5632   14.6947 S   0  0  0  0  0  0  0  0  0  0  0  0
   31.4723   -0.9073   20.2078 C   0  0  0  0  0  0  0  0  0  0  0  0
   30.0372   -0.4774   19.8970 C   0  0  0  0  0  0  0  0  0  0  0  0
   40.0422    6.0732   12.8372 C   0  0  0  0  0  0  0  0  0  0  0  0
   41.0866    6.6658   13.7868 C   0  0  0  0  0  0  0  0  0  0  0  0
   39.5682    3.2804   19.5881 C   0  0  0  0  0  0  0  0  0  0  0  0
   39.8442    2.6269   20.7728 C   0  0  0  0  0  0  0  0  0  0  0  0
   41.1596    2.7385   21.2025 C   0  0  0  0  0  0  0  0  0  0  0  0
   42.0177    3.4790   20.3967 C   0  0  0  0  0  0  0  0  0  0  0  0
   41.0832    4.1439   18.9007 Se  0  0  0  0  0  0  0  0  0  0  0  0
   43.3863    3.6655   20.7069 C   0  0  0  0  0  0  0  0  0  0  0  0
   43.9706    2.9554   22.1944 S   0  0  0  0  0  0  0  0  0  0  0  0
   45.5947    3.5257   21.9389 C   0  0  0  0  0  0  0  0  0  0  0  0
   45.6894    4.2244   20.7493 C   0  0  0  0  0  0  0  0  0  0  0  0
   44.4375    4.3103   20.0544 C   0  0  0  0  0  0  0  0  0  0  0  0
   46.9371    4.7475   20.1791 C   0  0  0  0  0  0  0  0  0  0  0  0
   46.7760    5.3855   18.8738 C   0  0  0  0  0  0  0  0  0  0  0  0
   45.5142    5.5169   18.2144 C   0  0  0  0  0  0  0  0  0  0  0  0
   44.2860    4.9936   18.7914 C   0  0  0  0  0  0  0  0  0  0  0  0
   47.8152    5.9233   18.1542 C   0  0  0  0  0  0  0  0  0  0  0  0
   47.2469    6.5879   16.6608 S   0  0  0  0  0  0  0  0  0  0  0  0
   45.6098    6.1443   16.9959 C   0  0  0  0  0  0  0  0  0  0  0  0
   46.5469    3.1962   22.9558 C   0  0  0  0  0  0  0  0  0  0  0  0
   47.6484    3.8870   23.3910 C   0  0  0  0  0  0  0  0  0  0  0  0
   48.3400    3.2940   24.4646 C   0  0  0  0  0  0  0  0  0  0  0  0
   46.2963    1.6289   23.9837 Se  0  0  0  0  0  0  0  0  0  0  0  0
   48.0289    4.6535   20.7210 O   0  0  0  0  0  0  0  0  0  0  0  0
   43.1934    5.1270   18.2278 O   0  0  0  0  0  0  0  0  0  0  0  0
   49.2517    5.9702   18.5284 C   0  0  0  0  0  0  0  0  0  0  0  0
   50.1318    6.6171   17.4692 C   0  0  0  0  0  0  0  0  0  0  0  0
   44.5309    6.4930   16.0357 C   0  0  0  0  0  0  0  0  0  0  0  0
   43.8265    7.7861   16.4561 C   0  0  0  0  0  0  0  0  0  0  0  0
   47.8127    2.1240   24.9173 C   0  0  0  0  0  0  0  0  0  0  0  0
   -1.5088    6.2620   -5.3605 H   0  0  0  0  0  0  0  0  0  0  0  0
   -1.7250    5.2581   -7.7473 H   0  0  0  0  0  0  0  0  0  0  0  0
    5.2806    4.0857   -4.5980 H   0  0  0  0  0  0  0  0  0  0  0  0
    1.5644    8.0550   -2.3061 H   0  0  0  0  0  0  0  0  0  0  0  0
   -0.3099    8.8452   -0.6996 H   0  0  0  0  0  0  0  0  0  0  0  0
    3.0420    4.5539   -8.7356 H   0  0  0  0  0  0  0  0  0  0  0  0
    4.6585    2.8781   -9.8680 H   0  0  0  0  0  0  0  0  0  0  0  0
   -2.7052    8.1814    0.0516 H   0  0  0  0  0  0  0  0  0  0  0  0
   -3.2207    6.5495   -0.4023 H   0  0  0  0  0  0  0  0  0  0  0  0
   -3.6212    9.0539   -2.1093 H   0  0  0  0  0  0  0  0  0  0  0  0
   -4.8740    8.2364   -1.1685 H   0  0  0  0  0  0  0  0  0  0  0  0
   -4.1305    7.4207   -2.5483 H   0  0  0  0  0  0  0  0  0  0  0  0
    6.1141    0.7774   -9.2658 H   0  0  0  0  0  0  0  0  0  0  0  0
    5.8585    0.0880   -7.6540 H   0  0  0  0  0  0  0  0  0  0  0  0
    7.7534    2.3970   -8.3001 H   0  0  0  0  0  0  0  0  0  0  0  0
    8.2375    0.7301   -7.9596 H   0  0  0  0  0  0  0  0  0  0  0  0
    7.4900    1.7128   -6.6937 H   0  0  0  0  0  0  0  0  0  0  0  0
    5.1601    5.8535   -0.1693 H   0  0  0  0  0  0  0  0  0  0  0  0
    7.4761    5.4444    0.8182 H   0  0  0  0  0  0  0  0  0  0  0  0
   10.9748    4.9269    3.3526 H   0  0  0  0  0  0  0  0  0  0  0  0
   12.7445    5.1023    5.1699 H   0  0  0  0  0  0  0  0  0  0  0  0
   15.4159    1.5011   -1.4964 H   0  0  0  0  0  0  0  0  0  0  0  0
   15.8384    2.9807   -2.3175 H   0  0  0  0  0  0  0  0  0  0  0  0
   15.9863    0.1841   -3.5669 H   0  0  0  0  0  0  0  0  0  0  0  0
   17.3595    1.1400   -3.0046 H   0  0  0  0  0  0  0  0  0  0  0  0
   16.4141    1.6840   -4.3924 H   0  0  0  0  0  0  0  0  0  0  0  0
    9.9867    1.5601   -4.9774 H   0  0  0  0  0  0  0  0  0  0  0  0
   11.2801    0.9719   -6.0524 H   0  0  0  0  0  0  0  0  0  0  0  0
   10.3982    3.8702   -5.6548 H   0  0  0  0  0  0  0  0  0  0  0  0
   10.1204    2.8815   -7.0893 H   0  0  0  0  0  0  0  0  0  0  0  0
   11.7653    3.3776   -6.6687 H   0  0  0  0  0  0  0  0  0  0  0  0
   14.7233    4.6220    6.5540 H   0  0  0  0  0  0  0  0  0  0  0  0
   21.8806    4.6143    6.5601 H   0  0  0  0  0  0  0  0  0  0  0  0
   17.4218    5.8672   10.2024 H   0  0  0  0  0  0  0  0  0  0  0  0
   15.5670    5.2960   11.9175 H   0  0  0  0  0  0  0  0  0  0  0  0
   19.1572    5.8425    2.8782 H   0  0  0  0  0  0  0  0  0  0  0  0
   21.0911    5.3796    1.2226 H   0  0  0  0  0  0  0  0  0  0  0  0
   13.5462    3.6899   12.2124 H   0  0  0  0  0  0  0  0  0  0  0  0
   13.4748    2.3376   11.0715 H   0  0  0  0  0  0  0  0  0  0  0  0
   12.2141    5.0851   10.6153 H   0  0  0  0  0  0  0  0  0  0  0  0
   11.3435    3.6118   11.0559 H   0  0  0  0  0  0  0  0  0  0  0  0
   12.1503    3.7263    9.4884 H   0  0  0  0  0  0  0  0  0  0  0  0
   23.2224    3.8626    0.9992 H   0  0  0  0  0  0  0  0  0  0  0  0
   23.3807    2.5669    2.1970 H   0  0  0  0  0  0  0  0  0  0  0  0
   24.3403    5.4439    2.5758 H   0  0  0  0  0  0  0  0  0  0  0  0
   25.3728    4.0449    2.2541 H   0  0  0  0  0  0  0  0  0  0  0  0
   24.4808    4.1574    3.7767 H   0  0  0  0  0  0  0  0  0  0  0  0
   21.7361    4.2452   11.3110 H   0  0  0  0  0  0  0  0  0  0  0  0
   24.1710    4.1824   12.0705 H   0  0  0  0  0  0  0  0  0  0  0  0
   27.9443    3.5027   14.1417 H   0  0  0  0  0  0  0  0  0  0  0  0
   29.7982    3.2238   15.8571 H   0  0  0  0  0  0  0  0  0  0  0  0
   32.5849    4.3114    8.3744 H   0  0  0  0  0  0  0  0  0  0  0  0
   32.4593    6.0480    8.4734 H   0  0  0  0  0  0  0  0  0  0  0  0
   33.2528    4.4907    5.9533 H   0  0  0  0  0  0  0  0  0  0  0  0
   34.3506    5.3935    6.9999 H   0  0  0  0  0  0  0  0  0  0  0  0
   33.1268    6.2479    6.0572 H   0  0  0  0  0  0  0  0  0  0  0  0
   26.9960    4.3860    5.1920 H   0  0  0  0  0  0  0  0  0  0  0  0
   28.2583    4.8500    4.0236 H   0  0  0  0  0  0  0  0  0  0  0  0
   26.6113    6.7269    5.7849 H   0  0  0  0  0  0  0  0  0  0  0  0
   26.4491    6.5238    4.0403 H   0  0  0  0  0  0  0  0  0  0  0  0
   27.9136    7.2581    4.7072 H   0  0  0  0  0  0  0  0  0  0  0  0
   31.9285    2.6932   16.8948 H   0  0  0  0  0  0  0  0  0  0  0  0
   38.8400    4.5163   17.2257 H   0  0  0  0  0  0  0  0  0  0  0  0
   34.5139    2.6508   20.8049 H   0  0  0  0  0  0  0  0  0  0  0  0
   33.0344    0.8338   21.9084 H   0  0  0  0  0  0  0  0  0  0  0  0
   35.6261    6.5743   14.4241 H   0  0  0  0  0  0  0  0  0  0  0  0
   37.4748    7.4181   12.8219 H   0  0  0  0  0  0  0  0  0  0  0  0
   31.5505   -1.1997   21.2571 H   0  0  0  0  0  0  0  0  0  0  0  0
   31.7272   -1.7730   19.5911 H   0  0  0  0  0  0  0  0  0  0  0  0
   29.7584    0.3793   20.5067 H   0  0  0  0  0  0  0  0  0  0  0  0
   29.3462   -1.2911   20.1029 H   0  0  0  0  0  0  0  0  0  0  0  0
   29.9465   -0.2010   18.8488 H   0  0  0  0  0  0  0  0  0  0  0  0
   39.8738    6.7553   12.0011 H   0  0  0  0  0  0  0  0  0  0  0  0
   40.4169    5.1271   12.4392 H   0  0  0  0  0  0  0  0  0  0  0  0
   40.7370    7.6171   14.1825 H   0  0  0  0  0  0  0  0  0  0  0  0
   42.0248    6.8285   13.2615 H   0  0  0  0  0  0  0  0  0  0  0  0
   41.2651    5.9904   14.6208 H   0  0  0  0  0  0  0  0  0  0  0  0
   39.0945    2.0739   21.3155 H   0  0  0  0  0  0  0  0  0  0  0  0
   41.5076    2.2731   22.1113 H   0  0  0  0  0  0  0  0  0  0  0  0
   47.9583    4.8147   22.9467 H   0  0  0  0  0  0  0  0  0  0  0  0
   49.2218    3.7391   24.8935 H   0  0  0  0  0  0  0  0  0  0  0  0
   49.5862    4.9482   18.7327 H   0  0  0  0  0  0  0  0  0  0  0  0
   49.3419    6.5066   19.4785 H   0  0  0  0  0  0  0  0  0  0  0  0
   50.0740    6.0646   16.5335 H   0  0  0  0  0  0  0  0  0  0  0  0
   51.1672    6.6292   17.7990 H   0  0  0  0  0  0  0  0  0  0  0  0
   49.8168    7.6419   17.2825 H   0  0  0  0  0  0  0  0  0  0  0  0
   43.7963    5.6857   16.0214 H   0  0  0  0  0  0  0  0  0  0  0  0
   44.9569    6.6134   15.0377 H   0  0  0  0  0  0  0  0  0  0  0  0
   43.3479    7.6472   17.4215 H   0  0  0  0  0  0  0  0  0  0  0  0
   43.0645    8.0443   15.7265 H   0  0  0  0  0  0  0  0  0  0  0  0
   44.5391    8.6053   16.5263 H   0  0  0  0  0  0  0  0  0  0  0  0
   48.1966    1.5158   25.7170 H   0  0  0  0  0  0  0  0  0  0  0  0
  1  6  1  0  0  0  0
  1 13  1  0  0  0  0
  2  1  2  0  0  0  0
  3  4  2  0  0  0  0
  3  2  1  0  0  0  0
  4  5  1  0  0  0  0
  5 10  1  0  0  0  0
  5  6  2  0  0  0  0
  6 12  1  0  0  0  0
  7163  1  0  0  0  0
  7  2  1  0  0  0  0
  8  7  2  0  0  0  0
  9  8  1  0  0  0  0
  9  3  1  0  0  0  0
 10 11  2  0  0  0  0
 11 12  1  0  0  0  0
 11 27  1  0  0  0  0
 13 18  1  0  0  0  0
 13 15  2  0  0  0  0
 14 22  1  0  0  0  0
 14  4  1  0  0  0  0
 15 16  1  0  0  0  0
 16167  1  0  0  0  0
 17 16  2  0  0  0  0
 17 23  1  0  0  0  0
 18 17  1  0  0  0  0
 19 14  2  0  0  0  0
 20 19  1  0  0  0  0
 20 21  2  0  0  0  0
 21 22  1  0  0  0  0
 23171  1  0  0  0  0
 23170  1  0  0  0  0
 24173  1  0  0  0  0
 24 23  1  0  0  0  0
 25 21  1  0  0  0  0
 25 26  1  0  0  0  0
 25176  1  0  0  0  0
 26179  1  0  0  0  0
 27 28  2  0  0  0  0
 28 29  1  0  0  0  0
 28180  1  0  0  0  0
 29181  1  0  0  0  0
 30 32  1  0  0  0  0
 30 29  2  0  0  0  0
 31 27  1  0  0  0  0
 31 30  1  0  0  0  0
 32 33  1  0  0  0  0
 34 33  1  0  0  0  0
 34 44  1  0  0  0  0
 35 34  2  0  0  0  0
 36 32  2  0  0  0  0
 36 35  1  0  0  0  0
 37 35  1  0  0  0  0
 37 48  2  0  0  0  0
 38 37  1  0  0  0  0
 39 40  1  0  0  0  0
 39 38  1  0  0  0  0
 40 36  1  0  0  0  0
 41 50  1  0  0  0  0
 41 38  2  0  0  0  0
 42 43  1  0  0  0  0
 42 41  1  0  0  0  0
 43 39  2  0  0  0  0
 44 47  1  0  0  0  0
 44 45  2  0  0  0  0
 45182  1  0  0  0  0
 45 46  1  0  0  0  0
 46183  1  0  0  0  0
 47 54  1  0  0  0  0
 49 40  2  0  0  0  0
 50185  1  0  0  0  0
 50184  1  0  0  0  0
 51187  1  0  0  0  0
 51 50  1  0  0  0  0
 52189  1  0  0  0  0
 52 43  1  0  0  0  0
 53191  1  0  0  0  0
 53 52  1  0  0  0  0
 54 46  2  0  0  0  0
 54 62  1  0  0  0  0
 55 60  1  0  0  0  0
 55 67  1  0  0  0  0
 56 55  2  0  0  0  0
 57 58  2  0  0  0  0
 57 56  1  0  0  0  0
 58 59  1  0  0  0  0
 59 64  1  0  0  0  0
 59 60  2  0  0  0  0
 60 66  1  0  0  0  0
 61 56  1  0  0  0  0
 61194  1  0  0  0  0
 62 61  2  0  0  0  0
 63 62  1  0  0  0  0
 63 57  1  0  0  0  0
 64 65  2  0  0  0  0
 65 81  1  0  0  0  0
 65 66  1  0  0  0  0
 67 72  1  0  0  0  0
 67 69  2  0  0  0  0
 68 58  1  0  0  0  0
 69196  1  0  0  0  0
 69 70  1  0  0  0  0
 70197  1  0  0  0  0
 71 70  2  0  0  0  0
 71 77  1  0  0  0  0
 72 71  1  0  0  0  0
 73 68  2  0  0  0  0
 74 75  2  0  0  0  0
 74 73  1  0  0  0  0
 75 76  1  0  0  0  0
 76 68  1  0  0  0  0
 77200  1  0  0  0  0
 78202  1  0  0  0  0
 78203  1  0  0  0  0
 78 77  1  0  0  0  0
 79206  1  0  0  0  0
 79 75  1  0  0  0  0
 79 80  1  0  0  0  0
 80209  1  0  0  0  0
 81 82  2  0  0  0  0
 82 83  1  0  0  0  0
 82210  1  0  0  0  0
 83211  1  0  0  0  0
 84 86  1  0  0  0  0
 84 83  2  0  0  0  0
 85 81  1  0  0  0  0
 85 84  1  0  0  0  0
 86 87  1  0  0  0  0
 88 87  1  0  0  0  0
 88 98  1  0  0  0  0
 89 88  2  0  0  0  0
 90 89  1  0  0  0  0
 90 86  2  0  0  0  0
 91102  2  0  0  0  0
 91 89  1  0  0  0  0
 92 91  1  0  0  0  0
 93 94  1  0  0  0  0
 93 92  1  0  0  0  0
 94 90  1  0  0  0  0
 95104  1  0  0  0  0
 95 92  2  0  0  0  0
 96 97  1  0  0  0  0
 96 95  1  0  0  0  0
 97 93  2  0  0  0  0
 98 99  2  0  0  0  0
 99212  1  0  0  0  0
 99100  1  0  0  0  0
100213  1  0  0  0  0
101 98  1  0  0  0  0
101108  1  0  0  0  0
103 94  2  0  0  0  0
104214  1  0  0  0  0
104215  1  0  0  0  0
105217  1  0  0  0  0
105104  1  0  0  0  0
106219  1  0  0  0  0
106 97  1  0  0  0  0
107106  1  0  0  0  0
107221  1  0  0  0  0
108100  2  0  0  0  0
108116  1  0  0  0  0
109114  1  0  0  0  0
109121  1  0  0  0  0
110109  2  0  0  0  0
111112  2  0  0  0  0
111110  1  0  0  0  0
112113  1  0  0  0  0
113118  1  0  0  0  0
113114  2  0  0  0  0
114120  1  0  0  0  0
115110  1  0  0  0  0
115224  1  0  0  0  0
116115  2  0  0  0  0
117116  1  0  0  0  0
117111  1  0  0  0  0
118119  2  0  0  0  0
119120  1  0  0  0  0
119135  1  0  0  0  0
121123  2  0  0  0  0
122112  1  0  0  0  0
123226  1  0  0  0  0
123124  1  0  0  0  0
124227  1  0  0  0  0
125131  1  0  0  0  0
125124  2  0  0  0  0
126121  1  0  0  0  0
126125  1  0  0  0  0
127228  1  0  0  0  0
127122  2  0  0  0  0
128129  2  0  0  0  0
128127  1  0  0  0  0
129130  1  0  0  0  0
130122  1  0  0  0  0
131230  1  0  0  0  0
132233  1  0  0  0  0
132131  1  0  0  0  0
132232  1  0  0  0  0
133129  1  0  0  0  0
133134  1  0  0  0  0
134237  1  0  0  0  0
134239  1  0  0  0  0
135136  2  0  0  0  0
136137  1  0  0  0  0
136240  1  0  0  0  0
137241  1  0  0  0  0
138140  1  0  0  0  0
138137  2  0  0  0  0
139135  1  0  0  0  0
139138  1  0  0  0  0
140141  1  0  0  0  0
142141  1  0  0  0  0
142152  1  0  0  0  0
143142  2  0  0  0  0
144140  2  0  0  0  0
144143  1  0  0  0  0
145156  2  0  0  0  0
145143  1  0  0  0  0
146145  1  0  0  0  0
147148  1  0  0  0  0
147146  1  0  0  0  0
148144  1  0  0  0  0
149158  1  0  0  0  0
149146  2  0  0  0  0
150151  1  0  0  0  0
150149  1  0  0  0  0
151147  2  0  0  0  0
152153  2  0  0  0  0
152155  1  0  0  0  0
153154  1  0  0  0  0
154243  1  0  0  0  0
154162  2  0  0  0  0
155162  1  0  0  0  0
157148  2  0  0  0  0
158244  1  0  0  0  0
158245  1  0  0  0  0
159247  1  0  0  0  0
159158  1  0  0  0  0
160161  1  0  0  0  0
160151  1  0  0  0  0
161253  1  0  0  0  0
161251  1  0  0  0  0
162254  1  0  0  0  0
164  8  1  0  0  0  0
165 10  1  0  0  0  0
166 15  1  0  0  0  0
168 19  1  0  0  0  0
169 20  1  0  0  0  0
172 24  1  0  0  0  0
174 24  1  0  0  0  0
175 25  1  0  0  0  0
177 26  1  0  0  0  0
178 26  1  0  0  0  0
186 51  1  0  0  0  0
188 51  1  0  0  0  0
190 52  1  0  0  0  0
192 53  1  0  0  0  0
193 53  1  0  0  0  0
195 64  1  0  0  0  0
198 73  1  0  0  0  0
199 74  1  0  0  0  0
201 77  1  0  0  0  0
204 78  1  0  0  0  0
205 79  1  0  0  0  0
207 80  1  0  0  0  0
208 80  1  0  0  0  0
216105  1  0  0  0  0
218105  1  0  0  0  0
220106  1  0  0  0  0
222107  1  0  0  0  0
223107  1  0  0  0  0
225118  1  0  0  0  0
229128  1  0  0  0  0
231131  1  0  0  0  0
234132  1  0  0  0  0
235133  1  0  0  0  0
236133  1  0  0  0  0
238134  1  0  0  0  0
242153  1  0  0  0  0
246159  1  0  0  0  0
248159  1  0  0  0  0
249160  1  0  0  0  0
250160  1  0  0  0  0
252161  1  0  0  0  0
M  END
