SCF done       -480.666508342873          0.000592300759
 OpenBabel12282109573D

254283  0  0  0  0  0  0  0  0999 V2000
    4.6923   10.3579   10.7099 C   0  0  0  0  0  0  0  0  0  0  0  0
    3.4876   10.7162   11.3429 C   0  0  0  0  0  0  0  0  0  0  0  0
    2.2614   10.6333   10.6409 C   0  0  0  0  0  0  0  0  0  0  0  0
    2.1674   10.2201    9.3161 C   0  0  0  0  0  0  0  0  0  0  0  0
    3.3659    9.8160    8.6988 C   0  0  0  0  0  0  0  0  0  0  0  0
    4.5920    9.8913    9.4020 C   0  0  0  0  0  0  0  0  0  0  0  0
    3.2905   11.1693   12.6804 C   0  0  0  0  0  0  0  0  0  0  0  0
    1.9992   11.4376   12.9609 C   0  0  0  0  0  0  0  0  0  0  0  0
    0.9292   11.1577   11.6338 S   0  0  0  0  0  0  0  0  0  0  0  0
    3.5313    9.3037    7.3883 C   0  0  0  0  0  0  0  0  0  0  0  0
    4.8279    9.0300    7.0659 C   0  0  0  0  0  0  0  0  0  0  0  0
    5.9186    9.3740    8.3982 S   0  0  0  0  0  0  0  0  0  0  0  0
    5.9841   10.4879   11.3558 C   0  0  0  0  0  0  0  0  0  0  0  0
    0.9170   10.2174    8.5836 C   0  0  0  0  0  0  0  0  0  0  0  0
    7.0548    9.6439   11.2749 C   0  0  0  0  0  0  0  0  0  0  0  0
    8.1759   10.1195   11.9881 C   0  0  0  0  0  0  0  0  0  0  0  0
    7.9915   11.3271   12.5958 C   0  0  0  0  0  0  0  0  0  0  0  0
    6.3832   11.8915   12.3081 S   0  0  0  0  0  0  0  0  0  0  0  0
    0.6981   10.6339    7.3010 C   0  0  0  0  0  0  0  0  0  0  0  0
   -0.6466   10.4799    6.9031 C   0  0  0  0  0  0  0  0  0  0  0  0
   -1.4585    9.9374    7.8569 C   0  0  0  0  0  0  0  0  0  0  0  0
   -0.5562    9.6273    9.2989 S   0  0  0  0  0  0  0  0  0  0  0  0
    8.9374   12.0912   13.4549 C   0  0  0  0  0  0  0  0  0  0  0  0
    8.7353   11.7492   14.9333 C   0  0  0  0  0  0  0  0  0  0  0  0
   -2.9228    9.6774    7.7925 C   0  0  0  0  0  0  0  0  0  0  0  0
   -3.7130   10.8661    8.3453 C   0  0  0  0  0  0  0  0  0  0  0  0
    5.3585    8.5254    5.8415 C   0  0  0  0  0  0  0  0  0  0  0  0
    4.7560    8.3695    4.6060 C   0  0  0  0  0  0  0  0  0  0  0  0
    5.6017    7.8651    3.6092 C   0  0  0  0  0  0  0  0  0  0  0  0
    6.8770    7.6285    4.0569 C   0  0  0  0  0  0  0  0  0  0  0  0
    7.0163    8.0194    5.7509 S   0  0  0  0  0  0  0  0  0  0  0  0
    8.0043    7.0636    3.3851 C   0  0  0  0  0  0  0  0  0  0  0  0
    9.0963    6.1070    4.3335 S   0  0  0  0  0  0  0  0  0  0  0  0
   10.0967    5.7421    2.9555 C   0  0  0  0  0  0  0  0  0  0  0  0
    9.5963    6.3520    1.8106 C   0  0  0  0  0  0  0  0  0  0  0  0
    8.4213    7.1282    2.0650 C   0  0  0  0  0  0  0  0  0  0  0  0
   10.1551    6.2399    0.4549 C   0  0  0  0  0  0  0  0  0  0  0  0
    9.6737    7.2600   -0.4743 C   0  0  0  0  0  0  0  0  0  0  0  0
    8.5766    8.1276   -0.1756 C   0  0  0  0  0  0  0  0  0  0  0  0
    7.8276    8.0420    1.0760 C   0  0  0  0  0  0  0  0  0  0  0  0
   10.2142    7.4887   -1.7154 C   0  0  0  0  0  0  0  0  0  0  0  0
    9.3786    8.7711   -2.5225 S   0  0  0  0  0  0  0  0  0  0  0  0
    8.2852    8.9937   -1.2005 C   0  0  0  0  0  0  0  0  0  0  0  0
   11.2679    4.9734    3.2306 C   0  0  0  0  0  0  0  0  0  0  0  0
   12.1751    4.3430    2.4126 C   0  0  0  0  0  0  0  0  0  0  0  0
   13.2068    3.7125    3.1188 C   0  0  0  0  0  0  0  0  0  0  0  0
   11.7076    4.7505    4.9116 S   0  0  0  0  0  0  0  0  0  0  0  0
   10.9351    5.3669    0.1085 O   0  0  0  0  0  0  0  0  0  0  0  0
    6.8292    8.7086    1.2944 O   0  0  0  0  0  0  0  0  0  0  0  0
   11.3263    6.7822   -2.4015 C   0  0  0  0  0  0  0  0  0  0  0  0
   10.8024    5.5490   -3.1436 C   0  0  0  0  0  0  0  0  0  0  0  0
    7.2497   10.0571   -1.2624 C   0  0  0  0  0  0  0  0  0  0  0  0
    7.7239   11.3190   -0.5354 C   0  0  0  0  0  0  0  0  0  0  0  0
   13.1179    3.8297    4.4933 C   0  0  0  0  0  0  0  0  0  0  0  0
    9.6569    9.2481   12.0757 Cl  0  0  0  0  0  0  0  0  0  0  0  0
   -1.2026   10.9309    5.3368 Cl  0  0  0  0  0  0  0  0  0  0  0  0
    3.1245    8.7628    4.2580 Cl  0  0  0  0  0  0  0  0  0  0  0  0
   14.4742    2.8659    2.3351 Cl  0  0  0  0  0  0  0  0  0  0  0  0
   15.0023    3.0147    9.0468 C   0  0  0  0  0  0  0  0  0  0  0  0
   14.8622    2.9938    7.6423 C   0  0  0  0  0  0  0  0  0  0  0  0
   15.8736    2.4197    6.8324 C   0  0  0  0  0  0  0  0  0  0  0  0
   17.0446    1.8778    7.3457 C   0  0  0  0  0  0  0  0  0  0  0  0
   17.1791    1.8855    8.7468 C   0  0  0  0  0  0  0  0  0  0  0  0
   16.1636    2.4447    9.5607 C   0  0  0  0  0  0  0  0  0  0  0  0
   13.7999    3.4980    6.8584 C   0  0  0  0  0  0  0  0  0  0  0  0
   13.9905    3.3579    5.5113 C   0  0  0  0  0  0  0  0  0  0  0  0
   15.4952    2.5489    5.1386 S   0  0  0  0  0  0  0  0  0  0  0  0
   18.2662    1.3945    9.5085 C   0  0  0  0  0  0  0  0  0  0  0  0
   18.1352    1.6033   10.8498 C   0  0  0  0  0  0  0  0  0  0  0  0
   16.6108    2.3781   11.2446 S   0  0  0  0  0  0  0  0  0  0  0  0
   14.0105    3.6122    9.9172 C   0  0  0  0  0  0  0  0  0  0  0  0
   18.0960    1.3620    6.4913 C   0  0  0  0  0  0  0  0  0  0  0  0
   13.6036    3.1765   11.1468 C   0  0  0  0  0  0  0  0  0  0  0  0
   12.6285    4.0155   11.7274 C   0  0  0  0  0  0  0  0  0  0  0  0
   12.2950    5.1037   10.9745 C   0  0  0  0  0  0  0  0  0  0  0  0
   13.1951    5.0950    9.4986 S   0  0  0  0  0  0  0  0  0  0  0  0
   19.4426    1.5613    6.5971 C   0  0  0  0  0  0  0  0  0  0  0  0
   20.1688    0.9065    5.5791 C   0  0  0  0  0  0  0  0  0  0  0  0
   19.3995    0.1981    4.7025 C   0  0  0  0  0  0  0  0  0  0  0  0
   17.7281    0.3516    5.1221 S   0  0  0  0  0  0  0  0  0  0  0  0
   11.2795    6.1582   11.2391 C   0  0  0  0  0  0  0  0  0  0  0  0
   10.0377    5.9572   10.3676 C   0  0  0  0  0  0  0  0  0  0  0  0
   19.8178   -0.5741    3.5007 C   0  0  0  0  0  0  0  0  0  0  0  0
   19.4925    0.1910    2.2161 C   0  0  0  0  0  0  0  0  0  0  0  0
   19.0772    1.3064   11.8814 C   0  0  0  0  0  0  0  0  0  0  0  0
   20.4395    1.0976   11.7787 C   0  0  0  0  0  0  0  0  0  0  0  0
   21.0852    0.9039   13.0072 C   0  0  0  0  0  0  0  0  0  0  0  0
   20.2291    0.9612   14.0749 C   0  0  0  0  0  0  0  0  0  0  0  0
   18.5945    1.2342   13.5481 S   0  0  0  0  0  0  0  0  0  0  0  0
   20.5497    0.7820   15.4614 C   0  0  0  0  0  0  0  0  0  0  0  0
   19.5834   -0.2725   16.4391 S   0  0  0  0  0  0  0  0  0  0  0  0
   20.6260   -0.0550   17.8177 C   0  0  0  0  0  0  0  0  0  0  0  0
   21.6521    0.8371   17.5309 C   0  0  0  0  0  0  0  0  0  0  0  0
   21.6060    1.3060   16.1819 C   0  0  0  0  0  0  0  0  0  0  0  0
   22.6376    1.3522   18.4947 C   0  0  0  0  0  0  0  0  0  0  0  0
   23.6090    2.2777   17.9208 C   0  0  0  0  0  0  0  0  0  0  0  0
   23.5562    2.7470   16.5717 C   0  0  0  0  0  0  0  0  0  0  0  0
   22.5089    2.3382   15.6408 C   0  0  0  0  0  0  0  0  0  0  0  0
   24.6731    2.7896   18.6254 C   0  0  0  0  0  0  0  0  0  0  0  0
   25.6271    3.8301   17.6267 S   0  0  0  0  0  0  0  0  0  0  0  0
   24.5877    3.5979   16.2624 C   0  0  0  0  0  0  0  0  0  0  0  0
   20.3223   -0.8278   18.9794 C   0  0  0  0  0  0  0  0  0  0  0  0
   21.1262   -1.2302   20.0185 C   0  0  0  0  0  0  0  0  0  0  0  0
   20.4683   -2.0533   20.9387 C   0  0  0  0  0  0  0  0  0  0  0  0
   18.7233   -1.5089   19.1514 S   0  0  0  0  0  0  0  0  0  0  0  0
   22.6552    1.0561   19.6798 O   0  0  0  0  0  0  0  0  0  0  0  0
   22.3810    2.8212   14.5284 O   0  0  0  0  0  0  0  0  0  0  0  0
   25.0298    2.5343   20.0441 C   0  0  0  0  0  0  0  0  0  0  0  0
   26.3445    3.1749   20.4640 C   0  0  0  0  0  0  0  0  0  0  0  0
   24.8570    4.3163   14.9908 C   0  0  0  0  0  0  0  0  0  0  0  0
   24.0845    5.6381   14.9453 C   0  0  0  0  0  0  0  0  0  0  0  0
   19.1454   -2.3180   20.6287 C   0  0  0  0  0  0  0  0  0  0  0  0
   11.9272    3.6803   13.2636 Cl  0  0  0  0  0  0  0  0  0  0  0  0
   21.8856    0.9978    5.4737 Cl  0  0  0  0  0  0  0  0  0  0  0  0
   21.3235    1.1137   10.3113 Cl  0  0  0  0  0  0  0  0  0  0  0  0
   21.3008   -2.6703   22.3029 Cl  0  0  0  0  0  0  0  0  0  0  0  0
   16.9354   -5.1697   24.1087 C   0  0  0  0  0  0  0  0  0  0  0  0
   17.1302   -4.4204   22.9305 C   0  0  0  0  0  0  0  0  0  0  0  0
   16.1158   -4.3652   21.9423 C   0  0  0  0  0  0  0  0  0  0  0  0
   14.9068   -5.0422   22.0522 C   0  0  0  0  0  0  0  0  0  0  0  0
   14.7042   -5.7804   23.2365 C   0  0  0  0  0  0  0  0  0  0  0  0
   15.7199   -5.8362   24.2220 C   0  0  0  0  0  0  0  0  0  0  0  0
   18.2870   -3.7063   22.5416 C   0  0  0  0  0  0  0  0  0  0  0  0
   18.1795   -3.1057   21.3197 C   0  0  0  0  0  0  0  0  0  0  0  0
   16.6171   -3.4033   20.5801 S   0  0  0  0  0  0  0  0  0  0  0  0
   13.5363   -6.4752   23.6357 C   0  0  0  0  0  0  0  0  0  0  0  0
   13.6421   -7.0654   24.8625 C   0  0  0  0  0  0  0  0  0  0  0  0
   15.2112   -6.7800   25.5928 S   0  0  0  0  0  0  0  0  0  0  0  0
   17.9236   -5.2384   25.1655 C   0  0  0  0  0  0  0  0  0  0  0  0
   13.9049   -5.0166   21.0064 C   0  0  0  0  0  0  0  0  0  0  0  0
   18.2409   -6.3136   25.9470 C   0  0  0  0  0  0  0  0  0  0  0  0
   19.2213   -6.0127   26.9159 C   0  0  0  0  0  0  0  0  0  0  0  0
   19.6470   -4.7161   26.9069 C   0  0  0  0  0  0  0  0  0  0  0  0
   18.8349   -3.8378   25.6592 S   0  0  0  0  0  0  0  0  0  0  0  0
   13.1497   -6.0567   20.5431 C   0  0  0  0  0  0  0  0  0  0  0  0
   12.2743   -5.6711   19.5061 C   0  0  0  0  0  0  0  0  0  0  0  0
   12.3375   -4.3479   19.1766 C   0  0  0  0  0  0  0  0  0  0  0  0
   13.5225   -3.5492   20.1508 S   0  0  0  0  0  0  0  0  0  0  0  0
   20.6953   -4.0670   27.7404 C   0  0  0  0  0  0  0  0  0  0  0  0
   21.9976   -3.9065   26.9525 C   0  0  0  0  0  0  0  0  0  0  0  0
   11.5961   -3.6146   18.1146 C   0  0  0  0  0  0  0  0  0  0  0  0
   12.4473   -3.4749   16.8503 C   0  0  0  0  0  0  0  0  0  0  0  0
   12.6898   -7.8478   25.5795 C   0  0  0  0  0  0  0  0  0  0  0  0
   11.4723   -8.3721   25.1849 C   0  0  0  0  0  0  0  0  0  0  0  0
   10.8172   -9.1223   26.1712 C   0  0  0  0  0  0  0  0  0  0  0  0
   11.5226   -9.1956   27.3465 C   0  0  0  0  0  0  0  0  0  0  0  0
   13.0144   -8.2999   27.2234 S   0  0  0  0  0  0  0  0  0  0  0  0
   11.1973   -9.7934   28.6038 C   0  0  0  0  0  0  0  0  0  0  0  0
   11.8420   -9.0244   30.0220 S   0  0  0  0  0  0  0  0  0  0  0  0
   11.0778  -10.1711   31.0787 C   0  0  0  0  0  0  0  0  0  0  0  0
   10.3787  -11.1226   30.3552 C   0  0  0  0  0  0  0  0  0  0  0  0
   10.4517  -10.9118   28.9424 C   0  0  0  0  0  0  0  0  0  0  0  0
    9.7032  -12.2863   30.9508 C   0  0  0  0  0  0  0  0  0  0  0  0
    9.2561  -13.2787   29.9746 C   0  0  0  0  0  0  0  0  0  0  0  0
    9.3598  -13.0830   28.5602 C   0  0  0  0  0  0  0  0  0  0  0  0
    9.9139  -11.8687   27.9638 C   0  0  0  0  0  0  0  0  0  0  0  0
    8.6996  -14.4894   30.3068 C   0  0  0  0  0  0  0  0  0  0  0  0
    8.2874  -15.3883   28.8871 S   0  0  0  0  0  0  0  0  0  0  0  0
    8.8609  -14.1389   27.8375 C   0  0  0  0  0  0  0  0  0  0  0  0
   11.2893   -9.9885   32.4851 C   0  0  0  0  0  0  0  0  0  0  0  0
   10.4669  -10.2186   33.5552 C   0  0  0  0  0  0  0  0  0  0  0  0
   11.0552   -9.8308   34.7760 C   0  0  0  0  0  0  0  0  0  0  0  0
   12.7953   -9.2679   33.0052 S   0  0  0  0  0  0  0  0  0  0  0  0
    9.5364  -12.4238   32.1513 O   0  0  0  0  0  0  0  0  0  0  0  0
    9.9554  -11.6874   26.7577 O   0  0  0  0  0  0  0  0  0  0  0  0
    8.3888  -15.0450   31.6489 C   0  0  0  0  0  0  0  0  0  0  0  0
    7.0167  -14.5598   32.1264 C   0  0  0  0  0  0  0  0  0  0  0  0
    8.8187  -14.3327   26.3651 C   0  0  0  0  0  0  0  0  0  0  0  0
   10.1670  -14.8439   25.8486 C   0  0  0  0  0  0  0  0  0  0  0  0
   12.3062   -9.3055   34.6438 C   0  0  0  0  0  0  0  0  0  0  0  0
   19.8168   -7.1938   28.0179 Cl  0  0  0  0  0  0  0  0  0  0  0  0
   11.2124   -6.7871   18.7359 Cl  0  0  0  0  0  0  0  0  0  0  0  0
   10.7866   -8.1644   23.6280 Cl  0  0  0  0  0  0  0  0  0  0  0  0
   10.2628   -9.9991   36.2886 Cl  0  0  0  0  0  0  0  0  0  0  0  0
    4.0832   11.2746   13.3973 H   0  0  0  0  0  0  0  0  0  0  0  0
    1.5862   11.7854   13.8874 H   0  0  0  0  0  0  0  0  0  0  0  0
    2.7070    9.1150    6.7292 H   0  0  0  0  0  0  0  0  0  0  0  0
    7.0427    8.7024   10.7581 H   0  0  0  0  0  0  0  0  0  0  0  0
    1.4510   11.0739    6.6734 H   0  0  0  0  0  0  0  0  0  0  0  0
    8.7821   13.1615   13.3057 H   0  0  0  0  0  0  0  0  0  0  0  0
    9.9591   11.8433   13.1596 H   0  0  0  0  0  0  0  0  0  0  0  0
    7.7220   11.9952   15.2428 H   0  0  0  0  0  0  0  0  0  0  0  0
    9.4336   12.3125   15.5466 H   0  0  0  0  0  0  0  0  0  0  0  0
    8.9020   10.6879   15.1010 H   0  0  0  0  0  0  0  0  0  0  0  0
   -3.1597    8.7831    8.3719 H   0  0  0  0  0  0  0  0  0  0  0  0
   -3.2040    9.5037    6.7518 H   0  0  0  0  0  0  0  0  0  0  0  0
   -3.4438   11.0476    9.3833 H   0  0  0  0  0  0  0  0  0  0  0  0
   -4.7796   10.6648    8.2902 H   0  0  0  0  0  0  0  0  0  0  0  0
   -3.4971   11.7624    7.7689 H   0  0  0  0  0  0  0  0  0  0  0  0
    5.2791    7.6883    2.6014 H   0  0  0  0  0  0  0  0  0  0  0  0
   12.0976    4.3314    1.3421 H   0  0  0  0  0  0  0  0  0  0  0  0
   12.0551    6.4580   -1.6565 H   0  0  0  0  0  0  0  0  0  0  0  0
   11.8088    7.4593   -3.1091 H   0  0  0  0  0  0  0  0  0  0  0  0
   10.3729    4.8481   -2.4330 H   0  0  0  0  0  0  0  0  0  0  0  0
   11.6185    5.0580   -3.6662 H   0  0  0  0  0  0  0  0  0  0  0  0
   10.0417    5.8326   -3.8678 H   0  0  0  0  0  0  0  0  0  0  0  0
    6.3423    9.6943   -0.7764 H   0  0  0  0  0  0  0  0  0  0  0  0
    7.0322   10.2939   -2.3056 H   0  0  0  0  0  0  0  0  0  0  0  0
    7.8827   11.1018    0.5175 H   0  0  0  0  0  0  0  0  0  0  0  0
    6.9703   12.0973   -0.6182 H   0  0  0  0  0  0  0  0  0  0  0  0
    8.6539   11.6840   -0.9663 H   0  0  0  0  0  0  0  0  0  0  0  0
   12.9127    3.9526    7.2589 H   0  0  0  0  0  0  0  0  0  0  0  0
   19.0976    0.8775    9.0714 H   0  0  0  0  0  0  0  0  0  0  0  0
   13.9482    2.2723   11.6127 H   0  0  0  0  0  0  0  0  0  0  0  0
   19.9043    2.1848    7.3403 H   0  0  0  0  0  0  0  0  0  0  0  0
   11.7080    7.1411   11.0302 H   0  0  0  0  0  0  0  0  0  0  0  0
   11.0008    6.1204   12.2938 H   0  0  0  0  0  0  0  0  0  0  0  0
   10.3035    6.0014    9.3136 H   0  0  0  0  0  0  0  0  0  0  0  0
    9.3095    6.7360   10.5748 H   0  0  0  0  0  0  0  0  0  0  0  0
    9.5838    4.9905   10.5731 H   0  0  0  0  0  0  0  0  0  0  0  0
   19.3012   -1.5366    3.4875 H   0  0  0  0  0  0  0  0  0  0  0  0
   20.8921   -0.7578    3.5597 H   0  0  0  0  0  0  0  0  0  0  0  0
   18.4237    0.3833    2.1530 H   0  0  0  0  0  0  0  0  0  0  0  0
   19.7957   -0.3882    1.3479 H   0  0  0  0  0  0  0  0  0  0  0  0
   20.0172    1.1433    2.2005 H   0  0  0  0  0  0  0  0  0  0  0  0
   22.1416    0.7356   13.0969 H   0  0  0  0  0  0  0  0  0  0  0  0
   22.1525   -0.9385   20.1279 H   0  0  0  0  0  0  0  0  0  0  0  0
   25.0634    1.4514   20.2005 H   0  0  0  0  0  0  0  0  0  0  0  0
   24.2112    2.8984   20.6736 H   0  0  0  0  0  0  0  0  0  0  0  0
   27.1659    2.7987   19.8576 H   0  0  0  0  0  0  0  0  0  0  0  0
   26.5537    2.9492   21.5062 H   0  0  0  0  0  0  0  0  0  0  0  0
   26.2990    4.2559   20.3478 H   0  0  0  0  0  0  0  0  0  0  0  0
   24.5287    3.6933   14.1568 H   0  0  0  0  0  0  0  0  0  0  0  0
   25.9272    4.5122   14.8993 H   0  0  0  0  0  0  0  0  0  0  0  0
   23.0163    5.4406   14.9759 H   0  0  0  0  0  0  0  0  0  0  0  0
   24.3128    6.1676   14.0245 H   0  0  0  0  0  0  0  0  0  0  0  0
   24.3540    6.2693   15.7896 H   0  0  0  0  0  0  0  0  0  0  0  0
   19.1706   -3.6477   23.1448 H   0  0  0  0  0  0  0  0  0  0  0  0
   12.6394   -6.4971   23.0486 H   0  0  0  0  0  0  0  0  0  0  0  0
   17.8280   -7.2969   25.8202 H   0  0  0  0  0  0  0  0  0  0  0  0
   13.2396   -7.0694   20.8902 H   0  0  0  0  0  0  0  0  0  0  0  0
   20.8718   -4.6840   28.6233 H   0  0  0  0  0  0  0  0  0  0  0  0
   20.3476   -3.0842   28.0665 H   0  0  0  0  0  0  0  0  0  0  0  0
   22.3650   -4.8777   26.6293 H   0  0  0  0  0  0  0  0  0  0  0  0
   22.7559   -3.4361   27.5728 H   0  0  0  0  0  0  0  0  0  0  0  0
   21.8329   -3.2880   26.0730 H   0  0  0  0  0  0  0  0  0  0  0  0
   11.3245   -2.6218   18.4787 H   0  0  0  0  0  0  0  0  0  0  0  0
   10.6811   -4.1632   17.8829 H   0  0  0  0  0  0  0  0  0  0  0  0
   13.3629   -2.9307   17.0705 H   0  0  0  0  0  0  0  0  0  0  0  0
   11.8952   -2.9355   16.0853 H   0  0  0  0  0  0  0  0  0  0  0  0
   12.7112   -4.4562   16.4630 H   0  0  0  0  0  0  0  0  0  0  0  0
    9.8659   -9.5930   26.0149 H   0  0  0  0  0  0  0  0  0  0  0  0
    9.4874  -10.6480   33.4797 H   0  0  0  0  0  0  0  0  0  0  0  0
    9.1465  -14.7062   32.3576 H   0  0  0  0  0  0  0  0  0  0  0  0
    8.3960  -16.1359   31.6034 H   0  0  0  0  0  0  0  0  0  0  0  0
    7.0217  -13.4774   32.2220 H   0  0  0  0  0  0  0  0  0  0  0  0
    6.7887  -14.9928   33.0962 H   0  0  0  0  0  0  0  0  0  0  0  0
    6.2409  -14.8500   31.4207 H   0  0  0  0  0  0  0  0  0  0  0  0
    8.6022  -13.3752   25.8882 H   0  0  0  0  0  0  0  0  0  0  0  0
    8.0337  -15.0486   26.1139 H   0  0  0  0  0  0  0  0  0  0  0  0
   10.9396  -14.1033   26.0370 H   0  0  0  0  0  0  0  0  0  0  0  0
   10.1094  -15.0196   24.7780 H   0  0  0  0  0  0  0  0  0  0  0  0
   10.4393  -15.7743   26.3427 H   0  0  0  0  0  0  0  0  0  0  0  0
   12.9597   -8.9480   35.4135 H   0  0  0  0  0  0  0  0  0  0  0  0
  1  2  1  0  0  0  0
  1 13  1  0  0  0  0
  2  7  1  0  0  0  0
  3  2  2  0  0  0  0
  3  9  1  0  0  0  0
  4  3  1  0  0  0  0
  5  4  2  0  0  0  0
  5  6  1  0  0  0  0
  6  1  2  0  0  0  0
  7  8  2  0  0  0  0
  7175  1  0  0  0  0
  8176  1  0  0  0  0
  9  8  1  0  0  0  0
 10  5  1  0  0  0  0
 11 10  2  0  0  0  0
 11 12  1  0  0  0  0
 12  6  1  0  0  0  0
 13 18  1  0  0  0  0
 14 22  1  0  0  0  0
 14  4  1  0  0  0  0
 15 13  2  0  0  0  0
 15 16  1  0  0  0  0
 16 55  1  0  0  0  0
 16 17  2  0  0  0  0
 17 23  1  0  0  0  0
 18 17  1  0  0  0  0
 19 14  2  0  0  0  0
 20 19  1  0  0  0  0
 20 21  2  0  0  0  0
 21 22  1  0  0  0  0
 23 24  1  0  0  0  0
 24184  1  0  0  0  0
 24182  1  0  0  0  0
 24183  1  0  0  0  0
 25 21  1  0  0  0  0
 25 26  1  0  0  0  0
 25185  1  0  0  0  0
 26187  1  0  0  0  0
 27 11  1  0  0  0  0
 28 27  2  0  0  0  0
 29 30  2  0  0  0  0
 29 28  1  0  0  0  0
 30 31  1  0  0  0  0
 31 27  1  0  0  0  0
 32 30  1  0  0  0  0
 32 33  1  0  0  0  0
 34 44  1  0  0  0  0
 34 33  1  0  0  0  0
 35 36  1  0  0  0  0
 35 34  2  0  0  0  0
 36 32  2  0  0  0  0
 37 35  1  0  0  0  0
 38 39  1  0  0  0  0
 38 37  1  0  0  0  0
 39 40  1  0  0  0  0
 40 49  2  0  0  0  0
 40 36  1  0  0  0  0
 41 38  2  0  0  0  0
 42 41  1  0  0  0  0
 42 43  1  0  0  0  0
 43 39  2  0  0  0  0
 44 47  1  0  0  0  0
 45 46  1  0  0  0  0
 45 44  2  0  0  0  0
 46 54  2  0  0  0  0
 48 37  2  0  0  0  0
 50 41  1  0  0  0  0
 50192  1  0  0  0  0
 51194  1  0  0  0  0
 51 50  1  0  0  0  0
 52 43  1  0  0  0  0
 52197  1  0  0  0  0
 52 53  1  0  0  0  0
 53199  1  0  0  0  0
 54 47  1  0  0  0  0
 54 66  1  0  0  0  0
 56 20  1  0  0  0  0
 57 28  1  0  0  0  0
 58 46  1  0  0  0  0
 59 64  1  0  0  0  0
 59 71  1  0  0  0  0
 60 59  2  0  0  0  0
 61 62  2  0  0  0  0
 61 60  1  0  0  0  0
 62 63  1  0  0  0  0
 63 68  1  0  0  0  0
 63 64  2  0  0  0  0
 64 70  1  0  0  0  0
 65202  1  0  0  0  0
 65 60  1  0  0  0  0
 66 65  2  0  0  0  0
 67 66  1  0  0  0  0
 67 61  1  0  0  0  0
 68 69  2  0  0  0  0
 69 70  1  0  0  0  0
 69 85  1  0  0  0  0
 71 73  2  0  0  0  0
 72 77  2  0  0  0  0
 72 62  1  0  0  0  0
 73204  1  0  0  0  0
 73 74  1  0  0  0  0
 74113  1  0  0  0  0
 75 81  1  0  0  0  0
 75 74  2  0  0  0  0
 76 71  1  0  0  0  0
 76 75  1  0  0  0  0
 77205  1  0  0  0  0
 78 77  1  0  0  0  0
 79 80  1  0  0  0  0
 79 78  2  0  0  0  0
 80 72  1  0  0  0  0
 81207  1  0  0  0  0
 82210  1  0  0  0  0
 82209  1  0  0  0  0
 82 81  1  0  0  0  0
 83212  1  0  0  0  0
 83 79  1  0  0  0  0
 84 83  1  0  0  0  0
 85 89  1  0  0  0  0
 86 85  2  0  0  0  0
 86 87  1  0  0  0  0
 87216  1  0  0  0  0
 87 88  2  0  0  0  0
 88 90  1  0  0  0  0
 89 88  1  0  0  0  0
 90 94  2  0  0  0  0
 90 91  1  0  0  0  0
 91 92  1  0  0  0  0
 92102  1  0  0  0  0
 93 92  2  0  0  0  0
 93 95  1  0  0  0  0
 94 93  1  0  0  0  0
 95106  2  0  0  0  0
 96 95  1  0  0  0  0
 96 99  2  0  0  0  0
 97 96  1  0  0  0  0
 98 94  1  0  0  0  0
 98 97  1  0  0  0  0
 99108  1  0  0  0  0
100 99  1  0  0  0  0
101 97  2  0  0  0  0
101100  1  0  0  0  0
102105  1  0  0  0  0
102103  2  0  0  0  0
103217  1  0  0  0  0
103104  1  0  0  0  0
104116  1  0  0  0  0
105112  1  0  0  0  0
107 98  2  0  0  0  0
108218  1  0  0  0  0
108109  1  0  0  0  0
108219  1  0  0  0  0
109221  1  0  0  0  0
110101  1  0  0  0  0
111225  1  0  0  0  0
111110  1  0  0  0  0
111227  1  0  0  0  0
112104  2  0  0  0  0
112124  1  0  0  0  0
114 78  1  0  0  0  0
115 86  1  0  0  0  0
117122  1  0  0  0  0
117129  1  0  0  0  0
118117  2  0  0  0  0
119120  2  0  0  0  0
119118  1  0  0  0  0
120121  1  0  0  0  0
121126  1  0  0  0  0
121122  2  0  0  0  0
122128  1  0  0  0  0
123118  1  0  0  0  0
123228  1  0  0  0  0
124123  2  0  0  0  0
125124  1  0  0  0  0
125119  1  0  0  0  0
126127  2  0  0  0  0
127143  1  0  0  0  0
127128  1  0  0  0  0
129134  1  0  0  0  0
129131  2  0  0  0  0
130120  1  0  0  0  0
131132  1  0  0  0  0
132171  1  0  0  0  0
133132  2  0  0  0  0
133139  1  0  0  0  0
134133  1  0  0  0  0
135231  1  0  0  0  0
135130  2  0  0  0  0
136135  1  0  0  0  0
137136  2  0  0  0  0
137138  1  0  0  0  0
138130  1  0  0  0  0
139233  1  0  0  0  0
139232  1  0  0  0  0
140235  1  0  0  0  0
140139  1  0  0  0  0
141237  1  0  0  0  0
141137  1  0  0  0  0
142239  1  0  0  0  0
142141  1  0  0  0  0
143147  1  0  0  0  0
144143  2  0  0  0  0
144145  1  0  0  0  0
145146  2  0  0  0  0
146148  1  0  0  0  0
147146  1  0  0  0  0
148152  2  0  0  0  0
148149  1  0  0  0  0
149150  1  0  0  0  0
150160  1  0  0  0  0
151153  1  0  0  0  0
151150  2  0  0  0  0
152151  1  0  0  0  0
153164  2  0  0  0  0
154157  2  0  0  0  0
154153  1  0  0  0  0
155154  1  0  0  0  0
156155  1  0  0  0  0
156152  1  0  0  0  0
157166  1  0  0  0  0
158157  1  0  0  0  0
159155  2  0  0  0  0
159158  1  0  0  0  0
160163  1  0  0  0  0
160161  2  0  0  0  0
161162  1  0  0  0  0
162174  1  0  0  0  0
163170  1  0  0  0  0
165156  2  0  0  0  0
166167  1  0  0  0  0
166244  1  0  0  0  0
167246  1  0  0  0  0
167247  1  0  0  0  0
168159  1  0  0  0  0
169251  1  0  0  0  0
169253  1  0  0  0  0
169168  1  0  0  0  0
170162  2  0  0  0  0
170254  1  0  0  0  0
172136  1  0  0  0  0
173144  1  0  0  0  0
177 10  1  0  0  0  0
178 15  1  0  0  0  0
179 19  1  0  0  0  0
180 23  1  0  0  0  0
181 23  1  0  0  0  0
186 25  1  0  0  0  0
188 26  1  0  0  0  0
189 26  1  0  0  0  0
190 29  1  0  0  0  0
191 45  1  0  0  0  0
193 50  1  0  0  0  0
195 51  1  0  0  0  0
196 51  1  0  0  0  0
198 52  1  0  0  0  0
200 53  1  0  0  0  0
201 53  1  0  0  0  0
203 68  1  0  0  0  0
206 81  1  0  0  0  0
208 82  1  0  0  0  0
211 83  1  0  0  0  0
213 84  1  0  0  0  0
214 84  1  0  0  0  0
215 84  1  0  0  0  0
220109  1  0  0  0  0
222109  1  0  0  0  0
223110  1  0  0  0  0
224110  1  0  0  0  0
226111  1  0  0  0  0
229126  1  0  0  0  0
230131  1  0  0  0  0
234140  1  0  0  0  0
236140  1  0  0  0  0
238141  1  0  0  0  0
240142  1  0  0  0  0
241142  1  0  0  0  0
242145  1  0  0  0  0
243161  1  0  0  0  0
245166  1  0  0  0  0
248167  1  0  0  0  0
249168  1  0  0  0  0
250168  1  0  0  0  0
252169  1  0  0  0  0
M  END
