SCF done       -489.730856900955          0.000314038543
 OpenBabel12282109573D

290325  0  0  0  0  0  0  0  0999 V2000
    1.1303    8.1054   -4.0104 C   0  0  0  0  0  0  0  0  0  0  0  0
   -0.1934    8.4251   -3.6632 C   0  0  0  0  0  0  0  0  0  0  0  0
   -0.5354    8.6624   -2.3107 C   0  0  0  0  0  0  0  0  0  0  0  0
    0.3853    8.6113   -1.2683 C   0  0  0  0  0  0  0  0  0  0  0  0
    1.7069    8.2680   -1.6129 C   0  0  0  0  0  0  0  0  0  0  0  0
    2.0459    8.0290   -2.9671 C   0  0  0  0  0  0  0  0  0  0  0  0
   -1.3278    8.5400   -4.5191 C   0  0  0  0  0  0  0  0  0  0  0  0
   -2.4532    8.8738   -3.8565 C   0  0  0  0  0  0  0  0  0  0  0  0
   -2.2253    9.0611   -2.1537 S   0  0  0  0  0  0  0  0  0  0  0  0
    2.8232    8.1063   -0.7561 C   0  0  0  0  0  0  0  0  0  0  0  0
    3.9822    7.8051   -1.4101 C   0  0  0  0  0  0  0  0  0  0  0  0
    3.7434    7.6733   -3.1430 S   0  0  0  0  0  0  0  0  0  0  0  0
    1.5495    7.8660   -5.3801 C   0  0  0  0  0  0  0  0  0  0  0  0
    0.0224    8.9055    0.1047 C   0  0  0  0  0  0  0  0  0  0  0  0
    2.3689    6.8778   -5.8245 C   0  0  0  0  0  0  0  0  0  0  0  0
    2.6251    6.9354   -7.2220 C   0  0  0  0  0  0  0  0  0  0  0  0
    1.9745    8.0241   -7.8316 C   0  0  0  0  0  0  0  0  0  0  0  0
    1.0560    8.9432   -6.6752 S   0  0  0  0  0  0  0  0  0  0  0  0
    0.7242    9.6330    1.0146 C   0  0  0  0  0  0  0  0  0  0  0  0
    0.0867    9.7256    2.2820 C   0  0  0  0  0  0  0  0  0  0  0  0
   -1.1402    9.0372    2.3040 C   0  0  0  0  0  0  0  0  0  0  0  0
   -1.4801    8.2901    0.7717 S   0  0  0  0  0  0  0  0  0  0  0  0
    5.2678    7.6077   -0.8348 C   0  0  0  0  0  0  0  0  0  0  0  0
    6.4486    7.3248   -1.4930 C   0  0  0  0  0  0  0  0  0  0  0  0
    7.5228    7.2047   -0.6249 C   0  0  0  0  0  0  0  0  0  0  0  0
    7.1937    7.3898    0.7117 C   0  0  0  0  0  0  0  0  0  0  0  0
    5.4935    7.7274    0.8818 S   0  0  0  0  0  0  0  0  0  0  0  0
    8.1269    7.2974    1.7739 C   0  0  0  0  0  0  0  0  0  0  0  0
    9.7889    6.9708    1.3421 S   0  0  0  0  0  0  0  0  0  0  0  0
   10.3130    6.9477    3.0084 C   0  0  0  0  0  0  0  0  0  0  0  0
    9.2349    7.1905    3.8526 C   0  0  0  0  0  0  0  0  0  0  0  0
    8.0034    7.4011    3.1550 C   0  0  0  0  0  0  0  0  0  0  0  0
    9.3274    7.2233    5.3008 C   0  0  0  0  0  0  0  0  0  0  0  0
    8.0890    7.5700    5.9891 C   0  0  0  0  0  0  0  0  0  0  0  0
    6.8632    7.8057    5.2899 C   0  0  0  0  0  0  0  0  0  0  0  0
    6.7617    7.7170    3.8370 C   0  0  0  0  0  0  0  0  0  0  0  0
    7.9689    7.7166    7.3492 C   0  0  0  0  0  0  0  0  0  0  0  0
    6.3433    8.1269    7.7771 S   0  0  0  0  0  0  0  0  0  0  0  0
    5.8190    8.1091    6.1286 C   0  0  0  0  0  0  0  0  0  0  0  0
   11.6871    6.7000    3.2490 C   0  0  0  0  0  0  0  0  0  0  0  0
   12.6472    6.5840    2.2513 C   0  0  0  0  0  0  0  0  0  0  0  0
   13.9213    6.3042    2.7227 C   0  0  0  0  0  0  0  0  0  0  0  0
   12.4023    6.4570    4.8165 S   0  0  0  0  0  0  0  0  0  0  0  0
   10.3613    6.9700    5.9150 O   0  0  0  0  0  0  0  0  0  0  0  0
    5.7029    7.9177    3.2450 O   0  0  0  0  0  0  0  0  0  0  0  0
    9.0005    7.5486    8.4060 C   0  0  0  0  0  0  0  0  0  0  0  0
    9.1995    6.0720    8.7606 C   0  0  0  0  0  0  0  0  0  0  0  0
    4.4136    8.4494    5.7868 C   0  0  0  0  0  0  0  0  0  0  0  0
    4.3026    9.9073    5.3312 C   0  0  0  0  0  0  0  0  0  0  0  0
   13.9576    6.1844    4.0981 C   0  0  0  0  0  0  0  0  0  0  0  0
    3.4012    6.0847   -8.0102 C   0  0  0  0  0  0  0  0  0  0  0  0
    3.5223    6.3141   -9.3659 C   0  0  0  0  0  0  0  0  0  0  0  0
    2.8655    7.4074   -9.9432 C   0  0  0  0  0  0  0  0  0  0  0  0
    2.0910    8.2651   -9.1913 C   0  0  0  0  0  0  0  0  0  0  0  0
    4.3924    5.4306  -10.2146 C   0  0  0  0  0  0  0  0  0  0  0  0
    5.8150    5.9895  -10.2843 C   0  0  0  0  0  0  0  0  0  0  0  0
    0.5161   10.3804    3.4387 C   0  0  0  0  0  0  0  0  0  0  0  0
   -0.2624   10.3570    4.5776 C   0  0  0  0  0  0  0  0  0  0  0  0
   -1.4864    9.6752    4.5637 C   0  0  0  0  0  0  0  0  0  0  0  0
   -1.9323    9.0120    3.4416 C   0  0  0  0  0  0  0  0  0  0  0  0
    0.1951   11.0250    5.8444 C   0  0  0  0  0  0  0  0  0  0  0  0
    0.6182    9.9890    6.8874 C   0  0  0  0  0  0  0  0  0  0  0  0
   16.5041    4.9067    8.1887 C   0  0  0  0  0  0  0  0  0  0  0  0
   16.2403    5.2626    6.8509 C   0  0  0  0  0  0  0  0  0  0  0  0
   17.2857    5.2784    5.8930 C   0  0  0  0  0  0  0  0  0  0  0  0
   18.6031    4.9722    6.2054 C   0  0  0  0  0  0  0  0  0  0  0  0
   18.8762    4.6605    7.5522 C   0  0  0  0  0  0  0  0  0  0  0  0
   17.8261    4.6168    8.5027 C   0  0  0  0  0  0  0  0  0  0  0  0
   15.0019    5.6256    6.2767 C   0  0  0  0  0  0  0  0  0  0  0  0
   15.0609    5.8570    4.9323 C   0  0  0  0  0  0  0  0  0  0  0  0
   16.6854    5.6717    4.3037 S   0  0  0  0  0  0  0  0  0  0  0  0
   20.1280    4.3544    8.1354 C   0  0  0  0  0  0  0  0  0  0  0  0
   20.0555    4.0260    9.4583 C   0  0  0  0  0  0  0  0  0  0  0  0
   18.4128    4.1164   10.0674 S   0  0  0  0  0  0  0  0  0  0  0  0
   15.4543    4.8364    9.1882 C   0  0  0  0  0  0  0  0  0  0  0  0
   19.6555    4.9381    5.2072 C   0  0  0  0  0  0  0  0  0  0  0  0
   15.5110    5.2660   10.4769 C   0  0  0  0  0  0  0  0  0  0  0  0
   14.3077    5.0492   11.2026 C   0  0  0  0  0  0  0  0  0  0  0  0
   13.3264    4.4159   10.4171 C   0  0  0  0  0  0  0  0  0  0  0  0
   13.9042    4.1032    8.8090 S   0  0  0  0  0  0  0  0  0  0  0  0
   20.6140    3.9873    5.0509 C   0  0  0  0  0  0  0  0  0  0  0  0
   21.5017    4.2477    3.9711 C   0  0  0  0  0  0  0  0  0  0  0  0
   21.1841    5.4487    3.3093 C   0  0  0  0  0  0  0  0  0  0  0  0
   19.7975    6.2221    4.0204 S   0  0  0  0  0  0  0  0  0  0  0  0
   21.1370    3.6337   10.2948 C   0  0  0  0  0  0  0  0  0  0  0  0
   21.0773    3.0753   11.5561 C   0  0  0  0  0  0  0  0  0  0  0  0
   22.3334    2.7685   12.0590 C   0  0  0  0  0  0  0  0  0  0  0  0
   23.3792    3.1097   11.2122 C   0  0  0  0  0  0  0  0  0  0  0  0
   22.7725    3.8292    9.7479 S   0  0  0  0  0  0  0  0  0  0  0  0
   24.7467    2.8722   11.5010 C   0  0  0  0  0  0  0  0  0  0  0  0
   25.1063    1.8701   12.8867 S   0  0  0  0  0  0  0  0  0  0  0  0
   26.8325    2.0333   12.6694 C   0  0  0  0  0  0  0  0  0  0  0  0
   27.1023    2.8556   11.5800 C   0  0  0  0  0  0  0  0  0  0  0  0
   25.9244    3.3049   10.9035 C   0  0  0  0  0  0  0  0  0  0  0  0
   28.4359    3.2567   11.1713 C   0  0  0  0  0  0  0  0  0  0  0  0
   28.4875    4.1376   10.0100 C   0  0  0  0  0  0  0  0  0  0  0  0
   27.3107    4.5603    9.3148 C   0  0  0  0  0  0  0  0  0  0  0  0
   25.9749    4.1194    9.7021 C   0  0  0  0  0  0  0  0  0  0  0  0
   29.6435    4.6400    9.4646 C   0  0  0  0  0  0  0  0  0  0  0  0
   29.2866    5.6592    8.1125 S   0  0  0  0  0  0  0  0  0  0  0  0
   27.5823    5.4007    8.2636 C   0  0  0  0  0  0  0  0  0  0  0  0
   27.6691    1.3257   13.5676 C   0  0  0  0  0  0  0  0  0  0  0  0
   27.2116    0.4334   14.5294 C   0  0  0  0  0  0  0  0  0  0  0  0
   28.2188   -0.1514   15.2839 C   0  0  0  0  0  0  0  0  0  0  0  0
   29.4045    1.4400   13.6180 S   0  0  0  0  0  0  0  0  0  0  0  0
   29.4541    2.9141   11.7685 O   0  0  0  0  0  0  0  0  0  0  0  0
   24.9786    4.3995    9.0392 O   0  0  0  0  0  0  0  0  0  0  0  0
   31.0513    4.4367    9.8967 C   0  0  0  0  0  0  0  0  0  0  0  0
   31.4073    5.3345   11.0853 C   0  0  0  0  0  0  0  0  0  0  0  0
   26.6415    6.0291    7.3003 C   0  0  0  0  0  0  0  0  0  0  0  0
   26.2794    5.0550    6.1755 C   0  0  0  0  0  0  0  0  0  0  0  0
   29.4730    0.2994   14.9234 C   0  0  0  0  0  0  0  0  0  0  0  0
   14.0018    5.3828   12.5232 C   0  0  0  0  0  0  0  0  0  0  0  0
   12.7532    5.0995   13.0387 C   0  0  0  0  0  0  0  0  0  0  0  0
   11.7973    4.4708   12.2311 C   0  0  0  0  0  0  0  0  0  0  0  0
   12.0702    4.1244   10.9252 C   0  0  0  0  0  0  0  0  0  0  0  0
   12.4265    5.4151   14.4710 C   0  0  0  0  0  0  0  0  0  0  0  0
   12.6919    4.1990   15.3605 C   0  0  0  0  0  0  0  0  0  0  0  0
   22.5826    3.4900    3.5175 C   0  0  0  0  0  0  0  0  0  0  0  0
   23.3216    3.9169    2.4327 C   0  0  0  0  0  0  0  0  0  0  0  0
   22.9874    5.1204    1.8001 C   0  0  0  0  0  0  0  0  0  0  0  0
   21.9265    5.8912    2.2258 C   0  0  0  0  0  0  0  0  0  0  0  0
   24.5032    3.1221    1.9522 C   0  0  0  0  0  0  0  0  0  0  0  0
   25.7829    3.5791    2.6542 C   0  0  0  0  0  0  0  0  0  0  0  0
   34.3747    0.4994   15.7981 C   0  0  0  0  0  0  0  0  0  0  0  0
   33.0375    0.0567   15.8569 C   0  0  0  0  0  0  0  0  0  0  0  0
   32.6793   -1.0451   16.6737 C   0  0  0  0  0  0  0  0  0  0  0  0
   33.5997   -1.7580   17.4305 C   0  0  0  0  0  0  0  0  0  0  0  0
   34.9436   -1.3457   17.3360 C   0  0  0  0  0  0  0  0  0  0  0  0
   35.2990   -0.2314   16.5350 C   0  0  0  0  0  0  0  0  0  0  0  0
   31.9206    0.5792   15.1682 C   0  0  0  0  0  0  0  0  0  0  0  0
   30.7416   -0.0399   15.4684 C   0  0  0  0  0  0  0  0  0  0  0  0
   30.9606   -1.3438   16.6188 S   0  0  0  0  0  0  0  0  0  0  0  0
   36.0715   -1.9246   17.9602 C   0  0  0  0  0  0  0  0  0  0  0  0
   37.2436   -1.2755   17.7003 C   0  0  0  0  0  0  0  0  0  0  0  0
   37.0097    0.0965   16.6349 S   0  0  0  0  0  0  0  0  0  0  0  0
   34.7672    1.6661   15.0307 C   0  0  0  0  0  0  0  0  0  0  0  0
   33.1946   -2.8681   18.2733 C   0  0  0  0  0  0  0  0  0  0  0  0
   35.8976    1.8342   14.2936 C   0  0  0  0  0  0  0  0  0  0  0  0
   35.9975    3.1162   13.6872 C   0  0  0  0  0  0  0  0  0  0  0  0
   34.8955    3.9340   14.0004 C   0  0  0  0  0  0  0  0  0  0  0  0
   33.7666    3.1104   15.0316 S   0  0  0  0  0  0  0  0  0  0  0  0
   32.3225   -3.8637   17.9646 C   0  0  0  0  0  0  0  0  0  0  0  0
   32.1416   -4.8063   19.0139 C   0  0  0  0  0  0  0  0  0  0  0  0
   32.8997   -4.4768   20.1531 C   0  0  0  0  0  0  0  0  0  0  0  0
   33.8197   -3.0237   19.9066 S   0  0  0  0  0  0  0  0  0  0  0  0
   38.5242   -1.6340   18.2016 C   0  0  0  0  0  0  0  0  0  0  0  0
   39.7290   -0.9794   18.0393 C   0  0  0  0  0  0  0  0  0  0  0  0
   40.7698   -1.6209   18.6949 C   0  0  0  0  0  0  0  0  0  0  0  0
   40.3910   -2.7789   19.3622 C   0  0  0  0  0  0  0  0  0  0  0  0
   38.6881   -3.0721   19.1583 S   0  0  0  0  0  0  0  0  0  0  0  0
   41.2742   -3.5849   20.1231 C   0  0  0  0  0  0  0  0  0  0  0  0
   42.9251   -3.0353   20.2704 S   0  0  0  0  0  0  0  0  0  0  0  0
   43.3850   -4.3908   21.2726 C   0  0  0  0  0  0  0  0  0  0  0  0
   42.2968   -5.2296   21.4711 C   0  0  0  0  0  0  0  0  0  0  0  0
   41.1046   -4.7763   20.8195 C   0  0  0  0  0  0  0  0  0  0  0  0
   42.3431   -6.4554   22.2529 C   0  0  0  0  0  0  0  0  0  0  0  0
   41.0891   -7.2036   22.2967 C   0  0  0  0  0  0  0  0  0  0  0  0
   39.9038   -6.7557   21.6321 C   0  0  0  0  0  0  0  0  0  0  0  0
   39.8522   -5.5057   20.8834 C   0  0  0  0  0  0  0  0  0  0  0  0
   40.9110   -8.3913   22.9618 C   0  0  0  0  0  0  0  0  0  0  0  0
   39.2962   -8.9765   22.7502 S   0  0  0  0  0  0  0  0  0  0  0  0
   38.8466   -7.6207   21.7746 C   0  0  0  0  0  0  0  0  0  0  0  0
   44.7377   -4.4292   21.7078 C   0  0  0  0  0  0  0  0  0  0  0  0
   45.6806   -3.4718   21.3753 C   0  0  0  0  0  0  0  0  0  0  0  0
   46.9437   -3.7170   21.9165 C   0  0  0  0  0  0  0  0  0  0  0  0
   45.4509   -5.6571   22.7182 S   0  0  0  0  0  0  0  0  0  0  0  0
   43.3557   -6.8468   22.8260 O   0  0  0  0  0  0  0  0  0  0  0  0
   38.8151   -5.1097   20.3552 O   0  0  0  0  0  0  0  0  0  0  0  0
   41.8967   -9.1911   23.7341 C   0  0  0  0  0  0  0  0  0  0  0  0
   42.7526  -10.0477   22.7963 C   0  0  0  0  0  0  0  0  0  0  0  0
   37.4645   -7.5109   21.2386 C   0  0  0  0  0  0  0  0  0  0  0  0
   36.5967   -6.5987   22.1102 C   0  0  0  0  0  0  0  0  0  0  0  0
   46.9635   -4.8602   22.6622 C   0  0  0  0  0  0  0  0  0  0  0  0
   37.0034    3.6269   12.8647 C   0  0  0  0  0  0  0  0  0  0  0  0
   36.9067    4.9103   12.3663 C   0  0  0  0  0  0  0  0  0  0  0  0
   35.7938    5.6966   12.6897 C   0  0  0  0  0  0  0  0  0  0  0  0
   34.7862    5.2228   13.5021 C   0  0  0  0  0  0  0  0  0  0  0  0
   38.0081    5.4899   11.5244 C   0  0  0  0  0  0  0  0  0  0  0  0
   38.9974    6.2623   12.3993 C   0  0  0  0  0  0  0  0  0  0  0  0
   31.3542   -5.9588   19.0383 C   0  0  0  0  0  0  0  0  0  0  0  0
   31.3253   -6.7553   20.1650 C   0  0  0  0  0  0  0  0  0  0  0  0
   32.0898   -6.4001   21.2833 C   0  0  0  0  0  0  0  0  0  0  0  0
   32.8748   -5.2672   21.2915 C   0  0  0  0  0  0  0  0  0  0  0  0
   30.5235   -8.0261   20.1854 C   0  0  0  0  0  0  0  0  0  0  0  0
   31.4027   -9.2198   19.8065 C   0  0  0  0  0  0  0  0  0  0  0  0
   -1.2928    8.3733   -5.5796 H   0  0  0  0  0  0  0  0  0  0  0  0
   -3.4355    9.0218   -4.2607 H   0  0  0  0  0  0  0  0  0  0  0  0
    2.7780    8.1889    0.3144 H   0  0  0  0  0  0  0  0  0  0  0  0
    2.7603    6.1043   -5.1882 H   0  0  0  0  0  0  0  0  0  0  0  0
    1.6497   10.1313    0.7873 H   0  0  0  0  0  0  0  0  0  0  0  0
    6.5156    7.2135   -2.5611 H   0  0  0  0  0  0  0  0  0  0  0  0
    8.5272    6.9839   -0.9427 H   0  0  0  0  0  0  0  0  0  0  0  0
   12.4076    6.7053    1.2089 H   0  0  0  0  0  0  0  0  0  0  0  0
   14.7877    6.1812    2.0966 H   0  0  0  0  0  0  0  0  0  0  0  0
    8.6998    8.1030    9.2973 H   0  0  0  0  0  0  0  0  0  0  0  0
    9.9492    7.9442    8.0377 H   0  0  0  0  0  0  0  0  0  0  0  0
    8.2622    5.6254    9.0863 H   0  0  0  0  0  0  0  0  0  0  0  0
    9.9295    5.9826    9.5610 H   0  0  0  0  0  0  0  0  0  0  0  0
    9.5698    5.5323    7.8934 H   0  0  0  0  0  0  0  0  0  0  0  0
    3.7782    8.2850    6.6596 H   0  0  0  0  0  0  0  0  0  0  0  0
    4.0812    7.8049    4.9705 H   0  0  0  0  0  0  0  0  0  0  0  0
    4.6557   10.5810    6.1093 H   0  0  0  0  0  0  0  0  0  0  0  0
    3.2668   10.1425    5.1049 H   0  0  0  0  0  0  0  0  0  0  0  0
    4.8954   10.0581    4.4332 H   0  0  0  0  0  0  0  0  0  0  0  0
    3.9026    5.2466   -7.5482 H   0  0  0  0  0  0  0  0  0  0  0  0
    2.9664    7.5782  -11.0051 H   0  0  0  0  0  0  0  0  0  0  0  0
    1.5849    9.1034   -9.6448 H   0  0  0  0  0  0  0  0  0  0  0  0
    3.9814    5.3652  -11.2241 H   0  0  0  0  0  0  0  0  0  0  0  0
    4.4216    4.4243   -9.7921 H   0  0  0  0  0  0  0  0  0  0  0  0
    5.8085    6.9889  -10.7136 H   0  0  0  0  0  0  0  0  0  0  0  0
    6.4456    5.3511  -10.8988 H   0  0  0  0  0  0  0  0  0  0  0  0
    6.2460    6.0491   -9.2874 H   0  0  0  0  0  0  0  0  0  0  0  0
    1.4600   10.9065    3.4258 H   0  0  0  0  0  0  0  0  0  0  0  0
   -2.0955    9.6751    5.4557 H   0  0  0  0  0  0  0  0  0  0  0  0
   -2.8756    8.4882    3.4397 H   0  0  0  0  0  0  0  0  0  0  0  0
   -0.6169   11.6318    6.2524 H   0  0  0  0  0  0  0  0  0  0  0  0
    1.0357   11.6876    5.6291 H   0  0  0  0  0  0  0  0  0  0  0  0
   -0.2234    9.3582    7.1628 H   0  0  0  0  0  0  0  0  0  0  0  0
    0.9898   10.4814    7.7832 H   0  0  0  0  0  0  0  0  0  0  0  0
    1.4034    9.3509    6.4891 H   0  0  0  0  0  0  0  0  0  0  0  0
   14.0819    5.7167    6.8239 H   0  0  0  0  0  0  0  0  0  0  0  0
   21.0613    4.3810    7.6031 H   0  0  0  0  0  0  0  0  0  0  0  0
   16.3679    5.7609   10.8978 H   0  0  0  0  0  0  0  0  0  0  0  0
   20.6702    3.1005    5.6571 H   0  0  0  0  0  0  0  0  0  0  0  0
   20.1531    2.8888   12.0745 H   0  0  0  0  0  0  0  0  0  0  0  0
   22.4997    2.3158   13.0213 H   0  0  0  0  0  0  0  0  0  0  0  0
   26.1647    0.2186   14.6593 H   0  0  0  0  0  0  0  0  0  0  0  0
   28.0514   -0.8683   16.0687 H   0  0  0  0  0  0  0  0  0  0  0  0
   31.7208    4.6514    9.0613 H   0  0  0  0  0  0  0  0  0  0  0  0
   31.1784    3.3961   10.2023 H   0  0  0  0  0  0  0  0  0  0  0  0
   31.2489    6.3819   10.8369 H   0  0  0  0  0  0  0  0  0  0  0  0
   32.4505    5.1897   11.3537 H   0  0  0  0  0  0  0  0  0  0  0  0
   30.7912    5.0736   11.9413 H   0  0  0  0  0  0  0  0  0  0  0  0
   27.0981    6.9260    6.8771 H   0  0  0  0  0  0  0  0  0  0  0  0
   25.7260    6.3035    7.8280 H   0  0  0  0  0  0  0  0  0  0  0  0
   27.1743    4.7251    5.6517 H   0  0  0  0  0  0  0  0  0  0  0  0
   25.6149    5.5412    5.4665 H   0  0  0  0  0  0  0  0  0  0  0  0
   25.7686    4.1904    6.5909 H   0  0  0  0  0  0  0  0  0  0  0  0
   14.7502    5.8673   13.1334 H   0  0  0  0  0  0  0  0  0  0  0  0
   10.8220    4.2568   12.6437 H   0  0  0  0  0  0  0  0  0  0  0  0
   11.3285    3.6420   10.3072 H   0  0  0  0  0  0  0  0  0  0  0  0
   11.3760    5.7010   14.5568 H   0  0  0  0  0  0  0  0  0  0  0  0
   13.0371    6.2523   14.8144 H   0  0  0  0  0  0  0  0  0  0  0  0
   12.0799    3.3573   15.0440 H   0  0  0  0  0  0  0  0  0  0  0  0
   12.4594    4.4275   16.3980 H   0  0  0  0  0  0  0  0  0  0  0  0
   13.7369    3.9048   15.2945 H   0  0  0  0  0  0  0  0  0  0  0  0
   22.8300    2.5662    4.0201 H   0  0  0  0  0  0  0  0  0  0  0  0
   23.5730    5.4467    0.9529 H   0  0  0  0  0  0  0  0  0  0  0  0
   21.6719    6.8142    1.7283 H   0  0  0  0  0  0  0  0  0  0  0  0
   24.6185    3.2486    0.8738 H   0  0  0  0  0  0  0  0  0  0  0  0
   24.3420    2.0617    2.1556 H   0  0  0  0  0  0  0  0  0  0  0  0
   25.9623    4.6352    2.4650 H   0  0  0  0  0  0  0  0  0  0  0  0
   26.6380    3.0117    2.2940 H   0  0  0  0  0  0  0  0  0  0  0  0
   25.6954    3.4338    3.7282 H   0  0  0  0  0  0  0  0  0  0  0  0
   31.9670    1.3866   14.4612 H   0  0  0  0  0  0  0  0  0  0  0  0
   36.0372   -2.7998   18.5823 H   0  0  0  0  0  0  0  0  0  0  0  0
   36.6299    1.0606   14.1479 H   0  0  0  0  0  0  0  0  0  0  0  0
   31.8453   -3.9545   17.0052 H   0  0  0  0  0  0  0  0  0  0  0  0
   39.8361   -0.0712   17.4723 H   0  0  0  0  0  0  0  0  0  0  0  0
   41.7858   -1.2652   18.6962 H   0  0  0  0  0  0  0  0  0  0  0  0
   45.4493   -2.6225   20.7560 H   0  0  0  0  0  0  0  0  0  0  0  0
   47.7951   -3.0783   21.7618 H   0  0  0  0  0  0  0  0  0  0  0  0
   41.3694   -9.8345   24.4412 H   0  0  0  0  0  0  0  0  0  0  0  0
   42.5529   -8.5120   24.2814 H   0  0  0  0  0  0  0  0  0  0  0  0
   42.1254  -10.7048   22.1972 H   0  0  0  0  0  0  0  0  0  0  0  0
   43.4421  -10.6541   23.3768 H   0  0  0  0  0  0  0  0  0  0  0  0
   43.3289   -9.4064   22.1349 H   0  0  0  0  0  0  0  0  0  0  0  0
   37.0162   -8.5053   21.1884 H   0  0  0  0  0  0  0  0  0  0  0  0
   37.5098   -7.0847   20.2343 H   0  0  0  0  0  0  0  0  0  0  0  0
   36.5633   -6.9638   23.1347 H   0  0  0  0  0  0  0  0  0  0  0  0
   35.5855   -6.5686   21.7128 H   0  0  0  0  0  0  0  0  0  0  0  0
   37.0007   -5.5901   22.1036 H   0  0  0  0  0  0  0  0  0  0  0  0
   47.8004   -5.2790   23.1862 H   0  0  0  0  0  0  0  0  0  0  0  0
   37.8551    3.0075   12.6239 H   0  0  0  0  0  0  0  0  0  0  0  0
   35.7260    6.6980   12.2899 H   0  0  0  0  0  0  0  0  0  0  0  0
   33.9310    5.8336   13.7476 H   0  0  0  0  0  0  0  0  0  0  0  0
   37.5867    6.1647   10.7763 H   0  0  0  0  0  0  0  0  0  0  0  0
   38.5369    4.6896   11.0032 H   0  0  0  0  0  0  0  0  0  0  0  0
   38.4909    7.0724   12.9193 H   0  0  0  0  0  0  0  0  0  0  0  0
   39.7951    6.6839   11.7921 H   0  0  0  0  0  0  0  0  0  0  0  0
   39.4378    5.6023   13.1433 H   0  0  0  0  0  0  0  0  0  0  0  0
   30.7693   -6.2182   18.1678 H   0  0  0  0  0  0  0  0  0  0  0  0
   32.0589   -7.0303   22.1604 H   0  0  0  0  0  0  0  0  0  0  0  0
   33.4581   -4.9964   22.1582 H   0  0  0  0  0  0  0  0  0  0  0  0
   29.6937   -7.9519   19.4801 H   0  0  0  0  0  0  0  0  0  0  0  0
   30.1100   -8.1866   21.1833 H   0  0  0  0  0  0  0  0  0  0  0  0
   31.8111   -9.0856   18.8074 H   0  0  0  0  0  0  0  0  0  0  0  0
   30.8239  -10.1403   19.8249 H   0  0  0  0  0  0  0  0  0  0  0  0
   32.2318   -9.3166   20.5039 H   0  0  0  0  0  0  0  0  0  0  0  0
  1  2  2  0  0  0  0
  1  6  1  0  0  0  0
  2  3  1  0  0  0  0
  3  9  1  0  0  0  0
  3  4  2  0  0  0  0
  4 14  1  0  0  0  0
  5  4  1  0  0  0  0
  5 10  1  0  0  0  0
  6  5  2  0  0  0  0
  7  8  2  0  0  0  0
  7  2  1  0  0  0  0
  8  9  1  0  0  0  0
 10189  1  0  0  0  0
 11 23  1  0  0  0  0
 11 10  2  0  0  0  0
 12  6  1  0  0  0  0
 12 11  1  0  0  0  0
 13  1  1  0  0  0  0
 14 22  1  0  0  0  0
 14 19  2  0  0  0  0
 15 13  2  0  0  0  0
 15190  1  0  0  0  0
 16 15  1  0  0  0  0
 17 16  1  0  0  0  0
 17 18  1  0  0  0  0
 18 13  1  0  0  0  0
 19 20  1  0  0  0  0
 20 21  2  0  0  0  0
 20 57  1  0  0  0  0
 21 60  1  0  0  0  0
 22 21  1  0  0  0  0
 23 27  1  0  0  0  0
 24 23  2  0  0  0  0
 24 25  1  0  0  0  0
 25 26  2  0  0  0  0
 26 27  1  0  0  0  0
 26 28  1  0  0  0  0
 28 32  2  0  0  0  0
 29 28  1  0  0  0  0
 29 30  1  0  0  0  0
 30 40  1  0  0  0  0
 30 31  2  0  0  0  0
 31 33  1  0  0  0  0
 32 36  1  0  0  0  0
 32 31  1  0  0  0  0
 33 44  2  0  0  0  0
 33 34  1  0  0  0  0
 34 37  2  0  0  0  0
 35 34  1  0  0  0  0
 35 39  2  0  0  0  0
 36 35  1  0  0  0  0
 37 38  1  0  0  0  0
 37 46  1  0  0  0  0
 39 38  1  0  0  0  0
 40 43  1  0  0  0  0
 41 42  1  0  0  0  0
 41 40  2  0  0  0  0
 42 50  2  0  0  0  0
 45 36  2  0  0  0  0
 46 47  1  0  0  0  0
 46196  1  0  0  0  0
 47198  1  0  0  0  0
 47199  1  0  0  0  0
 48 39  1  0  0  0  0
 48201  1  0  0  0  0
 49 48  1  0  0  0  0
 49203  1  0  0  0  0
 50 43  1  0  0  0  0
 50 70  1  0  0  0  0
 51206  1  0  0  0  0
 51 16  2  0  0  0  0
 52 51  1  0  0  0  0
 53 52  2  0  0  0  0
 53 54  1  0  0  0  0
 54 17  2  0  0  0  0
 55210  1  0  0  0  0
 55 52  1  0  0  0  0
 56 55  1  0  0  0  0
 56213  1  0  0  0  0
 57 58  2  0  0  0  0
 58 61  1  0  0  0  0
 59 58  1  0  0  0  0
 59215  1  0  0  0  0
 60 59  2  0  0  0  0
 61217  1  0  0  0  0
 61 62  1  0  0  0  0
 62219  1  0  0  0  0
 62220  1  0  0  0  0
 63 68  1  0  0  0  0
 63 75  1  0  0  0  0
 64 63  2  0  0  0  0
 65 66  2  0  0  0  0
 65 64  1  0  0  0  0
 66 67  1  0  0  0  0
 67 72  1  0  0  0  0
 67 68  2  0  0  0  0
 68 74  1  0  0  0  0
 69222  1  0  0  0  0
 69 64  1  0  0  0  0
 70 69  2  0  0  0  0
 71 70  1  0  0  0  0
 71 65  1  0  0  0  0
 72 73  2  0  0  0  0
 73 74  1  0  0  0  0
 73 85  1  0  0  0  0
 75 77  2  0  0  0  0
 76 66  1  0  0  0  0
 77224  1  0  0  0  0
 77 78  1  0  0  0  0
 78113  2  0  0  0  0
 79116  2  0  0  0  0
 79 78  1  0  0  0  0
 80 75  1  0  0  0  0
 80 79  1  0  0  0  0
 81 76  2  0  0  0  0
 81225  1  0  0  0  0
 82 81  1  0  0  0  0
 83 82  2  0  0  0  0
 83 84  1  0  0  0  0
 84 76  1  0  0  0  0
 85 86  2  0  0  0  0
 86 87  1  0  0  0  0
 86226  1  0  0  0  0
 87227  1  0  0  0  0
 88 90  1  0  0  0  0
 88 87  2  0  0  0  0
 89 85  1  0  0  0  0
 89 88  1  0  0  0  0
 90 91  1  0  0  0  0
 92 91  1  0  0  0  0
 92102  1  0  0  0  0
 93 92  2  0  0  0  0
 94 90  2  0  0  0  0
 94 93  1  0  0  0  0
 95 93  1  0  0  0  0
 95106  2  0  0  0  0
 96 95  1  0  0  0  0
 97 98  1  0  0  0  0
 97 96  1  0  0  0  0
 98 94  1  0  0  0  0
 99108  1  0  0  0  0
 99 96  2  0  0  0  0
100101  1  0  0  0  0
100 99  1  0  0  0  0
101 97  2  0  0  0  0
102105  1  0  0  0  0
102103  2  0  0  0  0
103228  1  0  0  0  0
103104  1  0  0  0  0
104229  1  0  0  0  0
105112  1  0  0  0  0
107 98  2  0  0  0  0
108231  1  0  0  0  0
108109  1  0  0  0  0
109233  1  0  0  0  0
109234  1  0  0  0  0
110236  1  0  0  0  0
110101  1  0  0  0  0
111239  1  0  0  0  0
111110  1  0  0  0  0
112104  2  0  0  0  0
112132  1  0  0  0  0
113114  1  0  0  0  0
113240  1  0  0  0  0
114117  1  0  0  0  0
115241  1  0  0  0  0
115114  2  0  0  0  0
116115  1  0  0  0  0
117243  1  0  0  0  0
117244  1  0  0  0  0
117118  1  0  0  0  0
118246  1  0  0  0  0
119 82  1  0  0  0  0
119248  1  0  0  0  0
120119  2  0  0  0  0
121122  2  0  0  0  0
121120  1  0  0  0  0
122 83  1  0  0  0  0
123252  1  0  0  0  0
123120  1  0  0  0  0
123124  1  0  0  0  0
124255  1  0  0  0  0
125126  2  0  0  0  0
125130  1  0  0  0  0
126127  1  0  0  0  0
127128  2  0  0  0  0
128138  1  0  0  0  0
129128  1  0  0  0  0
129134  1  0  0  0  0
130136  1  0  0  0  0
130129  2  0  0  0  0
131132  2  0  0  0  0
131126  1  0  0  0  0
132133  1  0  0  0  0
133127  1  0  0  0  0
134257  1  0  0  0  0
135134  2  0  0  0  0
135147  1  0  0  0  0
136135  1  0  0  0  0
137142  1  0  0  0  0
137125  1  0  0  0  0
138146  1  0  0  0  0
139137  2  0  0  0  0
140141  1  0  0  0  0
140139  1  0  0  0  0
141142  1  0  0  0  0
143138  2  0  0  0  0
143144  1  0  0  0  0
144181  2  0  0  0  0
144145  1  0  0  0  0
145184  2  0  0  0  0
146145  1  0  0  0  0
147151  1  0  0  0  0
148147  2  0  0  0  0
148149  1  0  0  0  0
149261  1  0  0  0  0
149150  2  0  0  0  0
150152  1  0  0  0  0
151150  1  0  0  0  0
152153  1  0  0  0  0
152156  2  0  0  0  0
153154  1  0  0  0  0
154155  2  0  0  0  0
154164  1  0  0  0  0
155157  1  0  0  0  0
156160  1  0  0  0  0
156155  1  0  0  0  0
157158  1  0  0  0  0
157168  2  0  0  0  0
158161  2  0  0  0  0
159163  2  0  0  0  0
159158  1  0  0  0  0
160159  1  0  0  0  0
161170  1  0  0  0  0
162161  1  0  0  0  0
163162  1  0  0  0  0
164167  1  0  0  0  0
165164  2  0  0  0  0
165166  1  0  0  0  0
166174  2  0  0  0  0
169160  2  0  0  0  0
170265  1  0  0  0  0
170264  1  0  0  0  0
171267  1  0  0  0  0
171170  1  0  0  0  0
172163  1  0  0  0  0
172173  1  0  0  0  0
173271  1  0  0  0  0
174167  1  0  0  0  0
174274  1  0  0  0  0
175140  2  0  0  0  0
176177  2  0  0  0  0
176175  1  0  0  0  0
177178  1  0  0  0  0
178277  1  0  0  0  0
178141  2  0  0  0  0
179176  1  0  0  0  0
179180  1  0  0  0  0
180280  1  0  0  0  0
180282  1  0  0  0  0
181182  1  0  0  0  0
182185  1  0  0  0  0
182183  2  0  0  0  0
183184  1  0  0  0  0
183284  1  0  0  0  0
184285  1  0  0  0  0
185287  1  0  0  0  0
186289  1  0  0  0  0
186185  1  0  0  0  0
186290  1  0  0  0  0
187  7  1  0  0  0  0
188  8  1  0  0  0  0
191 19  1  0  0  0  0
192 24  1  0  0  0  0
193 25  1  0  0  0  0
194 41  1  0  0  0  0
195 42  1  0  0  0  0
197 46  1  0  0  0  0
200 47  1  0  0  0  0
202 48  1  0  0  0  0
204 49  1  0  0  0  0
205 49  1  0  0  0  0
207 53  1  0  0  0  0
208 54  1  0  0  0  0
209 55  1  0  0  0  0
211 56  1  0  0  0  0
212 56  1  0  0  0  0
214 57  1  0  0  0  0
216 60  1  0  0  0  0
218 61  1  0  0  0  0
221 62  1  0  0  0  0
223 72  1  0  0  0  0
230108  1  0  0  0  0
232109  1  0  0  0  0
235110  1  0  0  0  0
237111  1  0  0  0  0
238111  1  0  0  0  0
242116  1  0  0  0  0
245118  1  0  0  0  0
247118  1  0  0  0  0
249121  1  0  0  0  0
250122  1  0  0  0  0
251123  1  0  0  0  0
253124  1  0  0  0  0
254124  1  0  0  0  0
256131  1  0  0  0  0
258139  1  0  0  0  0
259143  1  0  0  0  0
260148  1  0  0  0  0
262165  1  0  0  0  0
263166  1  0  0  0  0
266171  1  0  0  0  0
268171  1  0  0  0  0
269172  1  0  0  0  0
270172  1  0  0  0  0
272173  1  0  0  0  0
273173  1  0  0  0  0
275175  1  0  0  0  0
276177  1  0  0  0  0
278179  1  0  0  0  0
279179  1  0  0  0  0
281180  1  0  0  0  0
283181  1  0  0  0  0
286185  1  0  0  0  0
288186  1  0  0  0  0
M  END
