SCF done       -342.195578960534          0.000700366116
 OpenBabel12282109573D

206226  0  0  0  0  0  0  0  0999 V2000
    7.0766   -1.4689  -11.5859 C   0  0  0  0  0  0  0  0  0  0  0  0
    5.8529   -1.2390  -11.0176 C   0  0  0  0  0  0  0  0  0  0  0  0
    5.2467   -2.4418  -10.6329 C   0  0  0  0  0  0  0  0  0  0  0  0
    6.0029   -3.5690  -10.8991 C   0  0  0  0  0  0  0  0  0  0  0  0
    7.5085   -3.1230  -11.6553 S   0  0  0  0  0  0  0  0  0  0  0  0
    5.2160    0.1070  -10.8664 C   0  0  0  0  0  0  0  0  0  0  0  0
    4.2504    0.3810  -12.0205 C   0  0  0  0  0  0  0  0  0  0  0  0
    5.5915   -4.8907  -10.5804 C   0  0  0  0  0  0  0  0  0  0  0  0
    4.0124   -5.0660   -9.8521 S   0  0  0  0  0  0  0  0  0  0  0  0
    4.1685   -6.8008   -9.7080 C   0  0  0  0  0  0  0  0  0  0  0  0
    5.3977   -7.2109  -10.2117 C   0  0  0  0  0  0  0  0  0  0  0  0
    6.1973   -6.1328  -10.7117 C   0  0  0  0  0  0  0  0  0  0  0  0
    5.8436   -8.5897  -10.2214 C   0  0  0  0  0  0  0  0  0  0  0  0
    7.1528   -8.8076  -10.8279 C   0  0  0  0  0  0  0  0  0  0  0  0
    7.9463   -7.7346  -11.3454 C   0  0  0  0  0  0  0  0  0  0  0  0
    7.5047   -6.3427  -11.3102 C   0  0  0  0  0  0  0  0  0  0  0  0
    7.7500  -10.0350  -10.9738 C   0  0  0  0  0  0  0  0  0  0  0  0
    9.2992   -9.8764  -11.7279 S   0  0  0  0  0  0  0  0  0  0  0  0
    9.1477   -8.1573  -11.8577 C   0  0  0  0  0  0  0  0  0  0  0  0
    8.1879   -5.4307  -11.7680 O   0  0  0  0  0  0  0  0  0  0  0  0
    5.1827   -9.5126   -9.7473 O   0  0  0  0  0  0  0  0  0  0  0  0
   10.2228   -7.3624  -12.5060 C   0  0  0  0  0  0  0  0  0  0  0  0
    9.8886   -7.0941  -13.9763 C   0  0  0  0  0  0  0  0  0  0  0  0
    7.2646  -11.3712  -10.5415 C   0  0  0  0  0  0  0  0  0  0  0  0
    7.5606  -11.6026   -9.0568 C   0  0  0  0  0  0  0  0  0  0  0  0
    3.0809   -7.5024   -9.1349 C   0  0  0  0  0  0  0  0  0  0  0  0
    1.8989   -6.8964   -8.7332 C   0  0  0  0  0  0  0  0  0  0  0  0
    0.9537   -7.7553   -8.1796 C   0  0  0  0  0  0  0  0  0  0  0  0
    1.4240   -9.0645   -8.1519 C   0  0  0  0  0  0  0  0  0  0  0  0
    3.0238   -9.2096   -8.8165 S   0  0  0  0  0  0  0  0  0  0  0  0
   -0.3758   -7.3202   -7.6398 C   0  0  0  0  0  0  0  0  0  0  0  0
   -0.4649   -5.8238   -7.3600 C   0  0  0  0  0  0  0  0  0  0  0  0
    0.7960  -10.2447   -7.6592 C   0  0  0  0  0  0  0  0  0  0  0  0
    1.8003  -11.6070   -7.2383 S   0  0  0  0  0  0  0  0  0  0  0  0
    0.4109  -12.5589   -6.7989 C   0  0  0  0  0  0  0  0  0  0  0  0
   -0.7500  -11.8410   -6.9837 C   0  0  0  0  0  0  0  0  0  0  0  0
   -0.5347  -10.5463   -7.4610 C   0  0  0  0  0  0  0  0  0  0  0  0
    0.5705  -13.8869   -6.3240 C   0  0  0  0  0  0  0  0  0  0  0  0
    1.7496  -14.5631   -6.0962 C   0  0  0  0  0  0  0  0  0  0  0  0
    1.5624  -15.8579   -5.6223 C   0  0  0  0  0  0  0  0  0  0  0  0
    0.2364  -16.2166   -5.4741 C   0  0  0  0  0  0  0  0  0  0  0  0
   -0.7984  -14.8905   -5.9393 S   0  0  0  0  0  0  0  0  0  0  0  0
   -0.2219  -17.4825   -5.0180 C   0  0  0  0  0  0  0  0  0  0  0  0
   -1.5073  -17.9872   -4.8601 C   0  0  0  0  0  0  0  0  0  0  0  0
   -1.4864  -19.3009   -4.3973 C   0  0  0  0  0  0  0  0  0  0  0  0
   -0.2236  -19.8265   -4.1721 C   0  0  0  0  0  0  0  0  0  0  0  0
    0.9927  -18.6454   -4.5549 S   0  0  0  0  0  0  0  0  0  0  0  0
   -2.7826  -17.2743   -5.1819 C   0  0  0  0  0  0  0  0  0  0  0  0
   -3.1203  -17.4013   -6.6685 C   0  0  0  0  0  0  0  0  0  0  0  0
    0.0235  -21.1456   -3.7196 C   0  0  0  0  0  0  0  0  0  0  0  0
   -1.3495  -22.2191   -3.5903 S   0  0  0  0  0  0  0  0  0  0  0  0
   -0.3607  -23.5437   -3.0437 C   0  0  0  0  0  0  0  0  0  0  0  0
    0.9624  -23.1553   -2.9119 C   0  0  0  0  0  0  0  0  0  0  0  0
    1.1839  -21.8008   -3.3164 C   0  0  0  0  0  0  0  0  0  0  0  0
    2.0116  -23.9795   -2.3014 C   0  0  0  0  0  0  0  0  0  0  0  0
    3.2962  -23.2923   -2.1479 C   0  0  0  0  0  0  0  0  0  0  0  0
    3.5338  -21.9715   -2.6442 C   0  0  0  0  0  0  0  0  0  0  0  0
    2.4972  -21.1845   -3.3029 C   0  0  0  0  0  0  0  0  0  0  0  0
    4.3910  -23.8288   -1.5183 C   0  0  0  0  0  0  0  0  0  0  0  0
    5.7200  -22.7188   -1.5393 S   0  0  0  0  0  0  0  0  0  0  0  0
    4.8063  -21.5227   -2.3910 C   0  0  0  0  0  0  0  0  0  0  0  0
    2.7307  -20.0840   -3.7984 O   0  0  0  0  0  0  0  0  0  0  0  0
    1.8385  -25.1276   -1.9203 O   0  0  0  0  0  0  0  0  0  0  0  0
    5.4380  -20.2345   -2.7763 C   0  0  0  0  0  0  0  0  0  0  0  0
    5.9351  -20.2865   -4.2240 C   0  0  0  0  0  0  0  0  0  0  0  0
    4.5588  -25.1718   -0.9048 C   0  0  0  0  0  0  0  0  0  0  0  0
    4.9407  -26.2088   -1.9648 C   0  0  0  0  0  0  0  0  0  0  0  0
   -0.9829  -24.8106   -2.8383 C   0  0  0  0  0  0  0  0  0  0  0  0
   -0.4745  -26.0662   -3.0653 C   0  0  0  0  0  0  0  0  0  0  0  0
   -1.3688  -27.1105   -2.7965 C   0  0  0  0  0  0  0  0  0  0  0  0
   -2.5959  -26.6458   -2.3507 C   0  0  0  0  0  0  0  0  0  0  0  0
   -2.6413  -24.9067   -2.3124 S   0  0  0  0  0  0  0  0  0  0  0  0
   -1.0435  -28.5573   -3.0156 C   0  0  0  0  0  0  0  0  0  0  0  0
    0.0071  -28.7803   -4.0995 C   0  0  0  0  0  0  0  0  0  0  0  0
   -3.7302  -27.4013   -1.9273 C   0  0  0  0  0  0  0  0  0  0  0  0
   -5.3464  -26.7602   -2.0721 S   0  0  0  0  0  0  0  0  0  0  0  0
   -6.0306  -28.2097   -1.3931 C   0  0  0  0  0  0  0  0  0  0  0  0
   -5.0414  -29.1117   -1.0708 C   0  0  0  0  0  0  0  0  0  0  0  0
   -3.7554  -28.6604   -1.3690 C   0  0  0  0  0  0  0  0  0  0  0  0
   -7.4312  -28.3805   -1.2343 C   0  0  0  0  0  0  0  0  0  0  0  0
   -8.4605  -27.5222   -1.5527 C   0  0  0  0  0  0  0  0  0  0  0  0
   -9.7224  -28.0453   -1.2755 C   0  0  0  0  0  0  0  0  0  0  0  0
   -9.6988  -29.3184   -0.7394 C   0  0  0  0  0  0  0  0  0  0  0  0
   -8.0517  -29.8655   -0.5732 S   0  0  0  0  0  0  0  0  0  0  0  0
  -10.8302  -30.0997   -0.3800 C   0  0  0  0  0  0  0  0  0  0  0  0
  -10.9033  -31.3804    0.1579 C   0  0  0  0  0  0  0  0  0  0  0  0
  -12.2232  -31.7816    0.3383 C   0  0  0  0  0  0  0  0  0  0  0  0
  -13.1801  -30.8559   -0.0478 C   0  0  0  0  0  0  0  0  0  0  0  0
  -12.4138  -29.4182   -0.6539 S   0  0  0  0  0  0  0  0  0  0  0  0
   -9.7547  -32.2510    0.5594 C   0  0  0  0  0  0  0  0  0  0  0  0
   -9.2453  -31.8774    1.9527 C   0  0  0  0  0  0  0  0  0  0  0  0
  -14.5732  -31.0853    0.0439 C   0  0  0  0  0  0  0  0  0  0  0  0
  -15.0780  -32.6202    0.7112 S   0  0  0  0  0  0  0  0  0  0  0  0
  -16.7757  -32.2485    0.5210 C   0  0  0  0  0  0  0  0  0  0  0  0
  -16.9277  -30.9850   -0.0401 C   0  0  0  0  0  0  0  0  0  0  0  0
  -15.6848  -30.3297   -0.3104 C   0  0  0  0  0  0  0  0  0  0  0  0
  -18.2123  -30.3761   -0.3246 C   0  0  0  0  0  0  0  0  0  0  0  0
  -18.1387  -29.0741   -0.9808 C   0  0  0  0  0  0  0  0  0  0  0  0
  -16.8947  -28.4196   -1.2536 C   0  0  0  0  0  0  0  0  0  0  0  0
  -15.6065  -29.0045   -0.8944 C   0  0  0  0  0  0  0  0  0  0  0  0
  -19.2255  -28.3647   -1.4281 C   0  0  0  0  0  0  0  0  0  0  0  0
  -18.7276  -26.8891   -2.1821 S   0  0  0  0  0  0  0  0  0  0  0  0
  -17.0523  -27.2215   -1.9050 C   0  0  0  0  0  0  0  0  0  0  0  0
  -14.5436  -28.4144   -1.0814 O   0  0  0  0  0  0  0  0  0  0  0  0
  -19.2855  -30.9077   -0.0440 O   0  0  0  0  0  0  0  0  0  0  0  0
  -16.0179  -26.2421   -2.3270 C   0  0  0  0  0  0  0  0  0  0  0  0
  -15.6183  -25.3369   -1.1582 C   0  0  0  0  0  0  0  0  0  0  0  0
  -20.6703  -28.6889   -1.3058 C   0  0  0  0  0  0  0  0  0  0  0  0
  -21.2031  -28.2836    0.0715 C   0  0  0  0  0  0  0  0  0  0  0  0
  -17.6974  -33.2401    0.9305 C   0  0  0  0  0  0  0  0  0  0  0  0
  -17.3207  -34.4793    1.4287 C   0  0  0  0  0  0  0  0  0  0  0  0
  -18.3732  -35.3203    1.7736 C   0  0  0  0  0  0  0  0  0  0  0  0
  -19.6035  -34.7105    1.5388 C   0  0  0  0  0  0  0  0  0  0  0  0
  -19.4293  -33.1033    0.8890 S   0  0  0  0  0  0  0  0  0  0  0  0
  -18.2168  -36.7032    2.3256 C   0  0  0  0  0  0  0  0  0  0  0  0
  -16.7698  -37.1483    2.4958 C   0  0  0  0  0  0  0  0  0  0  0  0
  -20.9166  -35.2093    1.7475 C   0  0  0  0  0  0  0  0  0  0  0  0
  -21.2630  -36.8022    2.3708 S   0  0  0  0  0  0  0  0  0  0  0  0
  -22.9769  -36.5241    2.2773 C   0  0  0  0  0  0  0  0  0  0  0  0
  -23.2413  -35.2643    1.7899 C   0  0  0  0  0  0  0  0  0  0  0  0
  -22.0928  -34.5320    1.4945 C   0  0  0  0  0  0  0  0  0  0  0  0
  -23.9009  -37.5314    2.6758 C   0  0  0  0  0  0  0  0  0  0  0  0
  -23.6353  -38.7897    3.1549 C   0  0  0  0  0  0  0  0  0  0  0  0
  -24.7971  -39.5246    3.4510 C   0  0  0  0  0  0  0  0  0  0  0  0
  -25.9375  -38.8296    3.1987 C   0  0  0  0  0  0  0  0  0  0  0  0
  -25.6193  -37.2539    2.5907 S   0  0  0  0  0  0  0  0  0  0  0  0
    7.7557   -0.7312  -11.9679 H   0  0  0  0  0  0  0  0  0  0  0  0
    4.2801   -2.4940  -10.1614 H   0  0  0  0  0  0  0  0  0  0  0  0
    5.9900    0.8764  -10.8494 H   0  0  0  0  0  0  0  0  0  0  0  0
    4.6708    0.1465   -9.9210 H   0  0  0  0  0  0  0  0  0  0  0  0
    4.7809    0.3556  -12.9697 H   0  0  0  0  0  0  0  0  0  0  0  0
    3.7894    1.3591  -11.9059 H   0  0  0  0  0  0  0  0  0  0  0  0
    3.4665   -0.3725  -12.0458 H   0  0  0  0  0  0  0  0  0  0  0  0
   11.1684   -7.9038  -12.4362 H   0  0  0  0  0  0  0  0  0  0  0  0
   10.3143   -6.4047  -11.9901 H   0  0  0  0  0  0  0  0  0  0  0  0
    9.7359   -8.0288  -14.5121 H   0  0  0  0  0  0  0  0  0  0  0  0
   10.7024   -6.5489  -14.4464 H   0  0  0  0  0  0  0  0  0  0  0  0
    8.9856   -6.4936  -14.0440 H   0  0  0  0  0  0  0  0  0  0  0  0
    7.7499  -12.1456  -11.1390 H   0  0  0  0  0  0  0  0  0  0  0  0
    6.1844  -11.4211  -10.6914 H   0  0  0  0  0  0  0  0  0  0  0  0
    8.6260  -11.5054   -8.8581 H   0  0  0  0  0  0  0  0  0  0  0  0
    7.2387  -12.5991   -8.7676 H   0  0  0  0  0  0  0  0  0  0  0  0
    7.0186  -10.8768   -8.4568 H   0  0  0  0  0  0  0  0  0  0  0  0
    1.7497   -5.8376   -8.8485 H   0  0  0  0  0  0  0  0  0  0  0  0
   -0.5688   -7.8717   -6.7156 H   0  0  0  0  0  0  0  0  0  0  0  0
   -1.1576   -7.5946   -8.3556 H   0  0  0  0  0  0  0  0  0  0  0  0
    0.3383   -5.5104   -6.6973 H   0  0  0  0  0  0  0  0  0  0  0  0
   -1.4145   -5.5951   -6.8814 H   0  0  0  0  0  0  0  0  0  0  0  0
   -0.4041   -5.2493   -8.2808 H   0  0  0  0  0  0  0  0  0  0  0  0
   -1.7223  -12.2526   -6.7765 H   0  0  0  0  0  0  0  0  0  0  0  0
   -1.3349   -9.8672   -7.6872 H   0  0  0  0  0  0  0  0  0  0  0  0
    2.7115  -14.1156   -6.2738 H   0  0  0  0  0  0  0  0  0  0  0  0
    2.3651  -16.5345   -5.3889 H   0  0  0  0  0  0  0  0  0  0  0  0
   -2.3814  -19.8723   -4.2156 H   0  0  0  0  0  0  0  0  0  0  0  0
   -2.7019  -16.2191   -4.9151 H   0  0  0  0  0  0  0  0  0  0  0  0
   -3.5890  -17.7139   -4.5914 H   0  0  0  0  0  0  0  0  0  0  0  0
   -2.3327  -16.9642   -7.2770 H   0  0  0  0  0  0  0  0  0  0  0  0
   -4.0524  -16.8868   -6.8881 H   0  0  0  0  0  0  0  0  0  0  0  0
   -3.2268  -18.4487   -6.9420 H   0  0  0  0  0  0  0  0  0  0  0  0
    6.2737  -20.0228   -2.1062 H   0  0  0  0  0  0  0  0  0  0  0  0
    4.6955  -19.4383   -2.6930 H   0  0  0  0  0  0  0  0  0  0  0  0
    6.6382  -21.1060   -4.3589 H   0  0  0  0  0  0  0  0  0  0  0  0
    6.4307  -19.3538   -4.4783 H   0  0  0  0  0  0  0  0  0  0  0  0
    5.0927  -20.4261   -4.8961 H   0  0  0  0  0  0  0  0  0  0  0  0
    3.6134  -25.4706   -0.4484 H   0  0  0  0  0  0  0  0  0  0  0  0
    5.3346  -25.1279   -0.1377 H   0  0  0  0  0  0  0  0  0  0  0  0
    4.1456  -26.2908   -2.7009 H   0  0  0  0  0  0  0  0  0  0  0  0
    5.0839  -27.1797   -1.4984 H   0  0  0  0  0  0  0  0  0  0  0  0
    5.8616  -25.9216   -2.4683 H   0  0  0  0  0  0  0  0  0  0  0  0
    0.5230  -26.2197   -3.4262 H   0  0  0  0  0  0  0  0  0  0  0  0
   -1.9610  -29.0856   -3.2875 H   0  0  0  0  0  0  0  0  0  0  0  0
   -0.6774  -28.9864   -2.0775 H   0  0  0  0  0  0  0  0  0  0  0  0
   -0.2857  -28.2868   -5.0235 H   0  0  0  0  0  0  0  0  0  0  0  0
    0.1116  -29.8451   -4.2958 H   0  0  0  0  0  0  0  0  0  0  0  0
    0.9752  -28.3972   -3.7887 H   0  0  0  0  0  0  0  0  0  0  0  0
   -5.2561  -30.0687   -0.6286 H   0  0  0  0  0  0  0  0  0  0  0  0
   -2.8688  -29.2213   -1.1424 H   0  0  0  0  0  0  0  0  0  0  0  0
   -8.2885  -26.5477   -1.9747 H   0  0  0  0  0  0  0  0  0  0  0  0
  -10.6439  -27.5215   -1.4578 H   0  0  0  0  0  0  0  0  0  0  0  0
  -12.4917  -32.7432    0.7423 H   0  0  0  0  0  0  0  0  0  0  0  0
   -8.9418  -32.1655   -0.1635 H   0  0  0  0  0  0  0  0  0  0  0  0
  -10.0913  -33.2897    0.5679 H   0  0  0  0  0  0  0  0  0  0  0  0
   -8.9031  -30.8460    1.9713 H   0  0  0  0  0  0  0  0  0  0  0  0
   -8.4167  -32.5215    2.2357 H   0  0  0  0  0  0  0  0  0  0  0  0
  -10.0408  -31.9896    2.6859 H   0  0  0  0  0  0  0  0  0  0  0  0
  -16.4042  -25.6351   -3.1482 H   0  0  0  0  0  0  0  0  0  0  0  0
  -15.1333  -26.7866   -2.6632 H   0  0  0  0  0  0  0  0  0  0  0  0
  -16.4872  -24.8142   -0.7633 H   0  0  0  0  0  0  0  0  0  0  0  0
  -14.8895  -24.6033   -1.4914 H   0  0  0  0  0  0  0  0  0  0  0  0
  -15.1725  -25.9337   -0.3671 H   0  0  0  0  0  0  0  0  0  0  0  0
  -20.8012  -29.7662   -1.4258 H   0  0  0  0  0  0  0  0  0  0  0  0
  -21.2283  -28.1666   -2.0855 H   0  0  0  0  0  0  0  0  0  0  0  0
  -20.6942  -28.8532    0.8443 H   0  0  0  0  0  0  0  0  0  0  0  0
  -22.2677  -28.4923    0.1318 H   0  0  0  0  0  0  0  0  0  0  0  0
  -21.0429  -27.2219    0.2477 H   0  0  0  0  0  0  0  0  0  0  0  0
  -16.2840  -34.7470    1.5273 H   0  0  0  0  0  0  0  0  0  0  0  0
  -18.7330  -37.4047    1.6623 H   0  0  0  0  0  0  0  0  0  0  0  0
  -18.7250  -36.7531    3.2940 H   0  0  0  0  0  0  0  0  0  0  0  0
  -16.2510  -37.1513    1.5401 H   0  0  0  0  0  0  0  0  0  0  0  0
  -16.7432  -38.1571    2.9010 H   0  0  0  0  0  0  0  0  0  0  0  0
  -16.2408  -36.4913    3.1820 H   0  0  0  0  0  0  0  0  0  0  0  0
  -24.2435  -34.8969    1.6558 H   0  0  0  0  0  0  0  0  0  0  0  0
  -22.1009  -33.5298    1.1048 H   0  0  0  0  0  0  0  0  0  0  0  0
  -22.6343  -39.1613    3.2846 H   0  0  0  0  0  0  0  0  0  0  0  0
  -24.7858  -40.5287    3.8357 H   0  0  0  0  0  0  0  0  0  0  0  0
  -26.9537  -39.1430    3.3315 H   0  0  0  0  0  0  0  0  0  0  0  0
  1  2  2  0  0  0  0
  2  6  1  0  0  0  0
  2  3  1  0  0  0  0
  3128  1  0  0  0  0
  4  3  2  0  0  0  0
  4  8  1  0  0  0  0
  5  1  1  0  0  0  0
  5  4  1  0  0  0  0
  6129  1  0  0  0  0
  6130  1  0  0  0  0
  7132  1  0  0  0  0
  7  6  1  0  0  0  0
  8  9  1  0  0  0  0
  9 10  1  0  0  0  0
 10 26  1  0  0  0  0
 11 10  2  0  0  0  0
 12  8  2  0  0  0  0
 12 11  1  0  0  0  0
 13 11  1  0  0  0  0
 13 21  2  0  0  0  0
 14 13  1  0  0  0  0
 15 16  1  0  0  0  0
 15 14  1  0  0  0  0
 16 12  1  0  0  0  0
 17 14  2  0  0  0  0
 17 24  1  0  0  0  0
 18 17  1  0  0  0  0
 19 18  1  0  0  0  0
 19 15  2  0  0  0  0
 20 16  2  0  0  0  0
 22134  1  0  0  0  0
 22135  1  0  0  0  0
 22 19  1  0  0  0  0
 23 22  1  0  0  0  0
 24 25  1  0  0  0  0
 25141  1  0  0  0  0
 25142  1  0  0  0  0
 25143  1  0  0  0  0
 26 30  1  0  0  0  0
 26 27  2  0  0  0  0
 27 28  1  0  0  0  0
 28 29  2  0  0  0  0
 28 31  1  0  0  0  0
 29 33  1  0  0  0  0
 30 29  1  0  0  0  0
 31 32  1  0  0  0  0
 31145  1  0  0  0  0
 32148  1  0  0  0  0
 32147  1  0  0  0  0
 33 37  2  0  0  0  0
 33 34  1  0  0  0  0
 34 35  1  0  0  0  0
 35 38  1  0  0  0  0
 36 35  2  0  0  0  0
 36150  1  0  0  0  0
 37 36  1  0  0  0  0
 38 39  2  0  0  0  0
 38 42  1  0  0  0  0
 39 40  1  0  0  0  0
 40 41  2  0  0  0  0
 40153  1  0  0  0  0
 41 43  1  0  0  0  0
 42 41  1  0  0  0  0
 43 44  2  0  0  0  0
 43 47  1  0  0  0  0
 44 45  1  0  0  0  0
 45154  1  0  0  0  0
 45 46  2  0  0  0  0
 46 50  1  0  0  0  0
 47 46  1  0  0  0  0
 48155  1  0  0  0  0
 48 44  1  0  0  0  0
 48156  1  0  0  0  0
 49 48  1  0  0  0  0
 50 51  1  0  0  0  0
 50 54  2  0  0  0  0
 51 52  1  0  0  0  0
 52 53  2  0  0  0  0
 52 68  1  0  0  0  0
 53 55  1  0  0  0  0
 54 58  1  0  0  0  0
 54 53  1  0  0  0  0
 55 56  1  0  0  0  0
 55 63  2  0  0  0  0
 56 59  2  0  0  0  0
 57 61  2  0  0  0  0
 57 56  1  0  0  0  0
 58 57  1  0  0  0  0
 59 66  1  0  0  0  0
 60 59  1  0  0  0  0
 61 60  1  0  0  0  0
 62 58  2  0  0  0  0
 64161  1  0  0  0  0
 64 61  1  0  0  0  0
 64160  1  0  0  0  0
 65 64  1  0  0  0  0
 66165  1  0  0  0  0
 66166  1  0  0  0  0
 67168  1  0  0  0  0
 67 66  1  0  0  0  0
 68 72  1  0  0  0  0
 69 68  2  0  0  0  0
 69 70  1  0  0  0  0
 70 71  2  0  0  0  0
 71 72  1  0  0  0  0
 71 75  1  0  0  0  0
 73 70  1  0  0  0  0
 73172  1  0  0  0  0
 74175  1  0  0  0  0
 74 73  1  0  0  0  0
 75 79  2  0  0  0  0
 76 75  1  0  0  0  0
 76 77  1  0  0  0  0
 77 80  1  0  0  0  0
 77 78  2  0  0  0  0
 78176  1  0  0  0  0
 79177  1  0  0  0  0
 79 78  1  0  0  0  0
 80 84  1  0  0  0  0
 81 82  1  0  0  0  0
 81 80  2  0  0  0  0
 82 83  2  0  0  0  0
 83 84  1  0  0  0  0
 83 85  1  0  0  0  0
 85 86  2  0  0  0  0
 86 87  1  0  0  0  0
 86 90  1  0  0  0  0
 87180  1  0  0  0  0
 88 92  1  0  0  0  0
 88 87  2  0  0  0  0
 89 85  1  0  0  0  0
 89 88  1  0  0  0  0
 90182  1  0  0  0  0
 90 91  1  0  0  0  0
 91183  1  0  0  0  0
 91184  1  0  0  0  0
 91185  1  0  0  0  0
 92 93  1  0  0  0  0
 94 93  1  0  0  0  0
 94110  1  0  0  0  0
 95 94  2  0  0  0  0
 96 95  1  0  0  0  0
 96 92  2  0  0  0  0
 97105  2  0  0  0  0
 97 95  1  0  0  0  0
 98 97  1  0  0  0  0
 99 98  1  0  0  0  0
 99100  1  0  0  0  0
100 96  1  0  0  0  0
101108  1  0  0  0  0
101 98  2  0  0  0  0
102103  1  0  0  0  0
102101  1  0  0  0  0
103 99  2  0  0  0  0
104100  2  0  0  0  0
106103  1  0  0  0  0
106107  1  0  0  0  0
107188  1  0  0  0  0
107190  1  0  0  0  0
108109  1  0  0  0  0
109194  1  0  0  0  0
109195  1  0  0  0  0
109193  1  0  0  0  0
110111  2  0  0  0  0
111196  1  0  0  0  0
111112  1  0  0  0  0
112115  1  0  0  0  0
113117  1  0  0  0  0
113112  2  0  0  0  0
114110  1  0  0  0  0
114113  1  0  0  0  0
115116  1  0  0  0  0
115198  1  0  0  0  0
116200  1  0  0  0  0
116201  1  0  0  0  0
117118  1  0  0  0  0
119118  1  0  0  0  0
119122  1  0  0  0  0
120119  2  0  0  0  0
121117  2  0  0  0  0
121120  1  0  0  0  0
122123  2  0  0  0  0
123204  1  0  0  0  0
123124  1  0  0  0  0
124205  1  0  0  0  0
125206  1  0  0  0  0
125124  2  0  0  0  0
126122  1  0  0  0  0
126125  1  0  0  0  0
127  1  1  0  0  0  0
131  7  1  0  0  0  0
133  7  1  0  0  0  0
136 23  1  0  0  0  0
137 23  1  0  0  0  0
138 23  1  0  0  0  0
139 24  1  0  0  0  0
140 24  1  0  0  0  0
144 27  1  0  0  0  0
146 31  1  0  0  0  0
149 32  1  0  0  0  0
151 37  1  0  0  0  0
152 39  1  0  0  0  0
157 49  1  0  0  0  0
158 49  1  0  0  0  0
159 49  1  0  0  0  0
162 65  1  0  0  0  0
163 65  1  0  0  0  0
164 65  1  0  0  0  0
167 67  1  0  0  0  0
169 67  1  0  0  0  0
170 69  1  0  0  0  0
171 73  1  0  0  0  0
173 74  1  0  0  0  0
174 74  1  0  0  0  0
178 81  1  0  0  0  0
179 82  1  0  0  0  0
181 90  1  0  0  0  0
186106  1  0  0  0  0
187106  1  0  0  0  0
189107  1  0  0  0  0
191108  1  0  0  0  0
192108  1  0  0  0  0
197115  1  0  0  0  0
199116  1  0  0  0  0
202120  1  0  0  0  0
203121  1  0  0  0  0
M  END
