SCF done       -367.531624372895          0.000499357605
 OpenBabel12282109573D

206226  0  0  0  0  0  0  0  0999 V2000
   -3.7490   -0.2367   -4.6794 C   0  0  0  0  0  0  0  0  0  0  0  0
   -2.6711   -0.2633   -5.5223 C   0  0  0  0  0  0  0  0  0  0  0  0
   -2.1921   -1.5704   -5.6795 C   0  0  0  0  0  0  0  0  0  0  0  0
   -2.8968   -2.5223   -4.9654 C   0  0  0  0  0  0  0  0  0  0  0  0
   -4.1941   -1.7742   -4.0740 S   0  0  0  0  0  0  0  0  0  0  0  0
   -2.0424    0.9390   -6.1541 C   0  0  0  0  0  0  0  0  0  0  0  0
   -0.8181    1.3895   -5.3554 C   0  0  0  0  0  0  0  0  0  0  0  0
   -2.5806   -3.9070   -4.9682 C   0  0  0  0  0  0  0  0  0  0  0  0
   -1.2442   -4.4039   -5.9783 S   0  0  0  0  0  0  0  0  0  0  0  0
   -1.3878   -6.0790   -5.5036 C   0  0  0  0  0  0  0  0  0  0  0  0
   -2.4327   -6.2301   -4.6002 C   0  0  0  0  0  0  0  0  0  0  0  0
   -3.1102   -5.0039   -4.3029 C   0  0  0  0  0  0  0  0  0  0  0  0
   -2.8100   -7.5032   -4.0156 C   0  0  0  0  0  0  0  0  0  0  0  0
   -3.9200   -7.4377   -3.0723 C   0  0  0  0  0  0  0  0  0  0  0  0
   -4.5987   -6.2140   -2.7778 C   0  0  0  0  0  0  0  0  0  0  0  0
   -4.2418   -4.9414   -3.3920 C   0  0  0  0  0  0  0  0  0  0  0  0
   -4.4084   -8.5031   -2.3575 C   0  0  0  0  0  0  0  0  0  0  0  0
   -5.7105   -8.0097   -1.3298 S   0  0  0  0  0  0  0  0  0  0  0  0
   -5.6015   -6.3639   -1.8502 C   0  0  0  0  0  0  0  0  0  0  0  0
   -4.8581   -3.9075   -3.1458 O   0  0  0  0  0  0  0  0  0  0  0  0
   -2.2413   -8.5597   -4.2859 O   0  0  0  0  0  0  0  0  0  0  0  0
   -6.5056   -5.3139   -1.3161 C   0  0  0  0  0  0  0  0  0  0  0  0
   -7.4204   -5.8106   -0.2069 C   0  0  0  0  0  0  0  0  0  0  0  0
   -3.9948   -9.9293   -2.4050 C   0  0  0  0  0  0  0  0  0  0  0  0
   -4.6486  -10.6466   -3.5896 C   0  0  0  0  0  0  0  0  0  0  0  0
   -0.4580   -6.9907   -6.0614 C   0  0  0  0  0  0  0  0  0  0  0  0
    0.5187   -6.6245   -6.9761 C   0  0  0  0  0  0  0  0  0  0  0  0
    1.3641   -7.6527   -7.3816 C   0  0  0  0  0  0  0  0  0  0  0  0
    1.0309   -8.8500   -6.7521 C   0  0  0  0  0  0  0  0  0  0  0  0
   -0.3396   -8.6825   -5.6924 S   0  0  0  0  0  0  0  0  0  0  0  0
    2.4710   -7.4892   -8.3793 C   0  0  0  0  0  0  0  0  0  0  0  0
    2.4566   -6.1512   -9.1098 C   0  0  0  0  0  0  0  0  0  0  0  0
    1.6497  -10.1286   -6.8445 C   0  0  0  0  0  0  0  0  0  0  0  0
    0.8603  -11.5021   -6.1094 S   0  0  0  0  0  0  0  0  0  0  0  0
    2.1592  -12.5768   -6.5400 C   0  0  0  0  0  0  0  0  0  0  0  0
    3.1209  -11.8684   -7.2309 C   0  0  0  0  0  0  0  0  0  0  0  0
    2.8490  -10.5084   -7.4051 C   0  0  0  0  0  0  0  0  0  0  0  0
    4.2227  -12.4282   -7.7466 F   0  0  0  0  0  0  0  0  0  0  0  0
    2.1394  -13.9503   -6.1594 C   0  0  0  0  0  0  0  0  0  0  0  0
    3.1894  -14.8266   -5.9667 C   0  0  0  0  0  0  0  0  0  0  0  0
    2.8201  -16.1064   -5.5526 C   0  0  0  0  0  0  0  0  0  0  0  0
    1.4569  -16.2558   -5.4128 C   0  0  0  0  0  0  0  0  0  0  0  0
    0.6436  -14.7641   -5.8107 S   0  0  0  0  0  0  0  0  0  0  0  0
    4.4728  -14.4770   -6.1098 F   0  0  0  0  0  0  0  0  0  0  0  0
    0.8036  -17.4418   -4.9773 C   0  0  0  0  0  0  0  0  0  0  0  0
   -0.5475  -17.7532   -4.8886 C   0  0  0  0  0  0  0  0  0  0  0  0
   -0.7399  -19.0397   -4.3907 C   0  0  0  0  0  0  0  0  0  0  0  0
    0.4210  -19.7294   -4.0761 C   0  0  0  0  0  0  0  0  0  0  0  0
    1.8137  -18.7514   -4.4251 S   0  0  0  0  0  0  0  0  0  0  0  0
   -1.6837  -16.8766   -5.3100 C   0  0  0  0  0  0  0  0  0  0  0  0
   -1.8922  -16.9414   -6.8241 C   0  0  0  0  0  0  0  0  0  0  0  0
    0.4440  -21.0344   -3.5234 C   0  0  0  0  0  0  0  0  0  0  0  0
   -1.0940  -21.8318   -3.2953 S   0  0  0  0  0  0  0  0  0  0  0  0
   -0.3500  -23.2230   -2.5639 C   0  0  0  0  0  0  0  0  0  0  0  0
    1.0261  -23.0911   -2.5272 C   0  0  0  0  0  0  0  0  0  0  0  0
    1.4791  -21.8498   -3.0729 C   0  0  0  0  0  0  0  0  0  0  0  0
    1.9436  -24.1487   -2.0810 C   0  0  0  0  0  0  0  0  0  0  0  0
    3.3570  -23.7739   -2.1450 C   0  0  0  0  0  0  0  0  0  0  0  0
    3.8033  -22.5100   -2.6474 C   0  0  0  0  0  0  0  0  0  0  0  0
    2.8853  -21.5013   -3.1648 C   0  0  0  0  0  0  0  0  0  0  0  0
    4.3909  -24.5803   -1.7390 C   0  0  0  0  0  0  0  0  0  0  0  0
    5.9126  -23.7815   -1.9430 S   0  0  0  0  0  0  0  0  0  0  0  0
    5.1678  -22.3631   -2.5944 C   0  0  0  0  0  0  0  0  0  0  0  0
    3.2845  -20.4471   -3.6548 O   0  0  0  0  0  0  0  0  0  0  0  0
    1.5704  -25.2466   -1.6985 O   0  0  0  0  0  0  0  0  0  0  0  0
    6.0073  -21.2232   -3.0451 C   0  0  0  0  0  0  0  0  0  0  0  0
    6.2673  -21.3040   -4.5524 C   0  0  0  0  0  0  0  0  0  0  0  0
    4.3401  -25.9363   -1.1327 C   0  0  0  0  0  0  0  0  0  0  0  0
    4.0707  -25.8461    0.3723 C   0  0  0  0  0  0  0  0  0  0  0  0
   -1.1896  -24.2754   -2.0849 C   0  0  0  0  0  0  0  0  0  0  0  0
   -1.0657  -25.0167   -0.9365 C   0  0  0  0  0  0  0  0  0  0  0  0
   -2.0784  -25.9662   -0.7483 C   0  0  0  0  0  0  0  0  0  0  0  0
   -3.0083  -25.9500   -1.7790 C   0  0  0  0  0  0  0  0  0  0  0  0
   -2.6240  -24.7265   -2.9598 S   0  0  0  0  0  0  0  0  0  0  0  0
   -2.1444  -26.9078    0.4121 C   0  0  0  0  0  0  0  0  0  0  0  0
   -0.9718  -26.7844    1.3770 C   0  0  0  0  0  0  0  0  0  0  0  0
   -4.1389  -26.7816   -1.9999 C   0  0  0  0  0  0  0  0  0  0  0  0
   -4.6653  -27.9810   -0.8504 S   0  0  0  0  0  0  0  0  0  0  0  0
   -5.9612  -28.5036   -1.8830 C   0  0  0  0  0  0  0  0  0  0  0  0
   -5.9516  -27.7534   -3.0439 C   0  0  0  0  0  0  0  0  0  0  0  0
   -4.9488  -26.7895   -3.1174 C   0  0  0  0  0  0  0  0  0  0  0  0
   -6.8474  -27.9450   -4.0259 F   0  0  0  0  0  0  0  0  0  0  0  0
   -6.8276  -29.5661   -1.5153 C   0  0  0  0  0  0  0  0  0  0  0  0
   -6.8834  -30.2380   -0.3081 C   0  0  0  0  0  0  0  0  0  0  0  0
   -7.8257  -31.2594   -0.2423 C   0  0  0  0  0  0  0  0  0  0  0  0
   -8.5297  -31.4108   -1.4204 C   0  0  0  0  0  0  0  0  0  0  0  0
   -8.0004  -30.2424   -2.6031 S   0  0  0  0  0  0  0  0  0  0  0  0
   -6.0800  -29.9217    0.7214 F   0  0  0  0  0  0  0  0  0  0  0  0
   -9.5335  -32.3895   -1.6526 C   0  0  0  0  0  0  0  0  0  0  0  0
  -10.2488  -32.6969   -2.8043 C   0  0  0  0  0  0  0  0  0  0  0  0
  -11.1159  -33.7655   -2.5924 C   0  0  0  0  0  0  0  0  0  0  0  0
  -11.1082  -34.2848   -1.3067 C   0  0  0  0  0  0  0  0  0  0  0  0
   -9.9822  -33.4127   -0.3124 S   0  0  0  0  0  0  0  0  0  0  0  0
  -10.1040  -32.0396   -4.1399 C   0  0  0  0  0  0  0  0  0  0  0  0
   -8.9371  -32.6446   -4.9229 C   0  0  0  0  0  0  0  0  0  0  0  0
  -11.8963  -35.3857   -0.8919 C   0  0  0  0  0  0  0  0  0  0  0  0
  -12.8406  -36.1963   -2.1191 S   0  0  0  0  0  0  0  0  0  0  0  0
  -13.4978  -37.3483   -0.9810 C   0  0  0  0  0  0  0  0  0  0  0  0
  -13.0086  -37.0916    0.2946 C   0  0  0  0  0  0  0  0  0  0  0  0
  -12.0959  -35.9920    0.3432 C   0  0  0  0  0  0  0  0  0  0  0  0
  -13.3927  -37.8452    1.4737 C   0  0  0  0  0  0  0  0  0  0  0  0
  -12.7691  -37.4012    2.7150 C   0  0  0  0  0  0  0  0  0  0  0  0
  -11.8399  -36.3128    2.7608 C   0  0  0  0  0  0  0  0  0  0  0  0
  -11.4431  -35.5709    1.5692 C   0  0  0  0  0  0  0  0  0  0  0  0
  -12.9893  -37.9695    3.9456 C   0  0  0  0  0  0  0  0  0  0  0  0
  -12.0762  -37.1550    5.1685 S   0  0  0  0  0  0  0  0  0  0  0  0
  -11.3833  -36.0527    4.0296 C   0  0  0  0  0  0  0  0  0  0  0  0
  -10.6082  -34.6690    1.6082 O   0  0  0  0  0  0  0  0  0  0  0  0
  -14.1947  -38.7766    1.4401 O   0  0  0  0  0  0  0  0  0  0  0  0
  -10.3996  -35.0348    4.4807 C   0  0  0  0  0  0  0  0  0  0  0  0
   -8.9669  -35.5293    4.2599 C   0  0  0  0  0  0  0  0  0  0  0  0
  -13.8983  -39.0859    4.3124 C   0  0  0  0  0  0  0  0  0  0  0  0
  -15.3347  -38.5822    4.4819 C   0  0  0  0  0  0  0  0  0  0  0  0
  -14.3748  -38.3360   -1.4918 C   0  0  0  0  0  0  0  0  0  0  0  0
  -14.6945  -38.4585   -2.8365 C   0  0  0  0  0  0  0  0  0  0  0  0
  -15.5622  -39.5028   -3.1437 C   0  0  0  0  0  0  0  0  0  0  0  0
  -15.9272  -40.2005   -1.9960 C   0  0  0  0  0  0  0  0  0  0  0  0
  -15.1835  -39.5590   -0.5613 S   0  0  0  0  0  0  0  0  0  0  0  0
  -16.0100  -39.8518   -4.5308 C   0  0  0  0  0  0  0  0  0  0  0  0
  -15.1824  -39.1956   -5.6306 C   0  0  0  0  0  0  0  0  0  0  0  0
  -16.7828  -41.3313   -1.8560 C   0  0  0  0  0  0  0  0  0  0  0  0
  -16.7145  -42.2561   -0.3780 S   0  0  0  0  0  0  0  0  0  0  0  0
  -17.9524  -43.3504   -0.9173 C   0  0  0  0  0  0  0  0  0  0  0  0
  -18.3715  -42.9769   -2.1755 C   0  0  0  0  0  0  0  0  0  0  0  0
  -17.7256  -41.8557   -2.7099 C   0  0  0  0  0  0  0  0  0  0  0  0
  -19.3569  -43.5944   -2.8390 F   0  0  0  0  0  0  0  0  0  0  0  0
  -18.3919  -44.4302   -0.0880 C   0  0  0  0  0  0  0  0  0  0  0  0
  -18.9921  -45.6197   -0.4305 C   0  0  0  0  0  0  0  0  0  0  0  0
  -19.2950  -46.4601    0.6586 C   0  0  0  0  0  0  0  0  0  0  0  0
  -18.9176  -45.9077    1.8400 C   0  0  0  0  0  0  0  0  0  0  0  0
  -18.1929  -44.3637    1.6389 S   0  0  0  0  0  0  0  0  0  0  0  0
  -19.2345  -45.9923   -1.6927 F   0  0  0  0  0  0  0  0  0  0  0  0
   -4.3109    0.6282   -4.3835 H   0  0  0  0  0  0  0  0  0  0  0  0
   -1.3495   -1.8218   -6.3007 H   0  0  0  0  0  0  0  0  0  0  0  0
   -2.7694    1.7519   -6.1954 H   0  0  0  0  0  0  0  0  0  0  0  0
   -1.7392    0.6962   -7.1747 H   0  0  0  0  0  0  0  0  0  0  0  0
   -1.1055    1.6489   -4.3391 H   0  0  0  0  0  0  0  0  0  0  0  0
   -0.3606    2.2596   -5.8201 H   0  0  0  0  0  0  0  0  0  0  0  0
   -0.0805    0.5916   -5.3096 H   0  0  0  0  0  0  0  0  0  0  0  0
   -7.0975   -4.9146   -2.1459 H   0  0  0  0  0  0  0  0  0  0  0  0
   -5.8914   -4.4798   -0.9634 H   0  0  0  0  0  0  0  0  0  0  0  0
   -8.0594   -6.6141   -0.5671 H   0  0  0  0  0  0  0  0  0  0  0  0
   -8.0519   -5.0004    0.1476 H   0  0  0  0  0  0  0  0  0  0  0  0
   -6.8374   -6.1860    0.6313 H   0  0  0  0  0  0  0  0  0  0  0  0
   -4.2789  -10.4222   -1.4731 H   0  0  0  0  0  0  0  0  0  0  0  0
   -2.9109   -9.9789   -2.5258 H   0  0  0  0  0  0  0  0  0  0  0  0
   -5.7329  -10.5774   -3.5296 H   0  0  0  0  0  0  0  0  0  0  0  0
   -4.3628  -11.6947   -3.5892 H   0  0  0  0  0  0  0  0  0  0  0  0
   -4.3143  -10.1982   -4.5210 H   0  0  0  0  0  0  0  0  0  0  0  0
    0.5966   -5.6123   -7.3304 H   0  0  0  0  0  0  0  0  0  0  0  0
    2.3966   -8.2967   -9.1129 H   0  0  0  0  0  0  0  0  0  0  0  0
    3.4292   -7.5980   -7.8617 H   0  0  0  0  0  0  0  0  0  0  0  0
    1.5053   -5.9976   -9.6134 H   0  0  0  0  0  0  0  0  0  0  0  0
    3.2462   -6.1349   -9.8577 H   0  0  0  0  0  0  0  0  0  0  0  0
    2.6275   -5.3283   -8.4202 H   0  0  0  0  0  0  0  0  0  0  0  0
    3.5348   -9.8561   -7.9077 H   0  0  0  0  0  0  0  0  0  0  0  0
    3.5280  -16.8905   -5.3562 H   0  0  0  0  0  0  0  0  0  0  0  0
   -1.7162  -19.4714   -4.2465 H   0  0  0  0  0  0  0  0  0  0  0  0
   -1.4933  -15.8439   -5.0121 H   0  0  0  0  0  0  0  0  0  0  0  0
   -2.5923  -17.2134   -4.8072 H   0  0  0  0  0  0  0  0  0  0  0  0
   -0.9996  -16.6088   -7.3473 H   0  0  0  0  0  0  0  0  0  0  0  0
   -2.7215  -16.3029   -7.1164 H   0  0  0  0  0  0  0  0  0  0  0  0
   -2.1117  -17.9617   -7.1306 H   0  0  0  0  0  0  0  0  0  0  0  0
    6.9572  -21.2354   -2.5070 H   0  0  0  0  0  0  0  0  0  0  0  0
    5.4824  -20.2901   -2.8322 H   0  0  0  0  0  0  0  0  0  0  0  0
    6.7480  -22.2459   -4.8088 H   0  0  0  0  0  0  0  0  0  0  0  0
    6.9126  -20.4858   -4.8594 H   0  0  0  0  0  0  0  0  0  0  0  0
    5.3278  -21.2255   -5.0926 H   0  0  0  0  0  0  0  0  0  0  0  0
    5.2883  -26.4488   -1.3052 H   0  0  0  0  0  0  0  0  0  0  0  0
    3.5323  -26.5014   -1.6008 H   0  0  0  0  0  0  0  0  0  0  0  0
    4.8402  -25.2554    0.8650 H   0  0  0  0  0  0  0  0  0  0  0  0
    4.0611  -26.8418    0.8070 H   0  0  0  0  0  0  0  0  0  0  0  0
    3.1037  -25.3821    0.5471 H   0  0  0  0  0  0  0  0  0  0  0  0
   -0.2556  -24.8674   -0.2505 H   0  0  0  0  0  0  0  0  0  0  0  0
   -2.1817  -27.9319    0.0269 H   0  0  0  0  0  0  0  0  0  0  0  0
   -3.0814  -26.7416    0.9540 H   0  0  0  0  0  0  0  0  0  0  0  0
   -0.0308  -26.9497    0.8582 H   0  0  0  0  0  0  0  0  0  0  0  0
   -1.0681  -27.5295    2.1630 H   0  0  0  0  0  0  0  0  0  0  0  0
   -0.9522  -25.8010    1.8409 H   0  0  0  0  0  0  0  0  0  0  0  0
   -4.8155  -26.1328   -3.9573 H   0  0  0  0  0  0  0  0  0  0  0  0
   -7.9837  -31.8696    0.6276 H   0  0  0  0  0  0  0  0  0  0  0  0
  -11.7539  -34.1635   -3.3634 H   0  0  0  0  0  0  0  0  0  0  0  0
   -9.9453  -30.9667   -4.0197 H   0  0  0  0  0  0  0  0  0  0  0  0
  -11.0274  -32.1846   -4.7039 H   0  0  0  0  0  0  0  0  0  0  0  0
   -8.0045  -32.5159   -4.3800 H   0  0  0  0  0  0  0  0  0  0  0  0
   -8.8425  -32.1579   -5.8898 H   0  0  0  0  0  0  0  0  0  0  0  0
   -9.1006  -33.7084   -5.0807 H   0  0  0  0  0  0  0  0  0  0  0  0
  -10.5562  -34.8212    5.5398 H   0  0  0  0  0  0  0  0  0  0  0  0
  -10.5452  -34.1210    3.9015 H   0  0  0  0  0  0  0  0  0  0  0  0
   -8.7994  -36.4669    4.7858 H   0  0  0  0  0  0  0  0  0  0  0  0
   -8.2611  -34.7899    4.6276 H   0  0  0  0  0  0  0  0  0  0  0  0
   -8.7891  -35.6800    3.1986 H   0  0  0  0  0  0  0  0  0  0  0  0
  -13.5566  -39.5430    5.2431 H   0  0  0  0  0  0  0  0  0  0  0  0
  -13.8837  -39.8316    3.5154 H   0  0  0  0  0  0  0  0  0  0  0  0
  -15.3810  -37.8010    5.2380 H   0  0  0  0  0  0  0  0  0  0  0  0
  -15.9792  -39.4026    4.7844 H   0  0  0  0  0  0  0  0  0  0  0  0
  -15.7001  -38.1861    3.5385 H   0  0  0  0  0  0  0  0  0  0  0  0
  -14.2813  -37.7898   -3.5702 H   0  0  0  0  0  0  0  0  0  0  0  0
  -17.0566  -39.5540   -4.6497 H   0  0  0  0  0  0  0  0  0  0  0  0
  -15.9610  -40.9379   -4.6452 H   0  0  0  0  0  0  0  0  0  0  0  0
  -15.3047  -38.1155   -5.6208 H   0  0  0  0  0  0  0  0  0  0  0  0
  -15.5068  -39.5633   -6.6013 H   0  0  0  0  0  0  0  0  0  0  0  0
  -14.1279  -39.4317   -5.5095 H   0  0  0  0  0  0  0  0  0  0  0  0
  -17.9897  -41.4495   -3.6663 H   0  0  0  0  0  0  0  0  0  0  0  0
  -19.7623  -47.4205    0.5454 H   0  0  0  0  0  0  0  0  0  0  0  0
  -19.0211  -46.3163    2.8247 H   0  0  0  0  0  0  0  0  0  0  0  0
  1133  1  0  0  0  0
  1  5  1  0  0  0  0
  2  1  2  0  0  0  0
  3  2  1  0  0  0  0
  3  4  2  0  0  0  0
  4  5  1  0  0  0  0
  6  2  1  0  0  0  0
  6  7  1  0  0  0  0
  7139  1  0  0  0  0
  7137  1  0  0  0  0
  8  4  1  0  0  0  0
  8 12  2  0  0  0  0
  9 10  1  0  0  0  0
  9  8  1  0  0  0  0
 10 11  2  0  0  0  0
 11 12  1  0  0  0  0
 11 13  1  0  0  0  0
 12 16  1  0  0  0  0
 13 14  1  0  0  0  0
 14 15  1  0  0  0  0
 14 17  2  0  0  0  0
 15 19  2  0  0  0  0
 16 20  2  0  0  0  0
 16 15  1  0  0  0  0
 17 18  1  0  0  0  0
 19 18  1  0  0  0  0
 19 22  1  0  0  0  0
 21 13  2  0  0  0  0
 22141  1  0  0  0  0
 22 23  1  0  0  0  0
 23143  1  0  0  0  0
 23144  1  0  0  0  0
 24 17  1  0  0  0  0
 24145  1  0  0  0  0
 25148  1  0  0  0  0
 25147  1  0  0  0  0
 25 24  1  0  0  0  0
 26 30  1  0  0  0  0
 26 10  1  0  0  0  0
 27 26  2  0  0  0  0
 28 27  1  0  0  0  0
 28 29  2  0  0  0  0
 29 30  1  0  0  0  0
 31152  1  0  0  0  0
 31 28  1  0  0  0  0
 32155  1  0  0  0  0
 32 31  1  0  0  0  0
 33 29  1  0  0  0  0
 33 34  1  0  0  0  0
 35 39  1  0  0  0  0
 35 34  1  0  0  0  0
 36 35  2  0  0  0  0
 37 36  1  0  0  0  0
 37 33  2  0  0  0  0
 38 36  1  0  0  0  0
 39 40  2  0  0  0  0
 39 43  1  0  0  0  0
 40 41  1  0  0  0  0
 41 42  2  0  0  0  0
 41157  1  0  0  0  0
 42 45  1  0  0  0  0
 43 42  1  0  0  0  0
 44 40  1  0  0  0  0
 45 46  2  0  0  0  0
 45 49  1  0  0  0  0
 46 47  1  0  0  0  0
 47158  1  0  0  0  0
 47 48  2  0  0  0  0
 48 52  1  0  0  0  0
 49 48  1  0  0  0  0
 50159  1  0  0  0  0
 50 46  1  0  0  0  0
 50160  1  0  0  0  0
 51 50  1  0  0  0  0
 52 53  1  0  0  0  0
 52 56  2  0  0  0  0
 53 54  1  0  0  0  0
 54 55  2  0  0  0  0
 54 70  1  0  0  0  0
 55 57  1  0  0  0  0
 56 55  1  0  0  0  0
 57 65  2  0  0  0  0
 58 57  1  0  0  0  0
 58 61  2  0  0  0  0
 59 63  2  0  0  0  0
 59 58  1  0  0  0  0
 60 56  1  0  0  0  0
 60 59  1  0  0  0  0
 61 68  1  0  0  0  0
 62 61  1  0  0  0  0
 63 62  1  0  0  0  0
 64 60  2  0  0  0  0
 66165  1  0  0  0  0
 66 63  1  0  0  0  0
 66164  1  0  0  0  0
 67 66  1  0  0  0  0
 68 69  1  0  0  0  0
 69173  1  0  0  0  0
 69172  1  0  0  0  0
 69171  1  0  0  0  0
 70 71  2  0  0  0  0
 71 72  1  0  0  0  0
 71174  1  0  0  0  0
 72 75  1  0  0  0  0
 73 72  2  0  0  0  0
 74 70  1  0  0  0  0
 74 73  1  0  0  0  0
 75176  1  0  0  0  0
 75 76  1  0  0  0  0
 76179  1  0  0  0  0
 76178  1  0  0  0  0
 77 73  1  0  0  0  0
 77 78  1  0  0  0  0
 79 83  1  0  0  0  0
 79 78  1  0  0  0  0
 80 79  2  0  0  0  0
 81 80  1  0  0  0  0
 81 77  2  0  0  0  0
 82 80  1  0  0  0  0
 83 84  2  0  0  0  0
 84 85  1  0  0  0  0
 84 88  1  0  0  0  0
 85181  1  0  0  0  0
 86 85  2  0  0  0  0
 87 83  1  0  0  0  0
 87 86  1  0  0  0  0
 89 86  1  0  0  0  0
 89 93  1  0  0  0  0
 90 91  1  0  0  0  0
 90 89  2  0  0  0  0
 91 92  2  0  0  0  0
 92 96  1  0  0  0  0
 92 93  1  0  0  0  0
 94183  1  0  0  0  0
 94 90  1  0  0  0  0
 95185  1  0  0  0  0
 95 94  1  0  0  0  0
 96100  2  0  0  0  0
 97 98  1  0  0  0  0
 97 96  1  0  0  0  0
 98 99  2  0  0  0  0
 99100  1  0  0  0  0
 99101  1  0  0  0  0
100104  1  0  0  0  0
101102  1  0  0  0  0
102103  1  0  0  0  0
102105  2  0  0  0  0
103107  2  0  0  0  0
104108  2  0  0  0  0
104103  1  0  0  0  0
105112  1  0  0  0  0
105106  1  0  0  0  0
107110  1  0  0  0  0
107106  1  0  0  0  0
109101  2  0  0  0  0
110188  1  0  0  0  0
111110  1  0  0  0  0
111191  1  0  0  0  0
111190  1  0  0  0  0
112113  1  0  0  0  0
112193  1  0  0  0  0
113196  1  0  0  0  0
113195  1  0  0  0  0
114 98  1  0  0  0  0
114118  1  0  0  0  0
115114  2  0  0  0  0
116115  1  0  0  0  0
116117  2  0  0  0  0
117121  1  0  0  0  0
117118  1  0  0  0  0
119116  1  0  0  0  0
120201  1  0  0  0  0
120203  1  0  0  0  0
120119  1  0  0  0  0
121122  1  0  0  0  0
123122  1  0  0  0  0
123127  1  0  0  0  0
124123  2  0  0  0  0
125124  1  0  0  0  0
125121  2  0  0  0  0
126124  1  0  0  0  0
127131  1  0  0  0  0
128127  2  0  0  0  0
128129  1  0  0  0  0
129130  2  0  0  0  0
130206  1  0  0  0  0
131130  1  0  0  0  0
132128  1  0  0  0  0
134  3  1  0  0  0  0
135  6  1  0  0  0  0
136  6  1  0  0  0  0
138  7  1  0  0  0  0
140 22  1  0  0  0  0
142 23  1  0  0  0  0
146 24  1  0  0  0  0
149 25  1  0  0  0  0
150 27  1  0  0  0  0
151 31  1  0  0  0  0
153 32  1  0  0  0  0
154 32  1  0  0  0  0
156 37  1  0  0  0  0
161 51  1  0  0  0  0
162 51  1  0  0  0  0
163 51  1  0  0  0  0
166 67  1  0  0  0  0
167 67  1  0  0  0  0
168 67  1  0  0  0  0
169 68  1  0  0  0  0
170 68  1  0  0  0  0
175 75  1  0  0  0  0
177 76  1  0  0  0  0
180 81  1  0  0  0  0
182 91  1  0  0  0  0
184 94  1  0  0  0  0
186 95  1  0  0  0  0
187 95  1  0  0  0  0
189110  1  0  0  0  0
192111  1  0  0  0  0
194112  1  0  0  0  0
197113  1  0  0  0  0
198115  1  0  0  0  0
199119  1  0  0  0  0
200119  1  0  0  0  0
202120  1  0  0  0  0
204125  1  0  0  0  0
205129  1  0  0  0  0
M  END
