SCF done       -443.705368188701          0.000274106405
 OpenBabel12282109573D

254280  0  0  0  0  0  0  0  0999 V2000
   15.4761   -4.5551   -6.7918 C   0  0  0  0  0  0  0  0  0  0  0  0
   16.6257   -5.3551   -6.6675 C   0  0  0  0  0  0  0  0  0  0  0  0
   17.4797   -5.2052   -5.5513 C   0  0  0  0  0  0  0  0  0  0  0  0
   17.2555   -4.2823   -4.5323 C   0  0  0  0  0  0  0  0  0  0  0  0
   16.1293   -3.4508   -4.6811 C   0  0  0  0  0  0  0  0  0  0  0  0
   15.2732   -3.6047   -5.7986 C   0  0  0  0  0  0  0  0  0  0  0  0
   17.0978   -6.3615   -7.5614 C   0  0  0  0  0  0  0  0  0  0  0  0
   18.2247   -6.9615   -7.1297 C   0  0  0  0  0  0  0  0  0  0  0  0
   18.8004   -6.3434   -5.6201 S   0  0  0  0  0  0  0  0  0  0  0  0
   15.6971   -2.4015   -3.8317 C   0  0  0  0  0  0  0  0  0  0  0  0
   14.5468   -1.7993   -4.2451 C   0  0  0  0  0  0  0  0  0  0  0  0
   13.9332   -2.4908   -5.7320 S   0  0  0  0  0  0  0  0  0  0  0  0
   14.5500   -4.7337   -7.8939 C   0  0  0  0  0  0  0  0  0  0  0  0
   18.1287   -4.2108   -3.3787 C   0  0  0  0  0  0  0  0  0  0  0  0
   14.0534   -5.9016   -8.3980 C   0  0  0  0  0  0  0  0  0  0  0  0
   13.1637   -5.7099   -9.4746 C   0  0  0  0  0  0  0  0  0  0  0  0
   12.9867   -4.4017   -9.8036 C   0  0  0  0  0  0  0  0  0  0  0  0
   13.9146   -3.3682   -8.7663 S   0  0  0  0  0  0  0  0  0  0  0  0
   19.4896   -4.3301   -3.3386 C   0  0  0  0  0  0  0  0  0  0  0  0
   20.0192   -4.2566   -2.0353 C   0  0  0  0  0  0  0  0  0  0  0  0
   19.0713   -4.1010   -1.0715 C   0  0  0  0  0  0  0  0  0  0  0  0
   17.4875   -4.0242   -1.7684 S   0  0  0  0  0  0  0  0  0  0  0  0
   12.1120   -3.8174  -10.8587 C   0  0  0  0  0  0  0  0  0  0  0  0
   10.9134   -3.0909  -10.2454 C   0  0  0  0  0  0  0  0  0  0  0  0
   19.2528   -3.9524    0.3996 C   0  0  0  0  0  0  0  0  0  0  0  0
   18.9795   -2.5155    0.8495 C   0  0  0  0  0  0  0  0  0  0  0  0
   13.8530   -0.7264   -3.6147 C   0  0  0  0  0  0  0  0  0  0  0  0
   14.4818    0.0340   -2.1824 S   0  0  0  0  0  0  0  0  0  0  0  0
   13.1236    1.1194   -2.0817 C   0  0  0  0  0  0  0  0  0  0  0  0
   12.2353    0.8849   -3.1269 C   0  0  0  0  0  0  0  0  0  0  0  0
   12.6675   -0.1515   -3.9826 C   0  0  0  0  0  0  0  0  0  0  0  0
   13.1412    2.0891   -1.0369 C   0  0  0  0  0  0  0  0  0  0  0  0
   12.1217    2.8455   -0.5069 C   0  0  0  0  0  0  0  0  0  0  0  0
   12.5686    3.6891    0.5144 C   0  0  0  0  0  0  0  0  0  0  0  0
   13.9389    3.5847    0.7796 C   0  0  0  0  0  0  0  0  0  0  0  0
   14.6864    2.4122   -0.2439 S   0  0  0  0  0  0  0  0  0  0  0  0
   11.8066    4.8466    1.5456 S   0  0  0  0  0  0  0  0  0  0  0  0
   13.3476    5.2089    2.3014 C   0  0  0  0  0  0  0  0  0  0  0  0
   14.3788    4.4423    1.7797 C   0  0  0  0  0  0  0  0  0  0  0  0
   13.5384    6.2025    3.2995 C   0  0  0  0  0  0  0  0  0  0  0  0
   12.6574    7.0088    4.0166 C   0  0  0  0  0  0  0  0  0  0  0  0
   13.3116    7.8837    4.9120 C   0  0  0  0  0  0  0  0  0  0  0  0
   14.6735    7.7783    4.8995 C   0  0  0  0  0  0  0  0  0  0  0  0
   15.1830    6.5550    3.7666 S   0  0  0  0  0  0  0  0  0  0  0  0
   10.9753    1.5921   -3.4154 C   0  0  0  0  0  0  0  0  0  0  0  0
   10.2704    2.1671   -2.6206 O   0  0  0  0  0  0  0  0  0  0  0  0
   10.6835    1.5036   -4.7214 O   0  0  0  0  0  0  0  0  0  0  0  0
    9.4593    2.0963   -5.1507 C   0  0  0  0  0  0  0  0  0  0  0  0
    8.2792    1.1619   -4.9233 C   0  0  0  0  0  0  0  0  0  0  0  0
   11.2005    6.9943    3.8933 C   0  0  0  0  0  0  0  0  0  0  0  0
   10.5669    6.3388    3.0940 O   0  0  0  0  0  0  0  0  0  0  0  0
   10.6217    7.8193    4.7753 O   0  0  0  0  0  0  0  0  0  0  0  0
    9.1964    7.8866    4.7504 C   0  0  0  0  0  0  0  0  0  0  0  0
    8.5664    6.7224    5.5017 C   0  0  0  0  0  0  0  0  0  0  0  0
   19.0414    9.6372    6.4807 C   0  0  0  0  0  0  0  0  0  0  0  0
   17.6551    9.4150    6.3704 C   0  0  0  0  0  0  0  0  0  0  0  0
   16.7474   10.2053    7.1157 C   0  0  0  0  0  0  0  0  0  0  0  0
   17.1434   11.2190    7.9824 C   0  0  0  0  0  0  0  0  0  0  0  0
   18.5315   11.4293    8.1052 C   0  0  0  0  0  0  0  0  0  0  0  0
   19.4389   10.6342    7.3626 C   0  0  0  0  0  0  0  0  0  0  0  0
   16.9876    8.4655    5.5583 C   0  0  0  0  0  0  0  0  0  0  0  0
   15.6284    8.5422    5.6300 C   0  0  0  0  0  0  0  0  0  0  0  0
   15.0951    9.7795    6.7500 S   0  0  0  0  0  0  0  0  0  0  0  0
   19.2061   12.3859    8.9028 C   0  0  0  0  0  0  0  0  0  0  0  0
   20.5617   12.3622    8.7597 C   0  0  0  0  0  0  0  0  0  0  0  0
   21.0893   11.1191    7.6459 S   0  0  0  0  0  0  0  0  0  0  0  0
   19.9907    8.8834    5.6860 C   0  0  0  0  0  0  0  0  0  0  0  0
   16.1643   12.0176    8.6917 C   0  0  0  0  0  0  0  0  0  0  0  0
   19.9194    8.5617    4.3601 C   0  0  0  0  0  0  0  0  0  0  0  0
   21.0311    7.8246    3.9054 C   0  0  0  0  0  0  0  0  0  0  0  0
   21.9475    7.5710    4.8786 C   0  0  0  0  0  0  0  0  0  0  0  0
   21.4555    8.2600    6.3909 S   0  0  0  0  0  0  0  0  0  0  0  0
   14.9971   11.5975    9.2659 C   0  0  0  0  0  0  0  0  0  0  0  0
   14.2515   12.6421    9.8463 C   0  0  0  0  0  0  0  0  0  0  0  0
   14.8295   13.8658    9.7045 C   0  0  0  0  0  0  0  0  0  0  0  0
   16.3332   13.7444    8.8535 S   0  0  0  0  0  0  0  0  0  0  0  0
   23.2488    6.8543    4.7680 C   0  0  0  0  0  0  0  0  0  0  0  0
   24.4257    7.8260    4.8764 C   0  0  0  0  0  0  0  0  0  0  0  0
   14.3586   15.1839   10.2140 C   0  0  0  0  0  0  0  0  0  0  0  0
   15.2130   15.6599   11.3910 C   0  0  0  0  0  0  0  0  0  0  0  0
   21.5174   13.2258    9.3674 C   0  0  0  0  0  0  0  0  0  0  0  0
   21.0257   14.5235   10.4161 S   0  0  0  0  0  0  0  0  0  0  0  0
   22.6659   15.0764   10.6093 C   0  0  0  0  0  0  0  0  0  0  0  0
   23.5417   14.2613    9.8988 C   0  0  0  0  0  0  0  0  0  0  0  0
   22.8765   13.2235    9.2110 C   0  0  0  0  0  0  0  0  0  0  0  0
   22.8782   16.2113   11.4453 C   0  0  0  0  0  0  0  0  0  0  0  0
   23.9457   17.0772   11.5014 C   0  0  0  0  0  0  0  0  0  0  0  0
   23.7378   18.0974   12.4327 C   0  0  0  0  0  0  0  0  0  0  0  0
   22.5132   18.0295   13.1032 C   0  0  0  0  0  0  0  0  0  0  0  0
   21.5926   16.6732   12.5635 S   0  0  0  0  0  0  0  0  0  0  0  0
   24.6457   19.4772   12.9331 S   0  0  0  0  0  0  0  0  0  0  0  0
   23.3765   19.9404   14.0460 C   0  0  0  0  0  0  0  0  0  0  0  0
   22.3172   19.0579   14.0267 C   0  0  0  0  0  0  0  0  0  0  0  0
   23.5081   21.0592   14.9216 C   0  0  0  0  0  0  0  0  0  0  0  0
   24.2709   22.2126   14.8399 C   0  0  0  0  0  0  0  0  0  0  0  0
   24.1684   23.0219   15.9897 C   0  0  0  0  0  0  0  0  0  0  0  0
   23.3304   22.5232   16.9500 C   0  0  0  0  0  0  0  0  0  0  0  0
   22.6521   21.0019   16.4405 S   0  0  0  0  0  0  0  0  0  0  0  0
   25.0101   14.3621    9.8197 C   0  0  0  0  0  0  0  0  0  0  0  0
   25.6768   15.3596    9.9639 O   0  0  0  0  0  0  0  0  0  0  0  0
   25.5397   13.1628    9.5416 O   0  0  0  0  0  0  0  0  0  0  0  0
   26.9554   13.1023    9.3771 C   0  0  0  0  0  0  0  0  0  0  0  0
   27.3665   13.4861    7.9625 C   0  0  0  0  0  0  0  0  0  0  0  0
   25.0746   22.6990   13.7002 C   0  0  0  0  0  0  0  0  0  0  0  0
   25.9747   23.4931   13.8187 O   0  0  0  0  0  0  0  0  0  0  0  0
   24.6446   22.2244   12.5254 O   0  0  0  0  0  0  0  0  0  0  0  0
   25.3315   22.6762   11.3575 C   0  0  0  0  0  0  0  0  0  0  0  0
   26.6406   21.9315   11.1406 C   0  0  0  0  0  0  0  0  0  0  0  0
   21.4594   23.1088   21.5602 C   0  0  0  0  0  0  0  0  0  0  0  0
   22.1373   23.3812   20.3550 C   0  0  0  0  0  0  0  0  0  0  0  0
   22.8262   24.6068   20.1870 C   0  0  0  0  0  0  0  0  0  0  0  0
   22.8681   25.6020   21.1577 C   0  0  0  0  0  0  0  0  0  0  0  0
   22.1507   25.3471   22.3431 C   0  0  0  0  0  0  0  0  0  0  0  0
   21.4676   24.1181   22.5154 C   0  0  0  0  0  0  0  0  0  0  0  0
   22.2403   22.5568   19.2073 C   0  0  0  0  0  0  0  0  0  0  0  0
   23.0081   23.0922   18.2157 C   0  0  0  0  0  0  0  0  0  0  0  0
   23.6321   24.6724   18.6419 S   0  0  0  0  0  0  0  0  0  0  0  0
   21.9935   26.1953   23.4651 C   0  0  0  0  0  0  0  0  0  0  0  0
   21.2597   25.6443   24.4732 C   0  0  0  0  0  0  0  0  0  0  0  0
   20.6988   24.0339   24.0796 S   0  0  0  0  0  0  0  0  0  0  0  0
   20.8195   21.8288   21.7864 C   0  0  0  0  0  0  0  0  0  0  0  0
   23.6233   26.8212   20.9530 C   0  0  0  0  0  0  0  0  0  0  0  0
   21.2962   20.5834   21.4869 C   0  0  0  0  0  0  0  0  0  0  0  0
   20.4176   19.5464   21.8580 C   0  0  0  0  0  0  0  0  0  0  0  0
   19.2661   19.9915   22.4302 C   0  0  0  0  0  0  0  0  0  0  0  0
   19.2525   21.7213   22.5369 S   0  0  0  0  0  0  0  0  0  0  0  0
   23.7434   27.5567   19.8070 C   0  0  0  0  0  0  0  0  0  0  0  0
   24.5841   28.6780   19.9480 C   0  0  0  0  0  0  0  0  0  0  0  0
   25.1268   28.7976   21.1901 C   0  0  0  0  0  0  0  0  0  0  0  0
   24.5903   27.5170   22.2251 S   0  0  0  0  0  0  0  0  0  0  0  0
   18.1297   19.1962   22.9737 C   0  0  0  0  0  0  0  0  0  0  0  0
   18.1187   19.2243   24.5034 C   0  0  0  0  0  0  0  0  0  0  0  0
   26.0194   29.8660   21.7197 C   0  0  0  0  0  0  0  0  0  0  0  0
   25.2680   30.7856   22.6851 C   0  0  0  0  0  0  0  0  0  0  0  0
   20.9459   26.2416   25.7272 C   0  0  0  0  0  0  0  0  0  0  0  0
   21.5225   27.8358   26.1159 S   0  0  0  0  0  0  0  0  0  0  0  0
   20.7849   27.7958   27.6927 C   0  0  0  0  0  0  0  0  0  0  0  0
   20.1199   26.5856   27.8857 C   0  0  0  0  0  0  0  0  0  0  0  0
   20.2200   25.7290   26.7664 C   0  0  0  0  0  0  0  0  0  0  0  0
   20.9317   28.9668   28.4909 C   0  0  0  0  0  0  0  0  0  0  0  0
   20.5840   29.2145   29.7996 C   0  0  0  0  0  0  0  0  0  0  0  0
   20.9166   30.5125   30.1977 C   0  0  0  0  0  0  0  0  0  0  0  0
   21.5276   31.2754   29.1966 C   0  0  0  0  0  0  0  0  0  0  0  0
   21.6926   30.3726   27.7355 S   0  0  0  0  0  0  0  0  0  0  0  0
   20.7516   31.4074   31.6670 S   0  0  0  0  0  0  0  0  0  0  0  0
   21.5082   32.8020   30.9200 C   0  0  0  0  0  0  0  0  0  0  0  0
   21.8600   32.5623   29.6015 C   0  0  0  0  0  0  0  0  0  0  0  0
   21.7416   34.0428   31.5790 C   0  0  0  0  0  0  0  0  0  0  0  0
   21.4975   34.4886   32.8729 C   0  0  0  0  0  0  0  0  0  0  0  0
   21.9166   35.8316   33.0804 C   0  0  0  0  0  0  0  0  0  0  0  0
   22.4622   36.3977   31.9823 C   0  0  0  0  0  0  0  0  0  0  0  0
   22.4891   35.3140   30.6461 S   0  0  0  0  0  0  0  0  0  0  0  0
   19.3781   26.1373   29.0757 C   0  0  0  0  0  0  0  0  0  0  0  0
   19.4650   26.5827   30.1959 O   0  0  0  0  0  0  0  0  0  0  0  0
   18.5638   25.1172   28.7623 O   0  0  0  0  0  0  0  0  0  0  0  0
   17.8181   24.5375   29.8304 C   0  0  0  0  0  0  0  0  0  0  0  0
   18.6518   23.5294   30.6092 C   0  0  0  0  0  0  0  0  0  0  0  0
   20.8828   33.7067   33.9412 C   0  0  0  0  0  0  0  0  0  0  0  0
   20.4735   32.5695   33.8387 O   0  0  0  0  0  0  0  0  0  0  0  0
   20.8041   34.4031   35.0845 O   0  0  0  0  0  0  0  0  0  0  0  0
   20.2320   33.7303   36.2052 C   0  0  0  0  0  0  0  0  0  0  0  0
   21.2404   32.8146   36.8845 C   0  0  0  0  0  0  0  0  0  0  0  0
   16.6139   -6.5991   -8.4908 H   0  0  0  0  0  0  0  0  0  0  0  0
   18.7840   -7.7405   -7.6099 H   0  0  0  0  0  0  0  0  0  0  0  0
   16.2186   -2.0870   -2.9462 H   0  0  0  0  0  0  0  0  0  0  0  0
   14.2865   -6.8664   -7.9836 H   0  0  0  0  0  0  0  0  0  0  0  0
   12.6732   -6.5185   -9.9876 H   0  0  0  0  0  0  0  0  0  0  0  0
   20.0990   -4.4309   -4.2184 H   0  0  0  0  0  0  0  0  0  0  0  0
   21.0713   -4.3219   -1.8210 H   0  0  0  0  0  0  0  0  0  0  0  0
   11.7634   -4.6211  -11.5108 H   0  0  0  0  0  0  0  0  0  0  0  0
   12.6867   -3.1110  -11.4632 H   0  0  0  0  0  0  0  0  0  0  0  0
   10.3189   -3.7794   -9.6491 H   0  0  0  0  0  0  0  0  0  0  0  0
   10.2840   -2.6736  -11.0274 H   0  0  0  0  0  0  0  0  0  0  0  0
   11.2541   -2.2828   -9.6021 H   0  0  0  0  0  0  0  0  0  0  0  0
   20.2769   -4.2315    0.6565 H   0  0  0  0  0  0  0  0  0  0  0  0
   18.5718   -4.6269    0.9250 H   0  0  0  0  0  0  0  0  0  0  0  0
   19.6527   -1.8265    0.3445 H   0  0  0  0  0  0  0  0  0  0  0  0
   19.1258   -2.4219    1.9226 H   0  0  0  0  0  0  0  0  0  0  0  0
   17.9559   -2.2344    0.6119 H   0  0  0  0  0  0  0  0  0  0  0  0
   12.1085   -0.4678   -4.8447 H   0  0  0  0  0  0  0  0  0  0  0  0
   11.1063    2.7830   -0.8477 H   0  0  0  0  0  0  0  0  0  0  0  0
   15.3963    4.5155    2.1192 H   0  0  0  0  0  0  0  0  0  0  0  0
   12.7825    8.5788    5.5381 H   0  0  0  0  0  0  0  0  0  0  0  0
    9.6030    2.2994   -6.2140 H   0  0  0  0  0  0  0  0  0  0  0  0
    9.3083    3.0352   -4.6076 H   0  0  0  0  0  0  0  0  0  0  0  0
    8.4489    0.2121   -5.4250 H   0  0  0  0  0  0  0  0  0  0  0  0
    7.3741    1.6157   -5.3165 H   0  0  0  0  0  0  0  0  0  0  0  0
    8.1492    0.9818   -3.8590 H   0  0  0  0  0  0  0  0  0  0  0  0
    8.8585    7.8903    3.7088 H   0  0  0  0  0  0  0  0  0  0  0  0
    8.9547    8.8399    5.2251 H   0  0  0  0  0  0  0  0  0  0  0  0
    8.8011    5.7868    5.0001 H   0  0  0  0  0  0  0  0  0  0  0  0
    7.4877    6.8473    5.5262 H   0  0  0  0  0  0  0  0  0  0  0  0
    8.9441    6.6836    6.5208 H   0  0  0  0  0  0  0  0  0  0  0  0
   17.4926    7.7414    4.9451 H   0  0  0  0  0  0  0  0  0  0  0  0
   18.7155   13.0764    9.5642 H   0  0  0  0  0  0  0  0  0  0  0  0
   19.1174    8.8814    3.7189 H   0  0  0  0  0  0  0  0  0  0  0  0
   21.1441    7.4930    2.8882 H   0  0  0  0  0  0  0  0  0  0  0  0
   14.6981   10.5657    9.3062 H   0  0  0  0  0  0  0  0  0  0  0  0
   13.3137   12.4890   10.3504 H   0  0  0  0  0  0  0  0  0  0  0  0
   23.2843    6.3361    3.8074 H   0  0  0  0  0  0  0  0  0  0  0  0
   23.3271    6.1084    5.5630 H   0  0  0  0  0  0  0  0  0  0  0  0
   24.3752    8.5704    4.0850 H   0  0  0  0  0  0  0  0  0  0  0  0
   25.3675    7.2897    4.7911 H   0  0  0  0  0  0  0  0  0  0  0  0
   24.4010    8.3391    5.8351 H   0  0  0  0  0  0  0  0  0  0  0  0
   13.3176   15.0864   10.5292 H   0  0  0  0  0  0  0  0  0  0  0  0
   14.4065   15.9272    9.4141 H   0  0  0  0  0  0  0  0  0  0  0  0
   15.1727   14.9383   12.2038 H   0  0  0  0  0  0  0  0  0  0  0  0
   14.8510   16.6173   11.7570 H   0  0  0  0  0  0  0  0  0  0  0  0
   16.2497   15.7748   11.0822 H   0  0  0  0  0  0  0  0  0  0  0  0
   23.3920   12.5009    8.6046 H   0  0  0  0  0  0  0  0  0  0  0  0
   24.8218   16.9707   10.8917 H   0  0  0  0  0  0  0  0  0  0  0  0
   21.4441   19.1732   14.6427 H   0  0  0  0  0  0  0  0  0  0  0  0
   24.6994   23.9517   16.0890 H   0  0  0  0  0  0  0  0  0  0  0  0
   27.2204   12.0661    9.5975 H   0  0  0  0  0  0  0  0  0  0  0  0
   27.4276   13.7719   10.1036 H   0  0  0  0  0  0  0  0  0  0  0  0
   26.8602   12.8522    7.2384 H   0  0  0  0  0  0  0  0  0  0  0  0
   28.4403   13.3672    7.8503 H   0  0  0  0  0  0  0  0  0  0  0  0
   27.1048   14.5235    7.7686 H   0  0  0  0  0  0  0  0  0  0  0  0
   25.5217   23.7504   11.4570 H   0  0  0  0  0  0  0  0  0  0  0  0
   24.6334   22.4949   10.5378 H   0  0  0  0  0  0  0  0  0  0  0  0
   27.3165   22.1215   11.9704 H   0  0  0  0  0  0  0  0  0  0  0  0
   27.1047   22.2789   10.2220 H   0  0  0  0  0  0  0  0  0  0  0  0
   26.4605   20.8621   11.0682 H   0  0  0  0  0  0  0  0  0  0  0  0
   21.7499   21.6053   19.1073 H   0  0  0  0  0  0  0  0  0  0  0  0
   22.3977   27.1887   23.5336 H   0  0  0  0  0  0  0  0  0  0  0  0
   22.2663   20.4131   21.0550 H   0  0  0  0  0  0  0  0  0  0  0  0
   20.6348   18.5041   21.7033 H   0  0  0  0  0  0  0  0  0  0  0  0
   23.2154   27.3255   18.8997 H   0  0  0  0  0  0  0  0  0  0  0  0
   24.7812   29.3721   19.1502 H   0  0  0  0  0  0  0  0  0  0  0  0
   18.2220   18.1658   22.6238 H   0  0  0  0  0  0  0  0  0  0  0  0
   17.1853   19.6015   22.6020 H   0  0  0  0  0  0  0  0  0  0  0  0
   19.0457   18.8120   24.8955 H   0  0  0  0  0  0  0  0  0  0  0  0
   17.2869   18.6384   24.8863 H   0  0  0  0  0  0  0  0  0  0  0  0
   18.0187   20.2474   24.8587 H   0  0  0  0  0  0  0  0  0  0  0  0
   26.4063   30.4480   20.8806 H   0  0  0  0  0  0  0  0  0  0  0  0
   26.8658   29.4139   22.2428 H   0  0  0  0  0  0  0  0  0  0  0  0
   24.4248   31.2539   22.1823 H   0  0  0  0  0  0  0  0  0  0  0  0
   25.9292   31.5649   23.0554 H   0  0  0  0  0  0  0  0  0  0  0  0
   24.8919   30.2168   23.5326 H   0  0  0  0  0  0  0  0  0  0  0  0
   19.7707   24.7529   26.7373 H   0  0  0  0  0  0  0  0  0  0  0  0
   20.1235   28.4816   30.4334 H   0  0  0  0  0  0  0  0  0  0  0  0
   22.3361   33.2950   28.9751 H   0  0  0  0  0  0  0  0  0  0  0  0
   21.8010   36.3301   34.0246 H   0  0  0  0  0  0  0  0  0  0  0  0
   22.8547   37.3875   31.8631 H   0  0  0  0  0  0  0  0  0  0  0  0
   16.9651   24.0556   29.3480 H   0  0  0  0  0  0  0  0  0  0  0  0
   17.4701   25.3342   30.4963 H   0  0  0  0  0  0  0  0  0  0  0  0
   19.0367   22.7628   29.9408 H   0  0  0  0  0  0  0  0  0  0  0  0
   18.0376   23.0609   31.3727 H   0  0  0  0  0  0  0  0  0  0  0  0
   19.4876   24.0325   31.0892 H   0  0  0  0  0  0  0  0  0  0  0  0
   19.3649   33.1523   35.8687 H   0  0  0  0  0  0  0  0  0  0  0  0
   19.9102   34.5299   36.8758 H   0  0  0  0  0  0  0  0  0  0  0  0
   21.5313   32.0161   36.2064 H   0  0  0  0  0  0  0  0  0  0  0  0
   20.7930   32.3768   37.7721 H   0  0  0  0  0  0  0  0  0  0  0  0
   22.1260   33.3767   37.1718 H   0  0  0  0  0  0  0  0  0  0  0  0
  1  2  2  0  0  0  0
  1  6  1  0  0  0  0
  2  3  1  0  0  0  0
  3  4  2  0  0  0  0
  4 14  1  0  0  0  0
  5  4  1  0  0  0  0
  5 10  1  0  0  0  0
  6 12  1  0  0  0  0
  6  5  2  0  0  0  0
  7  8  2  0  0  0  0
  7  2  1  0  0  0  0
  8  9  1  0  0  0  0
  9  3  1  0  0  0  0
 10165  1  0  0  0  0
 11 10  2  0  0  0  0
 11 27  1  0  0  0  0
 12 11  1  0  0  0  0
 13  1  1  0  0  0  0
 14 19  2  0  0  0  0
 14 22  1  0  0  0  0
 15166  1  0  0  0  0
 15 13  2  0  0  0  0
 16 15  1  0  0  0  0
 17 16  2  0  0  0  0
 17 18  1  0  0  0  0
 18 13  1  0  0  0  0
 19 20  1  0  0  0  0
 20169  1  0  0  0  0
 20 21  2  0  0  0  0
 21 25  1  0  0  0  0
 22 21  1  0  0  0  0
 23 24  1  0  0  0  0
 23 17  1  0  0  0  0
 24172  1  0  0  0  0
 24174  1  0  0  0  0
 25175  1  0  0  0  0
 25 26  1  0  0  0  0
 25176  1  0  0  0  0
 26178  1  0  0  0  0
 27 28  1  0  0  0  0
 28 29  1  0  0  0  0
 29 32  1  0  0  0  0
 30 29  2  0  0  0  0
 31 27  2  0  0  0  0
 31 30  1  0  0  0  0
 32 33  2  0  0  0  0
 32 36  1  0  0  0  0
 33 34  1  0  0  0  0
 34 35  2  0  0  0  0
 34 37  1  0  0  0  0
 35 39  1  0  0  0  0
 36 35  1  0  0  0  0
 37 38  1  0  0  0  0
 38 40  1  0  0  0  0
 39182  1  0  0  0  0
 39 38  2  0  0  0  0
 40 44  1  0  0  0  0
 40 41  2  0  0  0  0
 41 42  1  0  0  0  0
 42183  1  0  0  0  0
 43 42  2  0  0  0  0
 43 62  1  0  0  0  0
 44 43  1  0  0  0  0
 45 30  1  0  0  0  0
 45 46  2  0  0  0  0
 47 45  1  0  0  0  0
 48 49  1  0  0  0  0
 48 47  1  0  0  0  0
 48185  1  0  0  0  0
 49188  1  0  0  0  0
 50 41  1  0  0  0  0
 50 52  1  0  0  0  0
 51 50  2  0  0  0  0
 53 52  1  0  0  0  0
 53190  1  0  0  0  0
 53 54  1  0  0  0  0
 54192  1  0  0  0  0
 54193  1  0  0  0  0
 55 60  1  0  0  0  0
 56 55  2  0  0  0  0
 56 57  1  0  0  0  0
 57 58  2  0  0  0  0
 58 59  1  0  0  0  0
 58 68  1  0  0  0  0
 59 64  1  0  0  0  0
 60 66  1  0  0  0  0
 60 59  2  0  0  0  0
 61 62  2  0  0  0  0
 61 56  1  0  0  0  0
 62 63  1  0  0  0  0
 63 57  1  0  0  0  0
 64195  1  0  0  0  0
 65 64  2  0  0  0  0
 65 81  1  0  0  0  0
 66 65  1  0  0  0  0
 67 72  1  0  0  0  0
 67 55  1  0  0  0  0
 68 76  1  0  0  0  0
 68 73  2  0  0  0  0
 69 67  2  0  0  0  0
 70 69  1  0  0  0  0
 70 71  2  0  0  0  0
 71 72  1  0  0  0  0
 73198  1  0  0  0  0
 73 74  1  0  0  0  0
 74199  1  0  0  0  0
 75 74  2  0  0  0  0
 75 79  1  0  0  0  0
 76 75  1  0  0  0  0
 77 78  1  0  0  0  0
 77 71  1  0  0  0  0
 77201  1  0  0  0  0
 78204  1  0  0  0  0
 79205  1  0  0  0  0
 79 80  1  0  0  0  0
 80208  1  0  0  0  0
 80207  1  0  0  0  0
 81 82  1  0  0  0  0
 82 83  1  0  0  0  0
 83 86  1  0  0  0  0
 84 83  2  0  0  0  0
 85 81  2  0  0  0  0
 85 84  1  0  0  0  0
 86 87  2  0  0  0  0
 86 90  1  0  0  0  0
 87 88  1  0  0  0  0
 88 91  1  0  0  0  0
 88 89  2  0  0  0  0
 89 93  1  0  0  0  0
 90 89  1  0  0  0  0
 91 92  1  0  0  0  0
 92 94  1  0  0  0  0
 93 92  2  0  0  0  0
 93212  1  0  0  0  0
 94 98  1  0  0  0  0
 95 94  2  0  0  0  0
 95 96  1  0  0  0  0
 96213  1  0  0  0  0
 96 97  2  0  0  0  0
 97116  1  0  0  0  0
 98 97  1  0  0  0  0
 99 84  1  0  0  0  0
 99100  2  0  0  0  0
101 99  1  0  0  0  0
102101  1  0  0  0  0
102214  1  0  0  0  0
102215  1  0  0  0  0
103102  1  0  0  0  0
104105  2  0  0  0  0
104 95  1  0  0  0  0
106104  1  0  0  0  0
107219  1  0  0  0  0
107106  1  0  0  0  0
108107  1  0  0  0  0
108221  1  0  0  0  0
109121  1  0  0  0  0
109114  2  0  0  0  0
110109  1  0  0  0  0
111110  2  0  0  0  0
111112  1  0  0  0  0
112113  2  0  0  0  0
113114  1  0  0  0  0
113118  1  0  0  0  0
114120  1  0  0  0  0
115110  1  0  0  0  0
116117  1  0  0  0  0
116115  2  0  0  0  0
117111  1  0  0  0  0
118225  1  0  0  0  0
118119  2  0  0  0  0
119135  1  0  0  0  0
120119  1  0  0  0  0
121126  1  0  0  0  0
122112  1  0  0  0  0
122130  1  0  0  0  0
123121  2  0  0  0  0
123124  1  0  0  0  0
124125  2  0  0  0  0
125126  1  0  0  0  0
125131  1  0  0  0  0
127128  1  0  0  0  0
127122  2  0  0  0  0
128129  2  0  0  0  0
129133  1  0  0  0  0
129130  1  0  0  0  0
131132  1  0  0  0  0
132234  1  0  0  0  0
132233  1  0  0  0  0
132232  1  0  0  0  0
133236  1  0  0  0  0
133134  1  0  0  0  0
134238  1  0  0  0  0
134239  1  0  0  0  0
135136  1  0  0  0  0
135139  2  0  0  0  0
136137  1  0  0  0  0
137138  2  0  0  0  0
137140  1  0  0  0  0
138153  1  0  0  0  0
139138  1  0  0  0  0
140141  2  0  0  0  0
141142  1  0  0  0  0
141241  1  0  0  0  0
142145  1  0  0  0  0
143147  1  0  0  0  0
143142  2  0  0  0  0
144140  1  0  0  0  0
144143  1  0  0  0  0
146148  1  0  0  0  0
146145  1  0  0  0  0
147146  2  0  0  0  0
148149  2  0  0  0  0
149150  1  0  0  0  0
149158  1  0  0  0  0
150243  1  0  0  0  0
151150  2  0  0  0  0
152148  1  0  0  0  0
152151  1  0  0  0  0
153154  2  0  0  0  0
155153  1  0  0  0  0
155156  1  0  0  0  0
156246  1  0  0  0  0
156157  1  0  0  0  0
157249  1  0  0  0  0
157248  1  0  0  0  0
158160  1  0  0  0  0
159158  2  0  0  0  0
160161  1  0  0  0  0
161251  1  0  0  0  0
161162  1  0  0  0  0
162254  1  0  0  0  0
162253  1  0  0  0  0
163  7  1  0  0  0  0
164  8  1  0  0  0  0
167 16  1  0  0  0  0
168 19  1  0  0  0  0
170 23  1  0  0  0  0
171 23  1  0  0  0  0
173 24  1  0  0  0  0
177 26  1  0  0  0  0
179 26  1  0  0  0  0
180 31  1  0  0  0  0
181 33  1  0  0  0  0
184 48  1  0  0  0  0
186 49  1  0  0  0  0
187 49  1  0  0  0  0
189 53  1  0  0  0  0
191 54  1  0  0  0  0
194 61  1  0  0  0  0
196 69  1  0  0  0  0
197 70  1  0  0  0  0
200 77  1  0  0  0  0
202 78  1  0  0  0  0
203 78  1  0  0  0  0
206 79  1  0  0  0  0
209 80  1  0  0  0  0
210 85  1  0  0  0  0
211 87  1  0  0  0  0
216103  1  0  0  0  0
217103  1  0  0  0  0
218103  1  0  0  0  0
220107  1  0  0  0  0
222108  1  0  0  0  0
223108  1  0  0  0  0
224115  1  0  0  0  0
226123  1  0  0  0  0
227124  1  0  0  0  0
228127  1  0  0  0  0
229128  1  0  0  0  0
230131  1  0  0  0  0
231131  1  0  0  0  0
235133  1  0  0  0  0
237134  1  0  0  0  0
240139  1  0  0  0  0
242147  1  0  0  0  0
244151  1  0  0  0  0
245156  1  0  0  0  0
247157  1  0  0  0  0
250161  1  0  0  0  0
252162  1  0  0  0  0
M  END
