SCF done       -500.791083533091          0.000417112706
 OpenBabel12282109573D

320346  0  0  0  0  0  0  0  0999 V2000
   10.9399   -7.6955   -2.1466 C   0  0  0  0  0  0  0  0  0  0  0  0
    9.6319   -8.0143   -2.5540 C   0  0  0  0  0  0  0  0  0  0  0  0
    8.6277   -7.0177   -2.5638 C   0  0  0  0  0  0  0  0  0  0  0  0
    8.8551   -5.7008   -2.1759 C   0  0  0  0  0  0  0  0  0  0  0  0
   10.1755   -5.3705   -1.8166 C   0  0  0  0  0  0  0  0  0  0  0  0
   11.1808   -6.3660   -1.8183 C   0  0  0  0  0  0  0  0  0  0  0  0
    9.1300   -9.2676   -3.0127 C   0  0  0  0  0  0  0  0  0  0  0  0
    7.8175   -9.2268   -3.3194 C   0  0  0  0  0  0  0  0  0  0  0  0
    7.0981   -7.6726   -3.0827 S   0  0  0  0  0  0  0  0  0  0  0  0
   10.6929   -4.1031   -1.4545 C   0  0  0  0  0  0  0  0  0  0  0  0
   12.0282   -4.1064   -1.1672 C   0  0  0  0  0  0  0  0  0  0  0  0
   12.7178   -5.7099   -1.3327 S   0  0  0  0  0  0  0  0  0  0  0  0
   11.9752   -8.7060   -2.0549 C   0  0  0  0  0  0  0  0  0  0  0  0
    7.8013   -4.7074   -2.1366 C   0  0  0  0  0  0  0  0  0  0  0  0
   11.8673   -9.9745   -1.5541 C   0  0  0  0  0  0  0  0  0  0  0  0
   13.0910  -10.6681   -1.5949 C   0  0  0  0  0  0  0  0  0  0  0  0
   14.1470   -9.9731   -2.1235 C   0  0  0  0  0  0  0  0  0  0  0  0
   13.6003   -8.3927   -2.5813 S   0  0  0  0  0  0  0  0  0  0  0  0
    7.5691   -3.7695   -1.1678 C   0  0  0  0  0  0  0  0  0  0  0  0
    6.4595   -2.9588   -1.4688 C   0  0  0  0  0  0  0  0  0  0  0  0
    5.8291   -3.2367   -2.6538 C   0  0  0  0  0  0  0  0  0  0  0  0
    6.6360   -4.5677   -3.4167 S   0  0  0  0  0  0  0  0  0  0  0  0
   15.9359  -10.4707   -2.3204 Si  0  0  0  0  0  0  0  0  0  0  0  0
   16.0259  -12.0336   -3.3700 C   0  0  0  0  0  0  0  0  0  0  0  0
    4.3404   -2.4267   -3.4378 Si  0  0  0  0  0  0  0  0  0  0  0  0
    4.7119   -0.5950   -3.6854 C   0  0  0  0  0  0  0  0  0  0  0  0
   12.7957   -2.9700   -0.7686 C   0  0  0  0  0  0  0  0  0  0  0  0
   11.9245   -1.5414   -0.2720 S   0  0  0  0  0  0  0  0  0  0  0  0
   13.4045   -0.6877    0.0096 C   0  0  0  0  0  0  0  0  0  0  0  0
   14.4940   -1.4794   -0.2773 C   0  0  0  0  0  0  0  0  0  0  0  0
   14.1653   -2.7735   -0.7027 C   0  0  0  0  0  0  0  0  0  0  0  0
   13.4278    0.6424    0.4982 C   0  0  0  0  0  0  0  0  0  0  0  0
   15.2115   -3.7743   -1.0820 C   0  0  0  0  0  0  0  0  0  0  0  0
   15.3777   -3.8543   -2.6004 C   0  0  0  0  0  0  0  0  0  0  0  0
   14.5112    1.3567    0.5862 N   0  0  0  0  0  0  0  0  0  0  0  0
   14.2478    2.5505    1.1177 C   0  0  0  0  0  0  0  0  0  0  0  0
   12.9141    2.8008    1.4781 C   0  0  0  0  0  0  0  0  0  0  0  0
   11.9445    1.4352    1.0919 S   0  0  0  0  0  0  0  0  0  0  0  0
   15.2156    3.9202    1.4937 S   0  0  0  0  0  0  0  0  0  0  0  0
   13.7389    4.6990    2.1216 C   0  0  0  0  0  0  0  0  0  0  0  0
   12.6553    3.9846    2.0337 N   0  0  0  0  0  0  0  0  0  0  0  0
   13.7806    5.9877    2.7092 C   0  0  0  0  0  0  0  0  0  0  0  0
   12.7631    6.6032    3.4058 C   0  0  0  0  0  0  0  0  0  0  0  0
   13.1030    7.8616    3.9170 C   0  0  0  0  0  0  0  0  0  0  0  0
   14.4018    8.2226    3.5862 C   0  0  0  0  0  0  0  0  0  0  0  0
   15.1956    6.9829    2.6522 S   0  0  0  0  0  0  0  0  0  0  0  0
   12.1855    8.7291    4.7229 C   0  0  0  0  0  0  0  0  0  0  0  0
   10.7607    8.1994    4.8230 C   0  0  0  0  0  0  0  0  0  0  0  0
   16.7883   -9.0203   -3.1684 C   0  0  0  0  0  0  0  0  0  0  0  0
   16.6416  -10.7661   -0.5967 C   0  0  0  0  0  0  0  0  0  0  0  0
   16.5107   -9.5629    0.3447 C   0  0  0  0  0  0  0  0  0  0  0  0
   15.3178  -11.9209   -4.7252 C   0  0  0  0  0  0  0  0  0  0  0  0
   18.2944   -9.2061   -3.3792 C   0  0  0  0  0  0  0  0  0  0  0  0
   13.2452  -12.2774   -1.0130 Cl  0  0  0  0  0  0  0  0  0  0  0  0
    5.9949   -0.3171   -4.4775 C   0  0  0  0  0  0  0  0  0  0  0  0
    4.0787   -3.3022   -5.0852 C   0  0  0  0  0  0  0  0  0  0  0  0
    2.8672   -2.6719   -2.2870 C   0  0  0  0  0  0  0  0  0  0  0  0
    2.8752   -2.7981   -5.8881 C   0  0  0  0  0  0  0  0  0  0  0  0
    2.5715   -4.1396   -1.9565 C   0  0  0  0  0  0  0  0  0  0  0  0
    5.9361   -1.7053   -0.4176 Cl  0  0  0  0  0  0  0  0  0  0  0  0
   18.0349   11.6551    3.4696 C   0  0  0  0  0  0  0  0  0  0  0  0
   16.8492   10.9900    3.8426 C   0  0  0  0  0  0  0  0  0  0  0  0
   16.0103   11.5454    4.8394 C   0  0  0  0  0  0  0  0  0  0  0  0
   16.3008   12.7236    5.5168 C   0  0  0  0  0  0  0  0  0  0  0  0
   17.4657   13.4072    5.1171 C   0  0  0  0  0  0  0  0  0  0  0  0
   18.2891   12.8675    4.0998 C   0  0  0  0  0  0  0  0  0  0  0  0
   16.3205    9.7855    3.3241 C   0  0  0  0  0  0  0  0  0  0  0  0
   15.1381    9.4035    3.8948 C   0  0  0  0  0  0  0  0  0  0  0  0
   14.6143   10.5443    5.1183 S   0  0  0  0  0  0  0  0  0  0  0  0
   17.9572   14.6473    5.5885 C   0  0  0  0  0  0  0  0  0  0  0  0
   19.1129   15.0553    4.9845 C   0  0  0  0  0  0  0  0  0  0  0  0
   19.6563   13.8973    3.7855 S   0  0  0  0  0  0  0  0  0  0  0  0
   18.9399   11.0936    2.4880 C   0  0  0  0  0  0  0  0  0  0  0  0
   15.4648   13.2198    6.5906 C   0  0  0  0  0  0  0  0  0  0  0  0
   19.3289    9.7891    2.3480 C   0  0  0  0  0  0  0  0  0  0  0  0
   20.2360    9.6156    1.2866 C   0  0  0  0  0  0  0  0  0  0  0  0
   20.5566   10.7524    0.5914 C   0  0  0  0  0  0  0  0  0  0  0  0
   19.7051   12.0910    1.2891 S   0  0  0  0  0  0  0  0  0  0  0  0
   15.8601   13.7446    7.7905 C   0  0  0  0  0  0  0  0  0  0  0  0
   14.7665   14.0968    8.6032 C   0  0  0  0  0  0  0  0  0  0  0  0
   13.5291   13.8736    8.0577 C   0  0  0  0  0  0  0  0  0  0  0  0
   13.7321   13.1831    6.4803 S   0  0  0  0  0  0  0  0  0  0  0  0
   21.7224   10.9947   -0.8468 Si  0  0  0  0  0  0  0  0  0  0  0  0
   21.1575    9.9064   -2.2780 C   0  0  0  0  0  0  0  0  0  0  0  0
   11.8251   14.1114    8.7833 Si  0  0  0  0  0  0  0  0  0  0  0  0
   11.6767   15.8376    9.5229 C   0  0  0  0  0  0  0  0  0  0  0  0
   19.8277   16.2555    5.2790 C   0  0  0  0  0  0  0  0  0  0  0  0
   19.4595   17.0707    6.7775 S   0  0  0  0  0  0  0  0  0  0  0  0
   20.6134   18.3142    6.4307 C   0  0  0  0  0  0  0  0  0  0  0  0
   21.2264   18.0953    5.2169 C   0  0  0  0  0  0  0  0  0  0  0  0
   20.8042   16.9298    4.5644 C   0  0  0  0  0  0  0  0  0  0  0  0
   20.8770   19.3761    7.3315 C   0  0  0  0  0  0  0  0  0  0  0  0
   21.3354   16.5301    3.2233 C   0  0  0  0  0  0  0  0  0  0  0  0
   20.3463   16.8759    2.1091 C   0  0  0  0  0  0  0  0  0  0  0  0
   21.6289   20.3960    7.0375 N   0  0  0  0  0  0  0  0  0  0  0  0
   21.7481   21.2122    8.0847 C   0  0  0  0  0  0  0  0  0  0  0  0
   21.0808   20.8328    9.2603 C   0  0  0  0  0  0  0  0  0  0  0  0
   20.2354   19.3599    8.9956 S   0  0  0  0  0  0  0  0  0  0  0  0
   22.5884   22.6884    8.3469 S   0  0  0  0  0  0  0  0  0  0  0  0
   21.9847   22.6483   10.0255 C   0  0  0  0  0  0  0  0  0  0  0  0
   21.2278   21.6317   10.3175 N   0  0  0  0  0  0  0  0  0  0  0  0
   22.3665   23.6402   10.9621 C   0  0  0  0  0  0  0  0  0  0  0  0
   22.1513   23.6126   12.3234 C   0  0  0  0  0  0  0  0  0  0  0  0
   22.6984   24.7050   13.0075 C   0  0  0  0  0  0  0  0  0  0  0  0
   23.3271   25.5944   12.1473 C   0  0  0  0  0  0  0  0  0  0  0  0
   23.2420   25.0576   10.4914 S   0  0  0  0  0  0  0  0  0  0  0  0
   22.6258   24.9071   14.4901 C   0  0  0  0  0  0  0  0  0  0  0  0
   21.7535   23.8884   15.2124 C   0  0  0  0  0  0  0  0  0  0  0  0
   21.6210   12.8236   -1.2893 C   0  0  0  0  0  0  0  0  0  0  0  0
   23.4564   10.5238   -0.2749 C   0  0  0  0  0  0  0  0  0  0  0  0
   23.9416   11.3023    0.9537 C   0  0  0  0  0  0  0  0  0  0  0  0
   19.6948   10.1176   -2.6864 C   0  0  0  0  0  0  0  0  0  0  0  0
   22.5290   13.2480   -2.4479 C   0  0  0  0  0  0  0  0  0  0  0  0
   20.8964    8.0790    0.8953 Cl  0  0  0  0  0  0  0  0  0  0  0  0
   12.1043   16.9662    8.5775 C   0  0  0  0  0  0  0  0  0  0  0  0
   10.6134   13.8788    7.3589 C   0  0  0  0  0  0  0  0  0  0  0  0
   11.5993   12.7773   10.0979 C   0  0  0  0  0  0  0  0  0  0  0  0
    9.1377   13.9251    7.7685 C   0  0  0  0  0  0  0  0  0  0  0  0
   11.7364   11.3476    9.5602 C   0  0  0  0  0  0  0  0  0  0  0  0
   14.9790   14.7516   10.1767 Cl  0  0  0  0  0  0  0  0  0  0  0  0
   25.6699   29.9284   11.3180 C   0  0  0  0  0  0  0  0  0  0  0  0
   25.1213   28.8280   12.0088 C   0  0  0  0  0  0  0  0  0  0  0  0
   25.2547   28.7356   13.4162 C   0  0  0  0  0  0  0  0  0  0  0  0
   25.9463   29.6647   14.1836 C   0  0  0  0  0  0  0  0  0  0  0  0
   26.4763   30.7754   13.4980 C   0  0  0  0  0  0  0  0  0  0  0  0
   26.3181   30.8833   12.0950 C   0  0  0  0  0  0  0  0  0  0  0  0
   24.4059   27.7294   11.4809 C   0  0  0  0  0  0  0  0  0  0  0  0
   24.0140   26.8135   12.4169 C   0  0  0  0  0  0  0  0  0  0  0  0
   24.5052   27.2891   14.0301 S   0  0  0  0  0  0  0  0  0  0  0  0
   27.1849   31.8746   14.0356 C   0  0  0  0  0  0  0  0  0  0  0  0
   27.5904   32.7900   13.1046 C   0  0  0  0  0  0  0  0  0  0  0  0
   27.0855   32.3245   11.4917 S   0  0  0  0  0  0  0  0  0  0  0  0
   25.5886   30.0613    9.8782 C   0  0  0  0  0  0  0  0  0  0  0  0
   26.1527   29.4835   15.6059 C   0  0  0  0  0  0  0  0  0  0  0  0
   25.4114   31.2082    9.1514 C   0  0  0  0  0  0  0  0  0  0  0  0
   25.4110   30.9682    7.7658 C   0  0  0  0  0  0  0  0  0  0  0  0
   25.5997   29.6637    7.3902 C   0  0  0  0  0  0  0  0  0  0  0  0
   25.7787   28.6975    8.8167 S   0  0  0  0  0  0  0  0  0  0  0  0
   27.3033   29.6806   16.3193 C   0  0  0  0  0  0  0  0  0  0  0  0
   27.1476   29.3567   17.6798 C   0  0  0  0  0  0  0  0  0  0  0  0
   25.8986   28.9273   18.0458 C   0  0  0  0  0  0  0  0  0  0  0  0
   24.8815   28.9116   16.6415 S   0  0  0  0  0  0  0  0  0  0  0  0
   25.5985   28.8822    5.6938 Si  0  0  0  0  0  0  0  0  0  0  0  0
   26.9150   29.7170    4.6347 C   0  0  0  0  0  0  0  0  0  0  0  0
   25.2653   28.3118   19.6908 Si  0  0  0  0  0  0  0  0  0  0  0  0
   25.7315   29.5239   21.0553 C   0  0  0  0  0  0  0  0  0  0  0  0
   28.3500   33.9677   13.3714 C   0  0  0  0  0  0  0  0  0  0  0  0
   29.0128   34.1510   14.9779 S   0  0  0  0  0  0  0  0  0  0  0  0
   29.7382   35.6640   14.5506 C   0  0  0  0  0  0  0  0  0  0  0  0
   29.4651   35.9906   13.2414 C   0  0  0  0  0  0  0  0  0  0  0  0
   28.6838   35.0438   12.5652 C   0  0  0  0  0  0  0  0  0  0  0  0
   30.5074   36.4207   15.4694 C   0  0  0  0  0  0  0  0  0  0  0  0
   28.3102   35.2181   11.1273 C   0  0  0  0  0  0  0  0  0  0  0  0
   29.3532   34.5789   10.2085 C   0  0  0  0  0  0  0  0  0  0  0  0
   31.0578   37.5614   15.1733 N   0  0  0  0  0  0  0  0  0  0  0  0
   31.7293   38.0464   16.2182 C   0  0  0  0  0  0  0  0  0  0  0  0
   31.7198   37.2732   17.3889 C   0  0  0  0  0  0  0  0  0  0  0  0
   30.7953   35.8471   17.1329 S   0  0  0  0  0  0  0  0  0  0  0  0
   32.6547   39.4724   16.4749 S   0  0  0  0  0  0  0  0  0  0  0  0
   32.9473   38.8961   18.1361 C   0  0  0  0  0  0  0  0  0  0  0  0
   32.3959   37.7574   18.4324 N   0  0  0  0  0  0  0  0  0  0  0  0
   33.7354   39.6451   19.0498 C   0  0  0  0  0  0  0  0  0  0  0  0
   34.0473   39.2976   20.3423 C   0  0  0  0  0  0  0  0  0  0  0  0
   34.8520   40.2518   20.9963 C   0  0  0  0  0  0  0  0  0  0  0  0
   35.1397   41.3112   20.1843 C   0  0  0  0  0  0  0  0  0  0  0  0
   34.4421   41.1730   18.6231 S   0  0  0  0  0  0  0  0  0  0  0  0
   35.3632   40.0909   22.3934 C   0  0  0  0  0  0  0  0  0  0  0  0
   36.5260   39.0983   22.4325 C   0  0  0  0  0  0  0  0  0  0  0  0
   25.9786   27.0569    5.9618 C   0  0  0  0  0  0  0  0  0  0  0  0
   23.8779   29.1228    4.9601 C   0  0  0  0  0  0  0  0  0  0  0  0
   22.7472   28.5491    5.8226 C   0  0  0  0  0  0  0  0  0  0  0  0
   28.3097   29.7409    5.2707 C   0  0  0  0  0  0  0  0  0  0  0  0
   25.9682   26.2127    4.6832 C   0  0  0  0  0  0  0  0  0  0  0  0
   25.1824   32.2307    6.6245 Cl  0  0  0  0  0  0  0  0  0  0  0  0
   25.3651   30.9818   20.7539 C   0  0  0  0  0  0  0  0  0  0  0  0
   23.3940   28.1766   19.5144 C   0  0  0  0  0  0  0  0  0  0  0  0
   26.0491   26.6192   19.9750 C   0  0  0  0  0  0  0  0  0  0  0  0
   22.6848   27.5723   20.7307 C   0  0  0  0  0  0  0  0  0  0  0  0
   25.7485   25.6029   18.8666 C   0  0  0  0  0  0  0  0  0  0  0  0
   28.4468   29.4814   18.7964 Cl  0  0  0  0  0  0  0  0  0  0  0  0
    9.7405  -10.1441   -3.1257 H   0  0  0  0  0  0  0  0  0  0  0  0
    7.2028  -10.0249   -3.6873 H   0  0  0  0  0  0  0  0  0  0  0  0
   10.1041   -3.2040   -1.4403 H   0  0  0  0  0  0  0  0  0  0  0  0
   10.9681  -10.3828   -1.1304 H   0  0  0  0  0  0  0  0  0  0  0  0
    8.1361   -3.6853   -0.2588 H   0  0  0  0  0  0  0  0  0  0  0  0
   15.5915  -12.8786   -2.8306 H   0  0  0  0  0  0  0  0  0  0  0  0
   17.0687  -12.3066   -3.5492 H   0  0  0  0  0  0  0  0  0  0  0  0
    4.7951   -0.0908   -2.7198 H   0  0  0  0  0  0  0  0  0  0  0  0
    3.8792   -0.1078   -4.1987 H   0  0  0  0  0  0  0  0  0  0  0  0
   15.4999   -1.1188   -0.1638 H   0  0  0  0  0  0  0  0  0  0  0  0
   14.9516   -4.7594   -0.6913 H   0  0  0  0  0  0  0  0  0  0  0  0
   16.1582   -3.4708   -0.6319 H   0  0  0  0  0  0  0  0  0  0  0  0
   14.4503   -4.1689   -3.0717 H   0  0  0  0  0  0  0  0  0  0  0  0
   16.1527   -4.5727   -2.8539 H   0  0  0  0  0  0  0  0  0  0  0  0
   15.6573   -2.8825   -3.0006 H   0  0  0  0  0  0  0  0  0  0  0  0
   11.8125    6.1219    3.5332 H   0  0  0  0  0  0  0  0  0  0  0  0
   12.1682    9.7297    4.2809 H   0  0  0  0  0  0  0  0  0  0  0  0
   12.6003    8.8364    5.7303 H   0  0  0  0  0  0  0  0  0  0  0  0
   10.3221    8.0823    3.8351 H   0  0  0  0  0  0  0  0  0  0  0  0
   10.1514    8.9010    5.3876 H   0  0  0  0  0  0  0  0  0  0  0  0
   10.7373    7.2407    5.3346 H   0  0  0  0  0  0  0  0  0  0  0  0
   16.6337   -8.1045   -2.5912 H   0  0  0  0  0  0  0  0  0  0  0  0
   16.3286   -8.8274   -4.1415 H   0  0  0  0  0  0  0  0  0  0  0  0
   17.6976  -11.0399   -0.6603 H   0  0  0  0  0  0  0  0  0  0  0  0
   16.1461  -11.6191   -0.1265 H   0  0  0  0  0  0  0  0  0  0  0  0
   17.0491   -8.7051   -0.0504 H   0  0  0  0  0  0  0  0  0  0  0  0
   16.9134   -9.7961    1.3280 H   0  0  0  0  0  0  0  0  0  0  0  0
   15.4661   -9.2830    0.4604 H   0  0  0  0  0  0  0  0  0  0  0  0
   14.2652  -11.6867   -4.5843 H   0  0  0  0  0  0  0  0  0  0  0  0
   15.3897  -12.8553   -5.2774 H   0  0  0  0  0  0  0  0  0  0  0  0
   15.7629  -11.1329   -5.3274 H   0  0  0  0  0  0  0  0  0  0  0  0
   18.7997   -9.3450   -2.4268 H   0  0  0  0  0  0  0  0  0  0  0  0
   18.7272   -8.3376   -3.8713 H   0  0  0  0  0  0  0  0  0  0  0  0
   18.4893  -10.0793   -3.9966 H   0  0  0  0  0  0  0  0  0  0  0  0
    6.8541   -0.7520   -3.9720 H   0  0  0  0  0  0  0  0  0  0  0  0
    6.1628    0.7530   -4.5777 H   0  0  0  0  0  0  0  0  0  0  0  0
    5.9332   -0.7482   -5.4736 H   0  0  0  0  0  0  0  0  0  0  0  0
    3.9566   -4.3769   -4.9246 H   0  0  0  0  0  0  0  0  0  0  0  0
    4.9706   -3.2050   -5.7102 H   0  0  0  0  0  0  0  0  0  0  0  0
    1.9679   -2.2295   -2.7228 H   0  0  0  0  0  0  0  0  0  0  0  0
    3.0294   -2.1392   -1.3468 H   0  0  0  0  0  0  0  0  0  0  0  0
    1.9563   -2.9274   -5.3219 H   0  0  0  0  0  0  0  0  0  0  0  0
    2.7783   -3.3436   -6.8244 H   0  0  0  0  0  0  0  0  0  0  0  0
    2.9850   -1.7415   -6.1194 H   0  0  0  0  0  0  0  0  0  0  0  0
    2.3368   -4.6973   -2.8595 H   0  0  0  0  0  0  0  0  0  0  0  0
    1.7268   -4.2198   -1.2757 H   0  0  0  0  0  0  0  0  0  0  0  0
    3.4352   -4.6041   -1.4864 H   0  0  0  0  0  0  0  0  0  0  0  0
   16.7787    9.2274    2.5282 H   0  0  0  0  0  0  0  0  0  0  0  0
   17.4541   15.2432    6.3281 H   0  0  0  0  0  0  0  0  0  0  0  0
   19.0215    8.9919    2.9996 H   0  0  0  0  0  0  0  0  0  0  0  0
   16.8840   13.8334    8.1045 H   0  0  0  0  0  0  0  0  0  0  0  0
   21.2894    8.8513   -2.0270 H   0  0  0  0  0  0  0  0  0  0  0  0
   21.7873   10.0794   -3.1542 H   0  0  0  0  0  0  0  0  0  0  0  0
   12.2721   15.9163   10.4350 H   0  0  0  0  0  0  0  0  0  0  0  0
   10.6447   16.0220    9.8317 H   0  0  0  0  0  0  0  0  0  0  0  0
   21.9723   18.7665    4.8323 H   0  0  0  0  0  0  0  0  0  0  0  0
   21.5455   15.4595    3.2045 H   0  0  0  0  0  0  0  0  0  0  0  0
   22.2724   17.0620    3.0510 H   0  0  0  0  0  0  0  0  0  0  0  0
   19.4081   16.3459    2.2505 H   0  0  0  0  0  0  0  0  0  0  0  0
   20.7578   16.5937    1.1437 H   0  0  0  0  0  0  0  0  0  0  0  0
   20.1427   17.9443    2.1038 H   0  0  0  0  0  0  0  0  0  0  0  0
   21.6197   22.8011   12.7822 H   0  0  0  0  0  0  0  0  0  0  0  0
   22.2471   25.9138   14.6901 H   0  0  0  0  0  0  0  0  0  0  0  0
   23.6406   24.8654   14.8987 H   0  0  0  0  0  0  0  0  0  0  0  0
   20.7377   23.9063   14.8253 H   0  0  0  0  0  0  0  0  0  0  0  0
   21.7204   24.1254   16.2731 H   0  0  0  0  0  0  0  0  0  0  0  0
   22.1550   22.8844   15.1009 H   0  0  0  0  0  0  0  0  0  0  0  0
   21.8700   13.4351   -0.4175 H   0  0  0  0  0  0  0  0  0  0  0  0
   20.5927   13.0936   -1.5449 H   0  0  0  0  0  0  0  0  0  0  0  0
   24.1764   10.6733   -1.0833 H   0  0  0  0  0  0  0  0  0  0  0  0
   23.4991    9.4578   -0.0385 H   0  0  0  0  0  0  0  0  0  0  0  0
   23.9812   12.3680    0.7428 H   0  0  0  0  0  0  0  0  0  0  0  0
   24.9359   10.9753    1.2502 H   0  0  0  0  0  0  0  0  0  0  0  0
   23.2663   11.1475    1.7921 H   0  0  0  0  0  0  0  0  0  0  0  0
   19.0338    9.9101   -1.8481 H   0  0  0  0  0  0  0  0  0  0  0  0
   19.4238    9.4572   -3.5071 H   0  0  0  0  0  0  0  0  0  0  0  0
   19.5282   11.1439   -3.0040 H   0  0  0  0  0  0  0  0  0  0  0  0
   23.5707   13.0465   -2.2113 H   0  0  0  0  0  0  0  0  0  0  0  0
   22.4253   14.3115   -2.6526 H   0  0  0  0  0  0  0  0  0  0  0  0
   22.2752   12.7012   -3.3525 H   0  0  0  0  0  0  0  0  0  0  0  0
   13.1458   16.8451    8.2899 H   0  0  0  0  0  0  0  0  0  0  0  0
   11.9931   17.9354    9.0588 H   0  0  0  0  0  0  0  0  0  0  0  0
   11.4997   16.9617    7.6739 H   0  0  0  0  0  0  0  0  0  0  0  0
   10.8005   12.9241    6.8596 H   0  0  0  0  0  0  0  0  0  0  0  0
   10.7777   14.6412    6.5926 H   0  0  0  0  0  0  0  0  0  0  0  0
   10.6219   12.8726   10.5772 H   0  0  0  0  0  0  0  0  0  0  0  0
   12.3328   12.9102   10.8975 H   0  0  0  0  0  0  0  0  0  0  0  0
    8.9166   13.1443    8.4918 H   0  0  0  0  0  0  0  0  0  0  0  0
    8.4911   13.7833    6.9050 H   0  0  0  0  0  0  0  0  0  0  0  0
    8.8959   14.8837    8.2206 H   0  0  0  0  0  0  0  0  0  0  0  0
   10.9774   11.1459    8.8086 H   0  0  0  0  0  0  0  0  0  0  0  0
   11.6258   10.6207   10.3618 H   0  0  0  0  0  0  0  0  0  0  0  0
   12.7123   11.2057    9.1014 H   0  0  0  0  0  0  0  0  0  0  0  0
   24.1685   27.6114   10.4399 H   0  0  0  0  0  0  0  0  0  0  0  0
   27.3725   32.0031   15.0860 H   0  0  0  0  0  0  0  0  0  0  0  0
   25.2438   32.1790    9.5794 H   0  0  0  0  0  0  0  0  0  0  0  0
   28.2365   29.9945   15.8889 H   0  0  0  0  0  0  0  0  0  0  0  0
   26.6271   30.7470    4.4117 H   0  0  0  0  0  0  0  0  0  0  0  0
   26.9881   29.2176    3.6654 H   0  0  0  0  0  0  0  0  0  0  0  0
   26.8038   29.4793   21.2579 H   0  0  0  0  0  0  0  0  0  0  0  0
   25.2460   29.2351   21.9909 H   0  0  0  0  0  0  0  0  0  0  0  0
   29.8291   36.8991   12.7977 H   0  0  0  0  0  0  0  0  0  0  0  0
   28.2510   36.2868   10.9126 H   0  0  0  0  0  0  0  0  0  0  0  0
   27.3321   34.7771   10.9317 H   0  0  0  0  0  0  0  0  0  0  0  0
   30.3285   35.0311   10.3732 H   0  0  0  0  0  0  0  0  0  0  0  0
   29.0725   34.7219    9.1685 H   0  0  0  0  0  0  0  0  0  0  0  0
   29.4295   33.5118   10.4010 H   0  0  0  0  0  0  0  0  0  0  0  0
   33.6969   38.3853   20.7884 H   0  0  0  0  0  0  0  0  0  0  0  0
   35.7267   42.1774   20.4192 H   0  0  0  0  0  0  0  0  0  0  0  0
   34.5556   39.7272   23.0318 H   0  0  0  0  0  0  0  0  0  0  0  0
   35.6946   41.0580   22.7751 H   0  0  0  0  0  0  0  0  0  0  0  0
   36.2095   38.1278   22.0584 H   0  0  0  0  0  0  0  0  0  0  0  0
   36.8857   38.9779   23.4514 H   0  0  0  0  0  0  0  0  0  0  0  0
   37.3471   39.4534   21.8139 H   0  0  0  0  0  0  0  0  0  0  0  0
   25.2612   26.6209    6.6628 H   0  0  0  0  0  0  0  0  0  0  0  0
   26.9550   26.9391    6.4400 H   0  0  0  0  0  0  0  0  0  0  0  0
   23.8206   28.6650    3.9696 H   0  0  0  0  0  0  0  0  0  0  0  0
   23.6785   30.1859    4.8037 H   0  0  0  0  0  0  0  0  0  0  0  0
   22.8698   27.4772    5.9554 H   0  0  0  0  0  0  0  0  0  0  0  0
   21.7794   28.7279    5.3593 H   0  0  0  0  0  0  0  0  0  0  0  0
   22.7465   29.0148    6.8056 H   0  0  0  0  0  0  0  0  0  0  0  0
   28.2847   30.2729    6.2190 H   0  0  0  0  0  0  0  0  0  0  0  0
   29.0234   30.2387    4.6180 H   0  0  0  0  0  0  0  0  0  0  0  0
   28.6646   28.7304    5.4577 H   0  0  0  0  0  0  0  0  0  0  0  0
   24.9942   26.2587    4.2027 H   0  0  0  0  0  0  0  0  0  0  0  0
   26.1886   25.1711    4.9064 H   0  0  0  0  0  0  0  0  0  0  0  0
   26.7120   26.5757    3.9783 H   0  0  0  0  0  0  0  0  0  0  0  0
   25.8740   31.3221   19.8553 H   0  0  0  0  0  0  0  0  0  0  0  0
   25.6553   31.6306   21.5773 H   0  0  0  0  0  0  0  0  0  0  0  0
   24.2942   31.0855   20.5977 H   0  0  0  0  0  0  0  0  0  0  0  0
   23.1426   27.5741   18.6371 H   0  0  0  0  0  0  0  0  0  0  0  0
   22.9590   29.1610   19.3215 H   0  0  0  0  0  0  0  0  0  0  0  0
   25.7179   26.1980   20.9274 H   0  0  0  0  0  0  0  0  0  0  0  0
   27.1346   26.7174   20.0589 H   0  0  0  0  0  0  0  0  0  0  0  0
   23.0486   26.5665   20.9252 H   0  0  0  0  0  0  0  0  0  0  0  0
   21.6105   27.5208   20.5669 H   0  0  0  0  0  0  0  0  0  0  0  0
   22.8651   28.1749   21.6173 H   0  0  0  0  0  0  0  0  0  0  0  0
   24.6792   25.4224   18.7909 H   0  0  0  0  0  0  0  0  0  0  0  0
   26.2424   24.6547   19.0671 H   0  0  0  0  0  0  0  0  0  0  0  0
   26.0971   25.9741   17.9055 H   0  0  0  0  0  0  0  0  0  0  0  0
  1 13  1  0  0  0  0
  1  6  2  0  0  0  0
  2  1  1  0  0  0  0
  3  2  2  0  0  0  0
  3  4  1  0  0  0  0
  4 14  1  0  0  0  0
  4  5  2  0  0  0  0
  5 10  1  0  0  0  0
  6  5  1  0  0  0  0
  6 12  1  0  0  0  0
  7  2  1  0  0  0  0
  8  9  1  0  0  0  0
  8  7  2  0  0  0  0
  9  3  1  0  0  0  0
 10183  1  0  0  0  0
 10 11  2  0  0  0  0
 11 27  1  0  0  0  0
 12 11  1  0  0  0  0
 13 15  2  0  0  0  0
 14 19  2  0  0  0  0
 15184  1  0  0  0  0
 16 15  1  0  0  0  0
 16 54  1  0  0  0  0
 17 16  2  0  0  0  0
 18 17  1  0  0  0  0
 18 13  1  0  0  0  0
 19185  1  0  0  0  0
 20 19  1  0  0  0  0
 20 60  1  0  0  0  0
 21 20  2  0  0  0  0
 22 21  1  0  0  0  0
 22 14  1  0  0  0  0
 23 17  1  0  0  0  0
 23 50  1  0  0  0  0
 24186  1  0  0  0  0
 24 23  1  0  0  0  0
 25 21  1  0  0  0  0
 25 57  1  0  0  0  0
 26 25  1  0  0  0  0
 26188  1  0  0  0  0
 27 31  2  0  0  0  0
 27 28  1  0  0  0  0
 28 29  1  0  0  0  0
 29 32  1  0  0  0  0
 30190  1  0  0  0  0
 30 29  2  0  0  0  0
 31 30  1  0  0  0  0
 32 35  2  0  0  0  0
 32 38  1  0  0  0  0
 33 31  1  0  0  0  0
 33191  1  0  0  0  0
 33192  1  0  0  0  0
 34 33  1  0  0  0  0
 35 36  1  0  0  0  0
 36 37  2  0  0  0  0
 36 39  1  0  0  0  0
 37 41  1  0  0  0  0
 38 37  1  0  0  0  0
 39 40  1  0  0  0  0
 40 42  1  0  0  0  0
 41 40  2  0  0  0  0
 42 43  2  0  0  0  0
 43196  1  0  0  0  0
 43 44  1  0  0  0  0
 44 47  1  0  0  0  0
 45 68  1  0  0  0  0
 45 44  2  0  0  0  0
 46 42  1  0  0  0  0
 46 45  1  0  0  0  0
 47 48  1  0  0  0  0
 47198  1  0  0  0  0
 48201  1  0  0  0  0
 48200  1  0  0  0  0
 49202  1  0  0  0  0
 49 23  1  0  0  0  0
 50205  1  0  0  0  0
 50 51  1  0  0  0  0
 51208  1  0  0  0  0
 51207  1  0  0  0  0
 52209  1  0  0  0  0
 52 24  1  0  0  0  0
 53 49  1  0  0  0  0
 53212  1  0  0  0  0
 55215  1  0  0  0  0
 55 26  1  0  0  0  0
 56218  1  0  0  0  0
 56 25  1  0  0  0  0
 57 59  1  0  0  0  0
 57221  1  0  0  0  0
 58222  1  0  0  0  0
 58 56  1  0  0  0  0
 59227  1  0  0  0  0
 59226  1  0  0  0  0
 61 62  2  0  0  0  0
 61 66  1  0  0  0  0
 62 63  1  0  0  0  0
 63 69  1  0  0  0  0
 63 64  2  0  0  0  0
 64 74  1  0  0  0  0
 65 64  1  0  0  0  0
 65 70  1  0  0  0  0
 66 65  2  0  0  0  0
 67 62  1  0  0  0  0
 67 68  2  0  0  0  0
 68 69  1  0  0  0  0
 70229  1  0  0  0  0
 71 87  1  0  0  0  0
 71 70  2  0  0  0  0
 72 66  1  0  0  0  0
 72 71  1  0  0  0  0
 73 61  1  0  0  0  0
 74 79  2  0  0  0  0
 75 73  2  0  0  0  0
 75230  1  0  0  0  0
 76 75  1  0  0  0  0
 77 76  2  0  0  0  0
 77 78  1  0  0  0  0
 78 73  1  0  0  0  0
 79231  1  0  0  0  0
 79 80  1  0  0  0  0
 80120  1  0  0  0  0
 81 80  2  0  0  0  0
 81 85  1  0  0  0  0
 82 74  1  0  0  0  0
 82 81  1  0  0  0  0
 83110  1  0  0  0  0
 83 77  1  0  0  0  0
 84232  1  0  0  0  0
 84 83  1  0  0  0  0
 85 86  1  0  0  0  0
 85117  1  0  0  0  0
 86235  1  0  0  0  0
 86234  1  0  0  0  0
 87 88  1  0  0  0  0
 89 88  1  0  0  0  0
 89 92  1  0  0  0  0
 90 89  2  0  0  0  0
 91 90  1  0  0  0  0
 91 87  2  0  0  0  0
 92 98  1  0  0  0  0
 93 91  1  0  0  0  0
 94239  1  0  0  0  0
 94 93  1  0  0  0  0
 95 92  2  0  0  0  0
 95 96  1  0  0  0  0
 96 99  1  0  0  0  0
 96 97  2  0  0  0  0
 97101  1  0  0  0  0
 98 97  1  0  0  0  0
 99100  1  0  0  0  0
100101  2  0  0  0  0
100102  1  0  0  0  0
102103  2  0  0  0  0
103242  1  0  0  0  0
103104  1  0  0  0  0
104107  1  0  0  0  0
105128  1  0  0  0  0
105104  2  0  0  0  0
106102  1  0  0  0  0
106105  1  0  0  0  0
107243  1  0  0  0  0
107244  1  0  0  0  0
107108  1  0  0  0  0
108246  1  0  0  0  0
109 83  1  0  0  0  0
109248  1  0  0  0  0
110251  1  0  0  0  0
110111  1  0  0  0  0
111253  1  0  0  0  0
111254  1  0  0  0  0
112 84  1  0  0  0  0
112255  1  0  0  0  0
113258  1  0  0  0  0
113109  1  0  0  0  0
114 76  1  0  0  0  0
115262  1  0  0  0  0
115 86  1  0  0  0  0
116118  1  0  0  0  0
116 85  1  0  0  0  0
117266  1  0  0  0  0
117267  1  0  0  0  0
118270  1  0  0  0  0
118268  1  0  0  0  0
119117  1  0  0  0  0
119272  1  0  0  0  0
121122  2  0  0  0  0
121126  1  0  0  0  0
122123  1  0  0  0  0
123129  1  0  0  0  0
123124  2  0  0  0  0
124134  1  0  0  0  0
125130  1  0  0  0  0
125124  1  0  0  0  0
126125  2  0  0  0  0
127122  1  0  0  0  0
127128  2  0  0  0  0
128129  1  0  0  0  0
130275  1  0  0  0  0
131147  1  0  0  0  0
131130  2  0  0  0  0
132126  1  0  0  0  0
132131  1  0  0  0  0
133121  1  0  0  0  0
134139  2  0  0  0  0
134142  1  0  0  0  0
135276  1  0  0  0  0
135133  2  0  0  0  0
136135  1  0  0  0  0
137136  2  0  0  0  0
137138  1  0  0  0  0
138133  1  0  0  0  0
139140  1  0  0  0  0
140141  2  0  0  0  0
140180  1  0  0  0  0
141145  1  0  0  0  0
142141  1  0  0  0  0
143169  1  0  0  0  0
143137  1  0  0  0  0
144172  1  0  0  0  0
144143  1  0  0  0  0
145177  1  0  0  0  0
145146  1  0  0  0  0
146280  1  0  0  0  0
146281  1  0  0  0  0
147148  1  0  0  0  0
149148  1  0  0  0  0
149152  1  0  0  0  0
150149  2  0  0  0  0
151150  1  0  0  0  0
151147  2  0  0  0  0
152158  1  0  0  0  0
153151  1  0  0  0  0
154285  1  0  0  0  0
154287  1  0  0  0  0
154153  1  0  0  0  0
155152  2  0  0  0  0
155156  1  0  0  0  0
156159  1  0  0  0  0
156157  2  0  0  0  0
157161  1  0  0  0  0
158157  1  0  0  0  0
159160  1  0  0  0  0
160161  2  0  0  0  0
160162  1  0  0  0  0
162163  2  0  0  0  0
163288  1  0  0  0  0
163164  1  0  0  0  0
164167  1  0  0  0  0
165289  1  0  0  0  0
165164  2  0  0  0  0
166162  1  0  0  0  0
166165  1  0  0  0  0
167168  1  0  0  0  0
167291  1  0  0  0  0
167290  1  0  0  0  0
168293  1  0  0  0  0
169296  1  0  0  0  0
169295  1  0  0  0  0
170143  1  0  0  0  0
170171  1  0  0  0  0
171299  1  0  0  0  0
171301  1  0  0  0  0
172304  1  0  0  0  0
172302  1  0  0  0  0
173306  1  0  0  0  0
173169  1  0  0  0  0
174136  1  0  0  0  0
175146  1  0  0  0  0
175309  1  0  0  0  0
176145  1  0  0  0  0
176178  1  0  0  0  0
177314  1  0  0  0  0
177313  1  0  0  0  0
178315  1  0  0  0  0
178317  1  0  0  0  0
179319  1  0  0  0  0
179177  1  0  0  0  0
181  7  1  0  0  0  0
182  8  1  0  0  0  0
187 24  1  0  0  0  0
189 26  1  0  0  0  0
193 34  1  0  0  0  0
194 34  1  0  0  0  0
195 34  1  0  0  0  0
197 47  1  0  0  0  0
199 48  1  0  0  0  0
203 49  1  0  0  0  0
204 50  1  0  0  0  0
206 51  1  0  0  0  0
210 52  1  0  0  0  0
211 52  1  0  0  0  0
213 53  1  0  0  0  0
214 53  1  0  0  0  0
216 55  1  0  0  0  0
217 55  1  0  0  0  0
219 56  1  0  0  0  0
220 57  1  0  0  0  0
223 58  1  0  0  0  0
224 58  1  0  0  0  0
225 59  1  0  0  0  0
228 67  1  0  0  0  0
233 84  1  0  0  0  0
236 90  1  0  0  0  0
237 93  1  0  0  0  0
238 93  1  0  0  0  0
240 94  1  0  0  0  0
241 94  1  0  0  0  0
245108  1  0  0  0  0
247108  1  0  0  0  0
249109  1  0  0  0  0
250110  1  0  0  0  0
252111  1  0  0  0  0
256112  1  0  0  0  0
257112  1  0  0  0  0
259113  1  0  0  0  0
260113  1  0  0  0  0
261115  1  0  0  0  0
263115  1  0  0  0  0
264116  1  0  0  0  0
265116  1  0  0  0  0
269118  1  0  0  0  0
271119  1  0  0  0  0
273119  1  0  0  0  0
274127  1  0  0  0  0
277139  1  0  0  0  0
278144  1  0  0  0  0
279144  1  0  0  0  0
282150  1  0  0  0  0
283153  1  0  0  0  0
284153  1  0  0  0  0
286154  1  0  0  0  0
292168  1  0  0  0  0
294168  1  0  0  0  0
297170  1  0  0  0  0
298170  1  0  0  0  0
300171  1  0  0  0  0
303172  1  0  0  0  0
305173  1  0  0  0  0
307173  1  0  0  0  0
308175  1  0  0  0  0
310175  1  0  0  0  0
311176  1  0  0  0  0
312176  1  0  0  0  0
316178  1  0  0  0  0
318179  1  0  0  0  0
320179  1  0  0  0  0
M  END
