SCF done       -255.396871337430          0.000632195004
 OpenBabel12282109573D

143157  0  0  0  0  0  0  0  0999 V2000
   -4.2997    2.2804    4.0680 C   0  0  0  0  0  0  0  0  0  0  0  0
   -4.1855    1.2680    3.1020 C   0  0  0  0  0  0  0  0  0  0  0  0
   -2.9134    0.7741    2.6955 C   0  0  0  0  0  0  0  0  0  0  0  0
   -1.7301    1.2875    3.2158 C   0  0  0  0  0  0  0  0  0  0  0  0
   -1.8512    2.3225    4.1623 C   0  0  0  0  0  0  0  0  0  0  0  0
   -3.1171    2.7918    4.5725 C   0  0  0  0  0  0  0  0  0  0  0  0
   -5.2475    0.6385    2.4119 C   0  0  0  0  0  0  0  0  0  0  0  0
   -4.8367   -0.3139    1.5223 C   0  0  0  0  0  0  0  0  0  0  0  0
   -3.0988   -0.4876    1.4883 S   0  0  0  0  0  0  0  0  0  0  0  0
   -0.7940    3.0124    4.8249 C   0  0  0  0  0  0  0  0  0  0  0  0
   -1.2406    3.9507    5.6839 C   0  0  0  0  0  0  0  0  0  0  0  0
   -2.9690    4.0633    5.7521 S   0  0  0  0  0  0  0  0  0  0  0  0
   -5.5149    2.7864    4.4597 O   0  0  0  0  0  0  0  0  0  0  0  0
   -0.4575    0.9257    2.9342 O   0  0  0  0  0  0  0  0  0  0  0  0
   -5.6585   -1.1034    0.6757 C   0  0  0  0  0  0  0  0  0  0  0  0
   -7.4048   -0.9340    0.6932 S   0  0  0  0  0  0  0  0  0  0  0  0
   -7.6294   -2.1429   -0.5585 C   0  0  0  0  0  0  0  0  0  0  0  0
   -6.4028   -2.6379   -0.9410 C   0  0  0  0  0  0  0  0  0  0  0  0
   -5.3089   -2.0552   -0.2494 C   0  0  0  0  0  0  0  0  0  0  0  0
   -5.8612   -3.6178   -1.8897 C   0  0  0  0  0  0  0  0  0  0  0  0
   -4.4817   -3.5669   -1.7113 N   0  0  0  0  0  0  0  0  0  0  0  0
   -3.5586   -4.3639   -2.4889 C   0  0  0  0  0  0  0  0  0  0  0  0
   -3.1411   -3.6384   -3.7635 C   0  0  0  0  0  0  0  0  0  0  0  0
   -6.2714    1.9602    5.3340 C   0  0  0  0  0  0  0  0  0  0  0  0
   -5.6419    1.8409    6.7172 C   0  0  0  0  0  0  0  0  0  0  0  0
   -0.1743   -0.0688    1.9656 C   0  0  0  0  0  0  0  0  0  0  0  0
    1.3385   -0.2022    1.8880 C   0  0  0  0  0  0  0  0  0  0  0  0
   -4.0698   -2.6544   -0.7484 C   0  0  0  0  0  0  0  0  0  0  0  0
   -2.9186   -2.4575   -0.4347 O   0  0  0  0  0  0  0  0  0  0  0  0
   -6.4133   -4.3514   -2.6758 O   0  0  0  0  0  0  0  0  0  0  0  0
  -12.7519   -2.3508   -1.5560 C   0  0  0  0  0  0  0  0  0  0  0  0
  -13.3986   -3.1072   -2.5498 C   0  0  0  0  0  0  0  0  0  0  0  0
  -12.6740   -4.0066   -3.3824 C   0  0  0  0  0  0  0  0  0  0  0  0
  -11.2981   -4.1701   -3.2632 C   0  0  0  0  0  0  0  0  0  0  0  0
  -10.6479   -3.3756   -2.2923 C   0  0  0  0  0  0  0  0  0  0  0  0
  -11.3809   -2.4932   -1.4630 C   0  0  0  0  0  0  0  0  0  0  0  0
  -14.7711   -3.0633   -2.8821 C   0  0  0  0  0  0  0  0  0  0  0  0
  -15.1108   -3.8841   -3.9221 C   0  0  0  0  0  0  0  0  0  0  0  0
  -13.7437   -4.7732   -4.5439 S   0  0  0  0  0  0  0  0  0  0  0  0
   -9.2621   -3.3363   -2.0256 C   0  0  0  0  0  0  0  0  0  0  0  0
   -8.9303   -2.4507   -1.0361 C   0  0  0  0  0  0  0  0  0  0  0  0
  -10.3383   -1.6336   -0.3700 S   0  0  0  0  0  0  0  0  0  0  0  0
  -13.4260   -1.4592   -0.7595 O   0  0  0  0  0  0  0  0  0  0  0  0
  -10.4838   -4.9827   -3.9584 O   0  0  0  0  0  0  0  0  0  0  0  0
  -16.3960   -4.0369   -4.5064 C   0  0  0  0  0  0  0  0  0  0  0  0
  -17.7984   -3.2078   -3.8555 S   0  0  0  0  0  0  0  0  0  0  0  0
  -18.8701   -3.8596   -5.0814 C   0  0  0  0  0  0  0  0  0  0  0  0
  -18.1526   -4.6697   -5.9327 C   0  0  0  0  0  0  0  0  0  0  0  0
  -16.7764   -4.7696   -5.6029 C   0  0  0  0  0  0  0  0  0  0  0  0
  -18.3862   -5.4913   -7.1274 C   0  0  0  0  0  0  0  0  0  0  0  0
  -17.1443   -6.0387   -7.4361 N   0  0  0  0  0  0  0  0  0  0  0  0
  -16.9233   -6.8993   -8.5779 C   0  0  0  0  0  0  0  0  0  0  0  0
  -16.4807   -6.0967   -9.7964 C   0  0  0  0  0  0  0  0  0  0  0  0
  -14.2028   -2.0328    0.2837 C   0  0  0  0  0  0  0  0  0  0  0  0
  -13.3423   -2.6548    1.3774 C   0  0  0  0  0  0  0  0  0  0  0  0
  -10.9801   -5.8648   -4.9504 C   0  0  0  0  0  0  0  0  0  0  0  0
   -9.7936   -6.6630   -5.4668 C   0  0  0  0  0  0  0  0  0  0  0  0
  -16.1278   -5.6565   -6.5712 C   0  0  0  0  0  0  0  0  0  0  0  0
  -14.9790   -6.0254   -6.6511 O   0  0  0  0  0  0  0  0  0  0  0  0
  -19.3940   -5.7050   -7.7588 O   0  0  0  0  0  0  0  0  0  0  0  0
  -23.6347   -1.9932   -4.0446 C   0  0  0  0  0  0  0  0  0  0  0  0
  -24.8176   -2.1750   -4.7874 C   0  0  0  0  0  0  0  0  0  0  0  0
  -24.8039   -2.9829   -5.9732 C   0  0  0  0  0  0  0  0  0  0  0  0
  -23.6622   -3.5992   -6.4587 C   0  0  0  0  0  0  0  0  0  0  0  0
  -22.4759   -3.3905   -5.7178 C   0  0  0  0  0  0  0  0  0  0  0  0
  -22.4930   -2.6059   -4.5495 C   0  0  0  0  0  0  0  0  0  0  0  0
  -26.1021   -1.6313   -4.5432 C   0  0  0  0  0  0  0  0  0  0  0  0
  -27.0489   -1.9922   -5.4584 C   0  0  0  0  0  0  0  0  0  0  0  0
  -26.4036   -3.0422   -6.6955 S   0  0  0  0  0  0  0  0  0  0  0  0
  -21.1924   -3.9048   -6.0015 C   0  0  0  0  0  0  0  0  0  0  0  0
  -20.2499   -3.5212   -5.0849 C   0  0  0  0  0  0  0  0  0  0  0  0
  -20.9212   -2.5034   -3.8191 S   0  0  0  0  0  0  0  0  0  0  0  0
  -23.4377   -1.2767   -2.9155 O   0  0  0  0  0  0  0  0  0  0  0  0
  -23.5033   -4.3804   -7.5470 O   0  0  0  0  0  0  0  0  0  0  0  0
  -28.4150   -1.5995   -5.4701 C   0  0  0  0  0  0  0  0  0  0  0  0
  -29.4942   -2.1407   -6.7427 S   0  0  0  0  0  0  0  0  0  0  0  0
  -30.8425   -1.2978   -6.0727 C   0  0  0  0  0  0  0  0  0  0  0  0
  -30.4832   -0.6421   -4.9419 C   0  0  0  0  0  0  0  0  0  0  0  0
  -29.1128   -0.8039   -4.5902 C   0  0  0  0  0  0  0  0  0  0  0  0
  -31.1211    0.2216   -3.9328 C   0  0  0  0  0  0  0  0  0  0  0  0
  -30.0979    0.5307   -3.0425 N   0  0  0  0  0  0  0  0  0  0  0  0
  -30.3033    1.3421   -1.8619 C   0  0  0  0  0  0  0  0  0  0  0  0
  -30.7134    0.4863   -0.6684 C   0  0  0  0  0  0  0  0  0  0  0  0
  -24.4918   -0.9310   -2.0304 C   0  0  0  0  0  0  0  0  0  0  0  0
  -23.8606   -0.6334   -0.6784 C   0  0  0  0  0  0  0  0  0  0  0  0
  -24.5700   -4.6612   -8.4325 C   0  0  0  0  0  0  0  0  0  0  0  0
  -24.0060   -5.5406   -9.5375 C   0  0  0  0  0  0  0  0  0  0  0  0
  -28.8729   -0.0433   -3.3603 C   0  0  0  0  0  0  0  0  0  0  0  0
  -27.8634    0.1102   -2.7094 O   0  0  0  0  0  0  0  0  0  0  0  0
  -32.2559    0.6139   -3.8421 O   0  0  0  0  0  0  0  0  0  0  0  0
   -6.2820    0.9021    2.5452 H   0  0  0  0  0  0  0  0  0  0  0  0
    0.2417    2.7935    4.6428 H   0  0  0  0  0  0  0  0  0  0  0  0
   -0.6622    4.6074    6.3037 H   0  0  0  0  0  0  0  0  0  0  0  0
   -4.0623   -5.3024   -2.7329 H   0  0  0  0  0  0  0  0  0  0  0  0
   -2.6871   -4.5601   -1.8596 H   0  0  0  0  0  0  0  0  0  0  0  0
   -4.0128   -3.4354   -4.3814 H   0  0  0  0  0  0  0  0  0  0  0  0
   -2.4469   -4.2544   -4.3282 H   0  0  0  0  0  0  0  0  0  0  0  0
   -2.6547   -2.6975   -3.5166 H   0  0  0  0  0  0  0  0  0  0  0  0
   -6.4032    0.9607    4.8992 H   0  0  0  0  0  0  0  0  0  0  0  0
   -7.2444    2.4528    5.3972 H   0  0  0  0  0  0  0  0  0  0  0  0
   -4.6847    1.3267    6.6558 H   0  0  0  0  0  0  0  0  0  0  0  0
   -6.3012    1.2775    7.3718 H   0  0  0  0  0  0  0  0  0  0  0  0
   -5.4785    2.8294    7.1389 H   0  0  0  0  0  0  0  0  0  0  0  0
   -0.5779    0.2246    0.9895 H   0  0  0  0  0  0  0  0  0  0  0  0
   -0.6234   -1.0254    2.2577 H   0  0  0  0  0  0  0  0  0  0  0  0
    1.7816    0.7467    1.5981 H   0  0  0  0  0  0  0  0  0  0  0  0
    1.6000   -0.9584    1.1542 H   0  0  0  0  0  0  0  0  0  0  0  0
    1.7372   -0.4901    2.8570 H   0  0  0  0  0  0  0  0  0  0  0  0
  -15.4808   -2.4175   -2.3956 H   0  0  0  0  0  0  0  0  0  0  0  0
   -8.5423   -3.9345   -2.5545 H   0  0  0  0  0  0  0  0  0  0  0  0
  -17.8641   -7.4161   -8.7816 H   0  0  0  0  0  0  0  0  0  0  0  0
  -16.1524   -7.6222   -8.2997 H   0  0  0  0  0  0  0  0  0  0  0  0
  -17.2431   -5.3685  -10.0640 H   0  0  0  0  0  0  0  0  0  0  0  0
  -16.3220   -6.7636  -10.6391 H   0  0  0  0  0  0  0  0  0  0  0  0
  -15.5510   -5.5744   -9.5826 H   0  0  0  0  0  0  0  0  0  0  0  0
  -14.8918   -2.7857   -0.1210 H   0  0  0  0  0  0  0  0  0  0  0  0
  -14.7819   -1.1963    0.6815 H   0  0  0  0  0  0  0  0  0  0  0  0
  -12.7857   -3.5044    0.9862 H   0  0  0  0  0  0  0  0  0  0  0  0
  -13.9755   -2.9958    2.1918 H   0  0  0  0  0  0  0  0  0  0  0  0
  -12.6353   -1.9216    1.7573 H   0  0  0  0  0  0  0  0  0  0  0  0
  -11.4427   -5.2988   -5.7676 H   0  0  0  0  0  0  0  0  0  0  0  0
  -11.7326   -6.5364   -4.5198 H   0  0  0  0  0  0  0  0  0  0  0  0
   -9.0466   -5.9907   -5.8790 H   0  0  0  0  0  0  0  0  0  0  0  0
  -10.1238   -7.3518   -6.2383 H   0  0  0  0  0  0  0  0  0  0  0  0
   -9.3402   -7.2226   -4.6534 H   0  0  0  0  0  0  0  0  0  0  0  0
  -26.3493   -0.9738   -3.7331 H   0  0  0  0  0  0  0  0  0  0  0  0
  -20.9813   -4.5324   -6.8482 H   0  0  0  0  0  0  0  0  0  0  0  0
  -31.7982   -1.3433   -6.5549 H   0  0  0  0  0  0  0  0  0  0  0  0
  -31.0866    2.0666   -2.0971 H   0  0  0  0  0  0  0  0  0  0  0  0
  -29.3647    1.8616   -1.6544 H   0  0  0  0  0  0  0  0  0  0  0  0
  -31.6422   -0.0369   -0.8840 H   0  0  0  0  0  0  0  0  0  0  0  0
  -30.8615    1.1172    0.2033 H   0  0  0  0  0  0  0  0  0  0  0  0
  -29.9385   -0.2437   -0.4454 H   0  0  0  0  0  0  0  0  0  0  0  0
  -25.2015   -1.7614   -1.9440 H   0  0  0  0  0  0  0  0  0  0  0  0
  -25.0184   -0.0417   -2.3955 H   0  0  0  0  0  0  0  0  0  0  0  0
  -23.3518   -1.5152   -0.2980 H   0  0  0  0  0  0  0  0  0  0  0  0
  -24.6318   -0.3318    0.0239 H   0  0  0  0  0  0  0  0  0  0  0  0
  -23.1342    0.1680   -0.7792 H   0  0  0  0  0  0  0  0  0  0  0  0
  -24.9691   -3.7307   -8.8554 H   0  0  0  0  0  0  0  0  0  0  0  0
  -25.3769   -5.1853   -7.9050 H   0  0  0  0  0  0  0  0  0  0  0  0
  -23.2005   -5.0205  -10.0481 H   0  0  0  0  0  0  0  0  0  0  0  0
  -24.7877   -5.7830  -10.2510 H   0  0  0  0  0  0  0  0  0  0  0  0
  -23.6074   -6.4576   -9.1133 H   0  0  0  0  0  0  0  0  0  0  0  0
  1 13  1  0  0  0  0
  1  6  2  0  0  0  0
  2  1  1  0  0  0  0
  3  2  2  0  0  0  0
  3  4  1  0  0  0  0
  4  5  2  0  0  0  0
  5  6  1  0  0  0  0
  5 10  1  0  0  0  0
  6 12  1  0  0  0  0
  7 91  1  0  0  0  0
  7  2  1  0  0  0  0
  8  7  2  0  0  0  0
  9  8  1  0  0  0  0
  9  3  1  0  0  0  0
 10 11  2  0  0  0  0
 11 12  1  0  0  0  0
 11 93  1  0  0  0  0
 13 24  1  0  0  0  0
 14  4  1  0  0  0  0
 15 16  1  0  0  0  0
 15  8  1  0  0  0  0
 17 16  1  0  0  0  0
 18 17  2  0  0  0  0
 18 19  1  0  0  0  0
 19 15  2  0  0  0  0
 20 21  1  0  0  0  0
 20 18  1  0  0  0  0
 21 28  1  0  0  0  0
 22 95  1  0  0  0  0
 22 21  1  0  0  0  0
 23 98  1  0  0  0  0
 23 22  1  0  0  0  0
 24100  1  0  0  0  0
 24 25  1  0  0  0  0
 25103  1  0  0  0  0
 25102  1  0  0  0  0
 26105  1  0  0  0  0
 26 14  1  0  0  0  0
 27 26  1  0  0  0  0
 27108  1  0  0  0  0
 28 29  2  0  0  0  0
 28 19  1  0  0  0  0
 30 20  2  0  0  0  0
 31 36  1  0  0  0  0
 31 43  1  0  0  0  0
 32 31  2  0  0  0  0
 33 34  2  0  0  0  0
 33 32  1  0  0  0  0
 34 35  1  0  0  0  0
 35 40  1  0  0  0  0
 35 36  2  0  0  0  0
 36 42  1  0  0  0  0
 37 32  1  0  0  0  0
 37109  1  0  0  0  0
 38 37  2  0  0  0  0
 39 38  1  0  0  0  0
 39 33  1  0  0  0  0
 40 41  2  0  0  0  0
 41 17  1  0  0  0  0
 41 42  1  0  0  0  0
 43 54  1  0  0  0  0
 44 34  1  0  0  0  0
 45 38  1  0  0  0  0
 45 46  1  0  0  0  0
 47 46  1  0  0  0  0
 48 49  1  0  0  0  0
 48 47  2  0  0  0  0
 49 45  2  0  0  0  0
 50 48  1  0  0  0  0
 51 50  1  0  0  0  0
 51 58  1  0  0  0  0
 52112  1  0  0  0  0
 52 51  1  0  0  0  0
 53115  1  0  0  0  0
 53 52  1  0  0  0  0
 54117  1  0  0  0  0
 54 55  1  0  0  0  0
 55120  1  0  0  0  0
 55119  1  0  0  0  0
 56122  1  0  0  0  0
 56 44  1  0  0  0  0
 57 56  1  0  0  0  0
 57125  1  0  0  0  0
 58 49  1  0  0  0  0
 59 58  2  0  0  0  0
 60 50  2  0  0  0  0
 61 73  1  0  0  0  0
 62 67  1  0  0  0  0
 62 61  2  0  0  0  0
 63 62  1  0  0  0  0
 64 63  2  0  0  0  0
 64 65  1  0  0  0  0
 65 66  2  0  0  0  0
 66 61  1  0  0  0  0
 66 72  1  0  0  0  0
 67126  1  0  0  0  0
 68 67  2  0  0  0  0
 69 63  1  0  0  0  0
 69 68  1  0  0  0  0
 70 65  1  0  0  0  0
 70 71  2  0  0  0  0
 71 47  1  0  0  0  0
 71 72  1  0  0  0  0
 73 84  1  0  0  0  0
 74 64  1  0  0  0  0
 75 68  1  0  0  0  0
 75 79  2  0  0  0  0
 76 77  1  0  0  0  0
 76 75  1  0  0  0  0
 77 78  2  0  0  0  0
 78 79  1  0  0  0  0
 78 80  1  0  0  0  0
 79 88  1  0  0  0  0
 80 90  2  0  0  0  0
 80 81  1  0  0  0  0
 81 82  1  0  0  0  0
 82130  1  0  0  0  0
 82 83  1  0  0  0  0
 83133  1  0  0  0  0
 83132  1  0  0  0  0
 84134  1  0  0  0  0
 84 85  1  0  0  0  0
 85136  1  0  0  0  0
 85137  1  0  0  0  0
 86140  1  0  0  0  0
 86 74  1  0  0  0  0
 87143  1  0  0  0  0
 87 86  1  0  0  0  0
 88 81  1  0  0  0  0
 88 89  2  0  0  0  0
 92 10  1  0  0  0  0
 94 22  1  0  0  0  0
 96 23  1  0  0  0  0
 97 23  1  0  0  0  0
 99 24  1  0  0  0  0
101 25  1  0  0  0  0
104 26  1  0  0  0  0
106 27  1  0  0  0  0
107 27  1  0  0  0  0
110 40  1  0  0  0  0
111 52  1  0  0  0  0
113 53  1  0  0  0  0
114 53  1  0  0  0  0
116 54  1  0  0  0  0
118 55  1  0  0  0  0
121 56  1  0  0  0  0
123 57  1  0  0  0  0
124 57  1  0  0  0  0
127 70  1  0  0  0  0
128 77  1  0  0  0  0
129 82  1  0  0  0  0
131 83  1  0  0  0  0
135 84  1  0  0  0  0
138 85  1  0  0  0  0
139 86  1  0  0  0  0
141 87  1  0  0  0  0
142 87  1  0  0  0  0
M  END
