SCF done       -360.998184855451          0.000600515318
 OpenBabel12282109573D

221244  0  0  0  0  0  0  0  0999 V2000
    0.7046   13.2094    5.3733 C   0  0  0  0  0  0  0  0  0  0  0  0
    0.9522   14.5153    5.8308 C   0  0  0  0  0  0  0  0  0  0  0  0
    2.2524   15.0643    5.7448 C   0  0  0  0  0  0  0  0  0  0  0  0
    3.3454   14.3753    5.2243 C   0  0  0  0  0  0  0  0  0  0  0  0
    3.1061   13.0500    4.8106 C   0  0  0  0  0  0  0  0  0  0  0  0
    1.8035   12.5043    4.8975 C   0  0  0  0  0  0  0  0  0  0  0  0
    0.0284   15.4342    6.4109 C   0  0  0  0  0  0  0  0  0  0  0  0
    0.5886   16.6215    6.7151 C   0  0  0  0  0  0  0  0  0  0  0  0
    2.2736   16.7073    6.3329 S   0  0  0  0  0  0  0  0  0  0  0  0
    4.0298   12.1115    4.2916 C   0  0  0  0  0  0  0  0  0  0  0  0
    3.4771   10.9100    3.9478 C   0  0  0  0  0  0  0  0  0  0  0  0
    1.7576   10.8772    4.2817 S   0  0  0  0  0  0  0  0  0  0  0  0
   -0.6296   12.6416    5.3758 C   0  0  0  0  0  0  0  0  0  0  0  0
    4.6408   15.0094    5.0944 C   0  0  0  0  0  0  0  0  0  0  0  0
   -1.8005   13.2287    4.9893 C   0  0  0  0  0  0  0  0  0  0  0  0
   -2.9151   12.3721    5.0958 C   0  0  0  0  0  0  0  0  0  0  0  0
   -2.6046   11.1361    5.5717 C   0  0  0  0  0  0  0  0  0  0  0  0
   -0.9062   11.0016    5.8904 S   0  0  0  0  0  0  0  0  0  0  0  0
    5.2508   15.8753    5.9587 C   0  0  0  0  0  0  0  0  0  0  0  0
    6.4945   16.3457    5.4942 C   0  0  0  0  0  0  0  0  0  0  0  0
    6.8359   15.8615    4.2691 C   0  0  0  0  0  0  0  0  0  0  0  0
    5.6184   14.7869    3.6679 S   0  0  0  0  0  0  0  0  0  0  0  0
   -3.5024    9.9676    5.7912 C   0  0  0  0  0  0  0  0  0  0  0  0
   -3.1865    8.8349    4.8129 C   0  0  0  0  0  0  0  0  0  0  0  0
    8.0781   16.1038    3.4835 C   0  0  0  0  0  0  0  0  0  0  0  0
    8.9956   14.8793    3.5085 C   0  0  0  0  0  0  0  0  0  0  0  0
    4.1795    9.8019    3.3864 C   0  0  0  0  0  0  0  0  0  0  0  0
    5.9119    9.9435    3.2256 S   0  0  0  0  0  0  0  0  0  0  0  0
    6.0135    8.3802    2.4872 C   0  0  0  0  0  0  0  0  0  0  0  0
    4.7713    7.8001    2.3861 C   0  0  0  0  0  0  0  0  0  0  0  0
    3.7281    8.5898    2.8911 C   0  0  0  0  0  0  0  0  0  0  0  0
    2.3119    8.1072    2.8945 C   0  0  0  0  0  0  0  0  0  0  0  0
    1.9603    7.4451    4.2281 C   0  0  0  0  0  0  0  0  0  0  0  0
    7.2417    7.8328    2.0322 C   0  0  0  0  0  0  0  0  0  0  0  0
    7.3309    6.7308    1.3486 N   0  0  0  0  0  0  0  0  0  0  0  0
    8.5478    6.4049    1.0002 N   0  0  0  0  0  0  0  0  0  0  0  0
    9.4648    7.2348    1.4008 C   0  0  0  0  0  0  0  0  0  0  0  0
    8.8079    8.5901    2.3161 S   0  0  0  0  0  0  0  0  0  0  0  0
   10.8452    7.0832    1.1055 C   0  0  0  0  0  0  0  0  0  0  0  0
   12.0645    8.0897    1.8104 S   0  0  0  0  0  0  0  0  0  0  0  0
   13.3122    7.2610    0.9187 C   0  0  0  0  0  0  0  0  0  0  0  0
   12.7858    6.2572    0.1187 C   0  0  0  0  0  0  0  0  0  0  0  0
   11.3930    6.1639    0.2407 C   0  0  0  0  0  0  0  0  0  0  0  0
   13.6198    5.3783   -0.7619 C   0  0  0  0  0  0  0  0  0  0  0  0
   12.8425    4.2459   -1.4207 C   0  0  0  0  0  0  0  0  0  0  0  0
   17.2862    9.5725    2.8854 C   0  0  0  0  0  0  0  0  0  0  0  0
   16.5068    8.7845    2.0140 C   0  0  0  0  0  0  0  0  0  0  0  0
   17.1127    8.1351    0.9115 C   0  0  0  0  0  0  0  0  0  0  0  0
   18.4611    8.2506    0.5977 C   0  0  0  0  0  0  0  0  0  0  0  0
   19.2226    9.1023    1.4234 C   0  0  0  0  0  0  0  0  0  0  0  0
   18.6252    9.7244    2.5461 C   0  0  0  0  0  0  0  0  0  0  0  0
   15.1166    8.5315    2.0727 C   0  0  0  0  0  0  0  0  0  0  0  0
   14.6621    7.6805    1.1039 C   0  0  0  0  0  0  0  0  0  0  0  0
   15.9585    7.1603    0.0448 S   0  0  0  0  0  0  0  0  0  0  0  0
   20.5845    9.4566    1.2898 C   0  0  0  0  0  0  0  0  0  0  0  0
   21.0519   10.2697    2.2848 C   0  0  0  0  0  0  0  0  0  0  0  0
   19.7932   10.6563    3.4423 S   0  0  0  0  0  0  0  0  0  0  0  0
   16.7151   10.1616    4.0785 C   0  0  0  0  0  0  0  0  0  0  0  0
   19.0677    7.5309   -0.5027 C   0  0  0  0  0  0  0  0  0  0  0  0
   15.8383    9.5949    4.9608 C   0  0  0  0  0  0  0  0  0  0  0  0
   15.5017   10.4424    6.0347 C   0  0  0  0  0  0  0  0  0  0  0  0
   16.1079   11.6591    5.9753 C   0  0  0  0  0  0  0  0  0  0  0  0
   17.1299   11.7766    4.5802 S   0  0  0  0  0  0  0  0  0  0  0  0
   20.2775    6.8955   -0.5337 C   0  0  0  0  0  0  0  0  0  0  0  0
   20.5540    6.2821   -1.7715 C   0  0  0  0  0  0  0  0  0  0  0  0
   19.5672    6.4523   -2.6928 C   0  0  0  0  0  0  0  0  0  0  0  0
   18.2544    7.3724   -2.0346 S   0  0  0  0  0  0  0  0  0  0  0  0
   16.0184   12.7921    6.9382 C   0  0  0  0  0  0  0  0  0  0  0  0
   17.3364   12.9844    7.6908 C   0  0  0  0  0  0  0  0  0  0  0  0
   19.4921    5.9288   -4.0854 C   0  0  0  0  0  0  0  0  0  0  0  0
   18.4565    4.8083   -4.1995 C   0  0  0  0  0  0  0  0  0  0  0  0
   22.3833   10.7654    2.3995 C   0  0  0  0  0  0  0  0  0  0  0  0
   23.4776   10.4785    1.0736 S   0  0  0  0  0  0  0  0  0  0  0  0
   24.7659   11.2658    1.9209 C   0  0  0  0  0  0  0  0  0  0  0  0
   24.3523   11.7175    3.1528 C   0  0  0  0  0  0  0  0  0  0  0  0
   23.0055   11.4496    3.4339 C   0  0  0  0  0  0  0  0  0  0  0  0
   22.3072   11.8414    4.6998 C   0  0  0  0  0  0  0  0  0  0  0  0
   23.2097   12.5201    5.7221 C   0  0  0  0  0  0  0  0  0  0  0  0
   26.0682   11.3836    1.3677 C   0  0  0  0  0  0  0  0  0  0  0  0
   27.1088   11.7849    2.0347 N   0  0  0  0  0  0  0  0  0  0  0  0
   28.2186   11.8145    1.3438 N   0  0  0  0  0  0  0  0  0  0  0  0
   28.0927   11.4446    0.1041 C   0  0  0  0  0  0  0  0  0  0  0  0
   26.4406   10.9935   -0.3111 S   0  0  0  0  0  0  0  0  0  0  0  0
   29.1714   11.3823   -0.8174 C   0  0  0  0  0  0  0  0  0  0  0  0
   28.9249   11.1299   -2.5126 S   0  0  0  0  0  0  0  0  0  0  0  0
   30.6427   11.1762   -2.8044 C   0  0  0  0  0  0  0  0  0  0  0  0
   31.3535   11.3737   -1.6298 C   0  0  0  0  0  0  0  0  0  0  0  0
   30.5091   11.4982   -0.5181 C   0  0  0  0  0  0  0  0  0  0  0  0
   32.8485   11.4496   -1.5723 C   0  0  0  0  0  0  0  0  0  0  0  0
   33.3972   11.8292   -0.2029 C   0  0  0  0  0  0  0  0  0  0  0  0
   30.5316   10.9365   -7.7952 C   0  0  0  0  0  0  0  0  0  0  0  0
   31.0301   10.8882   -6.4776 C   0  0  0  0  0  0  0  0  0  0  0  0
   32.4000   10.6171   -6.2462 C   0  0  0  0  0  0  0  0  0  0  0  0
   33.3151   10.3523   -7.2597 C   0  0  0  0  0  0  0  0  0  0  0  0
   32.8013   10.3364   -8.5725 C   0  0  0  0  0  0  0  0  0  0  0  0
   31.4357   10.6300   -8.8047 C   0  0  0  0  0  0  0  0  0  0  0  0
   30.3195   11.0805   -5.2699 C   0  0  0  0  0  0  0  0  0  0  0  0
   31.0975   11.0260   -4.1476 C   0  0  0  0  0  0  0  0  0  0  0  0
   32.7749   10.7029   -4.5459 S   0  0  0  0  0  0  0  0  0  0  0  0
   33.4836   10.0433   -9.7757 C   0  0  0  0  0  0  0  0  0  0  0  0
   32.7106   10.1424  -10.8988 C   0  0  0  0  0  0  0  0  0  0  0  0
   31.0658   10.5980  -10.5053 S   0  0  0  0  0  0  0  0  0  0  0  0
   29.1634   11.3213   -8.0707 C   0  0  0  0  0  0  0  0  0  0  0  0
   34.7142   10.1204   -6.9667 C   0  0  0  0  0  0  0  0  0  0  0  0
   28.4342   12.3184   -7.4849 C   0  0  0  0  0  0  0  0  0  0  0  0
   27.1375   12.4491   -8.0195 C   0  0  0  0  0  0  0  0  0  0  0  0
   26.8650   11.5517   -9.0054 C   0  0  0  0  0  0  0  0  0  0  0  0
   28.2272   10.5228   -9.3030 S   0  0  0  0  0  0  0  0  0  0  0  0
   35.2525    9.4322   -5.9151 C   0  0  0  0  0  0  0  0  0  0  0  0
   36.6609    9.4289   -5.9109 C   0  0  0  0  0  0  0  0  0  0  0  0
   37.2089   10.1263   -6.9430 C   0  0  0  0  0  0  0  0  0  0  0  0
   35.9773   10.7954   -7.9601 S   0  0  0  0  0  0  0  0  0  0  0  0
   25.6270   11.4118   -9.8218 C   0  0  0  0  0  0  0  0  0  0  0  0
   25.8658   11.8563  -11.2661 C   0  0  0  0  0  0  0  0  0  0  0  0
   38.6472   10.3080   -7.2850 C   0  0  0  0  0  0  0  0  0  0  0  0
   39.0352    9.4710   -8.5060 C   0  0  0  0  0  0  0  0  0  0  0  0
   33.1465    9.8844  -12.2324 C   0  0  0  0  0  0  0  0  0  0  0  0
   34.7627    9.2601  -12.4453 S   0  0  0  0  0  0  0  0  0  0  0  0
   34.5610    9.2069  -14.1645 C   0  0  0  0  0  0  0  0  0  0  0  0
   33.3145    9.6568  -14.5299 C   0  0  0  0  0  0  0  0  0  0  0  0
   32.5072   10.0447  -13.4505 C   0  0  0  0  0  0  0  0  0  0  0  0
   31.1096   10.5380  -13.6552 C   0  0  0  0  0  0  0  0  0  0  0  0
   30.1036    9.3880  -13.5795 C   0  0  0  0  0  0  0  0  0  0  0  0
   35.5832    8.7430  -15.0341 C   0  0  0  0  0  0  0  0  0  0  0  0
   35.4600    8.6752  -16.3256 N   0  0  0  0  0  0  0  0  0  0  0  0
   36.5136    8.2119  -16.9478 N   0  0  0  0  0  0  0  0  0  0  0  0
   37.5051    7.8975  -16.1703 C   0  0  0  0  0  0  0  0  0  0  0  0
   37.1577    8.1868  -14.4679 S   0  0  0  0  0  0  0  0  0  0  0  0
   38.7397    7.3698  -16.6417 C   0  0  0  0  0  0  0  0  0  0  0  0
   40.0500    6.9774  -15.5727 S   0  0  0  0  0  0  0  0  0  0  0  0
   41.0061    6.4577  -16.8988 C   0  0  0  0  0  0  0  0  0  0  0  0
   40.3645    6.5718  -18.0980 C   0  0  0  0  0  0  0  0  0  0  0  0
   39.0650    7.0979  -17.9469 C   0  0  0  0  0  0  0  0  0  0  0  0
   40.9710    6.2261  -19.4214 C   0  0  0  0  0  0  0  0  0  0  0  0
   41.4073    7.4901  -20.1636 C   0  0  0  0  0  0  0  0  0  0  0  0
   -1.0011   15.1938    6.6026 H   0  0  0  0  0  0  0  0  0  0  0  0
    0.1212   17.4782    7.1599 H   0  0  0  0  0  0  0  0  0  0  0  0
    5.0804   12.3078    4.1776 H   0  0  0  0  0  0  0  0  0  0  0  0
   -1.8552   14.2294    4.5987 H   0  0  0  0  0  0  0  0  0  0  0  0
   -3.9142   12.6663    4.8259 H   0  0  0  0  0  0  0  0  0  0  0  0
    4.8401   16.1405    6.9160 H   0  0  0  0  0  0  0  0  0  0  0  0
    7.1137   17.0266    6.0512 H   0  0  0  0  0  0  0  0  0  0  0  0
   -4.5376   10.2910    5.6628 H   0  0  0  0  0  0  0  0  0  0  0  0
   -3.3837    9.5995    6.8137 H   0  0  0  0  0  0  0  0  0  0  0  0
   -3.3150    9.1739    3.7874 H   0  0  0  0  0  0  0  0  0  0  0  0
   -3.8481    7.9899    4.9863 H   0  0  0  0  0  0  0  0  0  0  0  0
   -2.1577    8.5057    4.9409 H   0  0  0  0  0  0  0  0  0  0  0  0
    8.5996   16.9648    3.9072 H   0  0  0  0  0  0  0  0  0  0  0  0
    7.8195   16.3354    2.4471 H   0  0  0  0  0  0  0  0  0  0  0  0
    9.2744   14.6365    4.5316 H   0  0  0  0  0  0  0  0  0  0  0  0
    9.9002   15.0735    2.9379 H   0  0  0  0  0  0  0  0  0  0  0  0
    8.4889   14.0196    3.0756 H   0  0  0  0  0  0  0  0  0  0  0  0
    4.6354    6.8273    1.9501 H   0  0  0  0  0  0  0  0  0  0  0  0
    2.1940    7.3785    2.0903 H   0  0  0  0  0  0  0  0  0  0  0  0
    1.6264    8.9346    2.7063 H   0  0  0  0  0  0  0  0  0  0  0  0
    2.6235    6.6042    4.4180 H   0  0  0  0  0  0  0  0  0  0  0  0
    0.9356    7.0833    4.2068 H   0  0  0  0  0  0  0  0  0  0  0  0
    2.0576    8.1549    5.0456 H   0  0  0  0  0  0  0  0  0  0  0  0
   10.7727    5.4603   -0.2805 H   0  0  0  0  0  0  0  0  0  0  0  0
   14.4350    4.9561   -0.1666 H   0  0  0  0  0  0  0  0  0  0  0  0
   14.0827    5.9967   -1.5376 H   0  0  0  0  0  0  0  0  0  0  0  0
   12.3674    3.6170   -0.6716 H   0  0  0  0  0  0  0  0  0  0  0  0
   13.5223    3.6296   -2.0043 H   0  0  0  0  0  0  0  0  0  0  0  0
   12.0785    4.6357   -2.0885 H   0  0  0  0  0  0  0  0  0  0  0  0
   14.4617    8.9793    2.7983 H   0  0  0  0  0  0  0  0  0  0  0  0
   21.2032    9.1360    0.4711 H   0  0  0  0  0  0  0  0  0  0  0  0
   15.4803    8.5852    4.8673 H   0  0  0  0  0  0  0  0  0  0  0  0
   14.8304   10.1561    6.8252 H   0  0  0  0  0  0  0  0  0  0  0  0
   20.9303    6.8311    0.3184 H   0  0  0  0  0  0  0  0  0  0  0  0
   21.4581    5.7341   -1.9705 H   0  0  0  0  0  0  0  0  0  0  0  0
   15.2135   12.5872    7.6472 H   0  0  0  0  0  0  0  0  0  0  0  0
   15.7757   13.7130    6.4018 H   0  0  0  0  0  0  0  0  0  0  0  0
   17.5899   12.0839    8.2458 H   0  0  0  0  0  0  0  0  0  0  0  0
   17.2552   13.8132    8.3895 H   0  0  0  0  0  0  0  0  0  0  0  0
   18.1409   13.1957    6.9898 H   0  0  0  0  0  0  0  0  0  0  0  0
   20.4763    5.5537   -4.3737 H   0  0  0  0  0  0  0  0  0  0  0  0
   19.2201    6.7376   -4.7683 H   0  0  0  0  0  0  0  0  0  0  0  0
   18.7168    3.9842   -3.5390 H   0  0  0  0  0  0  0  0  0  0  0  0
   18.4128    4.4367   -5.2201 H   0  0  0  0  0  0  0  0  0  0  0  0
   17.4724    5.1774   -3.9194 H   0  0  0  0  0  0  0  0  0  0  0  0
   25.0302   12.2282    3.8095 H   0  0  0  0  0  0  0  0  0  0  0  0
   21.8644   10.9466    5.1481 H   0  0  0  0  0  0  0  0  0  0  0  0
   21.4786   12.5115    4.4496 H   0  0  0  0  0  0  0  0  0  0  0  0
   24.0331   11.8686    6.0044 H   0  0  0  0  0  0  0  0  0  0  0  0
   22.6356   12.7525    6.6159 H   0  0  0  0  0  0  0  0  0  0  0  0
   23.6147   13.4481    5.3263 H   0  0  0  0  0  0  0  0  0  0  0  0
   30.8365   11.6615    0.4907 H   0  0  0  0  0  0  0  0  0  0  0  0
   33.1931   12.1772   -2.3131 H   0  0  0  0  0  0  0  0  0  0  0  0
   33.2597   10.4792   -1.8684 H   0  0  0  0  0  0  0  0  0  0  0  0
   33.0042   12.7912    0.1171 H   0  0  0  0  0  0  0  0  0  0  0  0
   34.4811   11.9010   -0.2526 H   0  0  0  0  0  0  0  0  0  0  0  0
   33.1396   11.0790    0.5406 H   0  0  0  0  0  0  0  0  0  0  0  0
   29.2570   11.2390   -5.2258 H   0  0  0  0  0  0  0  0  0  0  0  0
   34.5178    9.7538   -9.8209 H   0  0  0  0  0  0  0  0  0  0  0  0
   28.8309   12.9696   -6.7266 H   0  0  0  0  0  0  0  0  0  0  0  0
   26.4312   13.1873   -7.6824 H   0  0  0  0  0  0  0  0  0  0  0  0
   34.6594    8.9089   -5.1872 H   0  0  0  0  0  0  0  0  0  0  0  0
   37.2482    8.9261   -5.1629 H   0  0  0  0  0  0  0  0  0  0  0  0
   24.8390   12.0200   -9.3726 H   0  0  0  0  0  0  0  0  0  0  0  0
   25.2989   10.3692   -9.8185 H   0  0  0  0  0  0  0  0  0  0  0  0
   26.1786   12.8977  -11.2945 H   0  0  0  0  0  0  0  0  0  0  0  0
   24.9550   11.7501  -11.8500 H   0  0  0  0  0  0  0  0  0  0  0  0
   26.6457   11.2494  -11.7208 H   0  0  0  0  0  0  0  0  0  0  0  0
   39.2525   10.0102   -6.4261 H   0  0  0  0  0  0  0  0  0  0  0  0
   38.8462   11.3617   -7.4962 H   0  0  0  0  0  0  0  0  0  0  0  0
   38.8586    8.4153   -8.3126 H   0  0  0  0  0  0  0  0  0  0  0  0
   40.0873    9.6107   -8.7406 H   0  0  0  0  0  0  0  0  0  0  0  0
   38.4438    9.7671   -9.3696 H   0  0  0  0  0  0  0  0  0  0  0  0
   33.0082    9.7009  -15.5591 H   0  0  0  0  0  0  0  0  0  0  0  0
   31.0491   11.0025  -14.6413 H   0  0  0  0  0  0  0  0  0  0  0  0
   30.8584   11.2924  -12.9083 H   0  0  0  0  0  0  0  0  0  0  0  0
   30.3311    8.6380  -14.3336 H   0  0  0  0  0  0  0  0  0  0  0  0
   29.0969    9.7606  -13.7503 H   0  0  0  0  0  0  0  0  0  0  0  0
   30.1343    8.9164  -12.6007 H   0  0  0  0  0  0  0  0  0  0  0  0
   41.9965    6.0895  -16.7155 H   0  0  0  0  0  0  0  0  0  0  0  0
   38.3775    7.2715  -18.7538 H   0  0  0  0  0  0  0  0  0  0  0  0
   40.2350    5.6895  -20.0237 H   0  0  0  0  0  0  0  0  0  0  0  0
   41.8330    5.5741  -19.2701 H   0  0  0  0  0  0  0  0  0  0  0  0
   40.5567    8.1477  -20.3259 H   0  0  0  0  0  0  0  0  0  0  0  0
   41.8367    7.2323  -21.1286 H   0  0  0  0  0  0  0  0  0  0  0  0
   42.1531    8.0303  -19.5847 H   0  0  0  0  0  0  0  0  0  0  0  0
  1 13  1  0  0  0  0
  1  2  2  0  0  0  0
  2  7  1  0  0  0  0
  3  2  1  0  0  0  0
  3  9  1  0  0  0  0
  4  3  2  0  0  0  0
  5  6  2  0  0  0  0
  5  4  1  0  0  0  0
  6  1  1  0  0  0  0
  7136  1  0  0  0  0
  7  8  2  0  0  0  0
  8137  1  0  0  0  0
  9  8  1  0  0  0  0
 10  5  1  0  0  0  0
 11 12  1  0  0  0  0
 11 10  2  0  0  0  0
 12  6  1  0  0  0  0
 13 18  1  0  0  0  0
 14  4  1  0  0  0  0
 14 19  2  0  0  0  0
 15 16  1  0  0  0  0
 15 13  2  0  0  0  0
 16 17  2  0  0  0  0
 17 23  1  0  0  0  0
 17 18  1  0  0  0  0
 19141  1  0  0  0  0
 20 19  1  0  0  0  0
 20142  1  0  0  0  0
 21 20  2  0  0  0  0
 22 21  1  0  0  0  0
 22 14  1  0  0  0  0
 23144  1  0  0  0  0
 24147  1  0  0  0  0
 24146  1  0  0  0  0
 24 23  1  0  0  0  0
 25 26  1  0  0  0  0
 25148  1  0  0  0  0
 25 21  1  0  0  0  0
 26150  1  0  0  0  0
 27 11  1  0  0  0  0
 28 27  1  0  0  0  0
 29 28  1  0  0  0  0
 30 29  2  0  0  0  0
 30 31  1  0  0  0  0
 31 32  1  0  0  0  0
 31 27  2  0  0  0  0
 32 33  1  0  0  0  0
 33156  1  0  0  0  0
 33158  1  0  0  0  0
 34 38  1  0  0  0  0
 34 29  1  0  0  0  0
 35 34  2  0  0  0  0
 36 35  1  0  0  0  0
 36 37  2  0  0  0  0
 37 38  1  0  0  0  0
 39 37  1  0  0  0  0
 39 40  1  0  0  0  0
 41 53  1  0  0  0  0
 41 40  1  0  0  0  0
 42 43  1  0  0  0  0
 42 41  2  0  0  0  0
 43 39  2  0  0  0  0
 44160  1  0  0  0  0
 44 42  1  0  0  0  0
 45 44  1  0  0  0  0
 45162  1  0  0  0  0
 46 58  1  0  0  0  0
 47 52  1  0  0  0  0
 47 46  2  0  0  0  0
 48 47  1  0  0  0  0
 49 48  2  0  0  0  0
 49 50  1  0  0  0  0
 50 51  2  0  0  0  0
 51 46  1  0  0  0  0
 51 57  1  0  0  0  0
 52165  1  0  0  0  0
 53 52  2  0  0  0  0
 54 48  1  0  0  0  0
 54 53  1  0  0  0  0
 55 50  1  0  0  0  0
 55 56  2  0  0  0  0
 56 72  1  0  0  0  0
 56 57  1  0  0  0  0
 58 63  1  0  0  0  0
 58 60  2  0  0  0  0
 59 49  1  0  0  0  0
 60 61  1  0  0  0  0
 61168  1  0  0  0  0
 62 61  2  0  0  0  0
 62 68  1  0  0  0  0
 63 62  1  0  0  0  0
 64 59  2  0  0  0  0
 64169  1  0  0  0  0
 65 64  1  0  0  0  0
 66 67  1  0  0  0  0
 66 65  2  0  0  0  0
 67 59  1  0  0  0  0
 68171  1  0  0  0  0
 68 69  1  0  0  0  0
 69173  1  0  0  0  0
 69174  1  0  0  0  0
 70 66  1  0  0  0  0
 71 70  1  0  0  0  0
 71180  1  0  0  0  0
 71178  1  0  0  0  0
 72 76  2  0  0  0  0
 73 74  1  0  0  0  0
 73 72  1  0  0  0  0
 74 75  2  0  0  0  0
 75 76  1  0  0  0  0
 75181  1  0  0  0  0
 76 77  1  0  0  0  0
 77182  1  0  0  0  0
 77 78  1  0  0  0  0
 78184  1  0  0  0  0
 78185  1  0  0  0  0
 79 74  1  0  0  0  0
 79 80  2  0  0  0  0
 81 80  1  0  0  0  0
 82 81  2  0  0  0  0
 83 82  1  0  0  0  0
 83 79  1  0  0  0  0
 84 88  2  0  0  0  0
 84 82  1  0  0  0  0
 85 84  1  0  0  0  0
 86 85  1  0  0  0  0
 86 87  2  0  0  0  0
 87 89  1  0  0  0  0
 87 88  1  0  0  0  0
 88187  1  0  0  0  0
 89 90  1  0  0  0  0
 90190  1  0  0  0  0
 90192  1  0  0  0  0
 91 92  2  0  0  0  0
 92 93  1  0  0  0  0
 92 97  1  0  0  0  0
 93 99  1  0  0  0  0
 94104  1  0  0  0  0
 94 93  2  0  0  0  0
 95 94  1  0  0  0  0
 96 95  2  0  0  0  0
 96 91  1  0  0  0  0
 97193  1  0  0  0  0
 97 98  2  0  0  0  0
 98 86  1  0  0  0  0
 99 98  1  0  0  0  0
100 95  1  0  0  0  0
101102  1  0  0  0  0
101100  2  0  0  0  0
102 96  1  0  0  0  0
103 91  1  0  0  0  0
103105  2  0  0  0  0
104109  2  0  0  0  0
105195  1  0  0  0  0
106196  1  0  0  0  0
106105  1  0  0  0  0
107106  2  0  0  0  0
108107  1  0  0  0  0
108103  1  0  0  0  0
109110  1  0  0  0  0
109197  1  0  0  0  0
110198  1  0  0  0  0
111110  2  0  0  0  0
112104  1  0  0  0  0
112111  1  0  0  0  0
113200  1  0  0  0  0
113199  1  0  0  0  0
113107  1  0  0  0  0
114113  1  0  0  0  0
115111  1  0  0  0  0
115204  1  0  0  0  0
116206  1  0  0  0  0
116115  1  0  0  0  0
117101  1  0  0  0  0
118117  1  0  0  0  0
119118  1  0  0  0  0
120119  2  0  0  0  0
120121  1  0  0  0  0
121117  2  0  0  0  0
122123  1  0  0  0  0
122121  1  0  0  0  0
122211  1  0  0  0  0
123214  1  0  0  0  0
124128  1  0  0  0  0
124119  1  0  0  0  0
125124  2  0  0  0  0
126125  1  0  0  0  0
126127  2  0  0  0  0
127128  1  0  0  0  0
129127  1  0  0  0  0
129130  1  0  0  0  0
131215  1  0  0  0  0
131130  1  0  0  0  0
132133  1  0  0  0  0
132131  2  0  0  0  0
133129  2  0  0  0  0
134218  1  0  0  0  0
134132  1  0  0  0  0
135221  1  0  0  0  0
135134  1  0  0  0  0
138 10  1  0  0  0  0
139 15  1  0  0  0  0
140 16  1  0  0  0  0
143 23  1  0  0  0  0
145 24  1  0  0  0  0
149 25  1  0  0  0  0
151 26  1  0  0  0  0
152 26  1  0  0  0  0
153 30  1  0  0  0  0
154 32  1  0  0  0  0
155 32  1  0  0  0  0
157 33  1  0  0  0  0
159 43  1  0  0  0  0
161 44  1  0  0  0  0
163 45  1  0  0  0  0
164 45  1  0  0  0  0
166 55  1  0  0  0  0
167 60  1  0  0  0  0
170 65  1  0  0  0  0
172 68  1  0  0  0  0
175 69  1  0  0  0  0
176 70  1  0  0  0  0
177 70  1  0  0  0  0
179 71  1  0  0  0  0
183 77  1  0  0  0  0
186 78  1  0  0  0  0
188 89  1  0  0  0  0
189 89  1  0  0  0  0
191 90  1  0  0  0  0
194100  1  0  0  0  0
201114  1  0  0  0  0
202114  1  0  0  0  0
203114  1  0  0  0  0
205115  1  0  0  0  0
207116  1  0  0  0  0
208116  1  0  0  0  0
209120  1  0  0  0  0
210122  1  0  0  0  0
212123  1  0  0  0  0
213123  1  0  0  0  0
216133  1  0  0  0  0
217134  1  0  0  0  0
219135  1  0  0  0  0
220135  1  0  0  0  0
M  END
