SCF done       -415.609744744564          0.000791326240
 OpenBabel12282109573D

230256  0  0  0  0  0  0  0  0999 V2000
   -1.7137    5.9197    2.7883 C   0  0  0  0  0  0  0  0  0  0  0  0
   -2.4627    5.0266    1.9980 C   0  0  0  0  0  0  0  0  0  0  0  0
   -1.8107    4.0780    1.1774 C   0  0  0  0  0  0  0  0  0  0  0  0
   -0.4246    3.9626    1.0841 C   0  0  0  0  0  0  0  0  0  0  0  0
    0.3234    4.8907    1.8353 C   0  0  0  0  0  0  0  0  0  0  0  0
   -0.3293    5.8288    2.6704 C   0  0  0  0  0  0  0  0  0  0  0  0
   -3.8815    4.9189    1.8970 C   0  0  0  0  0  0  0  0  0  0  0  0
   -4.2799    3.9251    1.0780 C   0  0  0  0  0  0  0  0  0  0  0  0
   -2.9677    3.0617    0.3573 S   0  0  0  0  0  0  0  0  0  0  0  0
    1.7325    5.0306    1.8861 C   0  0  0  0  0  0  0  0  0  0  0  0
    2.1613    5.9885    2.7569 C   0  0  0  0  0  0  0  0  0  0  0  0
    0.8247    6.7962    3.5518 S   0  0  0  0  0  0  0  0  0  0  0  0
   -2.3227    6.8709    3.6959 C   0  0  0  0  0  0  0  0  0  0  0  0
    0.1943    2.9104    0.3054 C   0  0  0  0  0  0  0  0  0  0  0  0
   -0.2248    2.4166   -0.8981 C   0  0  0  0  0  0  0  0  0  0  0  0
    0.4823    1.3044   -1.4009 C   0  0  0  0  0  0  0  0  0  0  0  0
    1.4861    0.8564   -0.5935 C   0  0  0  0  0  0  0  0  0  0  0  0
    1.6554    1.8900    0.9596 Se  0  0  0  0  0  0  0  0  0  0  0  0
   -1.9190    8.1549    3.9345 C   0  0  0  0  0  0  0  0  0  0  0  0
   -2.6300    8.8591    4.9247 C   0  0  0  0  0  0  0  0  0  0  0  0
   -3.6241    8.1502    5.5363 C   0  0  0  0  0  0  0  0  0  0  0  0
   -3.7501    6.4067    4.8398 Se  0  0  0  0  0  0  0  0  0  0  0  0
    3.5044    6.3698    3.0340 C   0  0  0  0  0  0  0  0  0  0  0  0
    4.8092    5.7678    2.0636 S   0  0  0  0  0  0  0  0  0  0  0  0
    5.9723    6.6497    3.0103 C   0  0  0  0  0  0  0  0  0  0  0  0
    5.3511    7.3578    4.0188 C   0  0  0  0  0  0  0  0  0  0  0  0
    3.9657    7.2077    4.0262 C   0  0  0  0  0  0  0  0  0  0  0  0
    7.3745    6.6222    2.7240 C   0  0  0  0  0  0  0  0  0  0  0  0
    7.9292    6.0222    1.5985 C   0  0  0  0  0  0  0  0  0  0  0  0
    9.2980    6.0160    1.2940 C   0  0  0  0  0  0  0  0  0  0  0  0
   10.2591    6.6094    2.0999 C   0  0  0  0  0  0  0  0  0  0  0  0
    9.7205    7.2164    3.2586 C   0  0  0  0  0  0  0  0  0  0  0  0
    8.3330    7.2309    3.5739 C   0  0  0  0  0  0  0  0  0  0  0  0
   10.3635    7.8531    4.2421 N   0  0  0  0  0  0  0  0  0  0  0  0
    9.4252    8.2047    5.0729 N   0  0  0  0  0  0  0  0  0  0  0  0
    8.2059    7.8758    4.7448 N   0  0  0  0  0  0  0  0  0  0  0  0
   11.6709    6.6325    1.8654 C   0  0  0  0  0  0  0  0  0  0  0  0
    9.7277    8.9261    6.2789 C   0  0  0  0  0  0  0  0  0  0  0  0
   10.9100    8.2898    6.9969 C   0  0  0  0  0  0  0  0  0  0  0  0
   12.4124    6.1277    0.8174 C   0  0  0  0  0  0  0  0  0  0  0  0
   13.7855    6.3311    0.9639 C   0  0  0  0  0  0  0  0  0  0  0  0
   14.1137    6.9950    2.1248 C   0  0  0  0  0  0  0  0  0  0  0  0
   12.6961    7.3813    3.0524 S   0  0  0  0  0  0  0  0  0  0  0  0
    2.5808   -0.4858   -0.8147 S   0  0  0  0  0  0  0  0  0  0  0  0
   -4.6502    8.7909    6.7979 S   0  0  0  0  0  0  0  0  0  0  0  0
   -5.7465    7.3548    7.0931 C   0  0  0  0  0  0  0  0  0  0  0  0
    7.1212    5.4036    0.7142 F   0  0  0  0  0  0  0  0  0  0  0  0
    9.6573    5.3930    0.1548 F   0  0  0  0  0  0  0  0  0  0  0  0
    2.1971   -1.0172   -2.5260 C   0  0  0  0  0  0  0  0  0  0  0  0
   -6.7762    7.6924    8.1510 C   0  0  0  0  0  0  0  0  0  0  0  0
    3.1582   -2.1186   -2.9284 C   0  0  0  0  0  0  0  0  0  0  0  0
   17.5709    8.6865    5.2980 C   0  0  0  0  0  0  0  0  0  0  0  0
   17.0043    8.1409    4.1250 C   0  0  0  0  0  0  0  0  0  0  0  0
   17.8284    7.6382    3.0886 C   0  0  0  0  0  0  0  0  0  0  0  0
   19.2183    7.6642    3.1342 C   0  0  0  0  0  0  0  0  0  0  0  0
   19.7861    8.2376    4.2910 C   0  0  0  0  0  0  0  0  0  0  0  0
   18.9631    8.7149    5.3407 C   0  0  0  0  0  0  0  0  0  0  0  0
   15.6336    7.9830    3.8197 C   0  0  0  0  0  0  0  0  0  0  0  0
   15.3934    7.3403    2.6395 C   0  0  0  0  0  0  0  0  0  0  0  0
   16.8761    6.9367    1.8041 S   0  0  0  0  0  0  0  0  0  0  0  0
   21.1613    8.4032    4.5791 C   0  0  0  0  0  0  0  0  0  0  0  0
   21.4110    8.9261    5.8140 C   0  0  0  0  0  0  0  0  0  0  0  0
   19.9301    9.2797    6.6811 S   0  0  0  0  0  0  0  0  0  0  0  0
   16.7650    9.1694    6.4014 C   0  0  0  0  0  0  0  0  0  0  0  0
   20.0167    7.0900    2.0707 C   0  0  0  0  0  0  0  0  0  0  0  0
   19.7567    7.1524    0.7301 C   0  0  0  0  0  0  0  0  0  0  0  0
   20.6252    6.4278   -0.1121 C   0  0  0  0  0  0  0  0  0  0  0  0
   21.6045    5.7374    0.5398 C   0  0  0  0  0  0  0  0  0  0  0  0
   21.5248    5.9856    2.3948 Se  0  0  0  0  0  0  0  0  0  0  0  0
   17.0510   10.2302    7.2153 C   0  0  0  0  0  0  0  0  0  0  0  0
   16.1433   10.4871    8.2642 C   0  0  0  0  0  0  0  0  0  0  0  0
   15.0985    9.6150    8.3364 C   0  0  0  0  0  0  0  0  0  0  0  0
   15.1743    8.3155    6.9894 Se  0  0  0  0  0  0  0  0  0  0  0  0
   22.6856    9.1866    6.3901 C   0  0  0  0  0  0  0  0  0  0  0  0
   24.1189    9.0473    5.4238 S   0  0  0  0  0  0  0  0  0  0  0  0
   25.1240    9.4552    6.7834 C   0  0  0  0  0  0  0  0  0  0  0  0
   24.3597    9.6829    7.9096 C   0  0  0  0  0  0  0  0  0  0  0  0
   22.9909    9.5416    7.6863 C   0  0  0  0  0  0  0  0  0  0  0  0
   26.5501    9.5236    6.6808 C   0  0  0  0  0  0  0  0  0  0  0  0
   27.2482    9.4503    5.4812 C   0  0  0  0  0  0  0  0  0  0  0  0
   28.6430    9.5274    5.3706 C   0  0  0  0  0  0  0  0  0  0  0  0
   29.4924    9.6676    6.4603 C   0  0  0  0  0  0  0  0  0  0  0  0
   28.8086    9.7253    7.6981 C   0  0  0  0  0  0  0  0  0  0  0  0
   27.3892    9.6702    7.8139 C   0  0  0  0  0  0  0  0  0  0  0  0
   29.3081    9.8392    8.9335 N   0  0  0  0  0  0  0  0  0  0  0  0
   28.2603    9.8491    9.7081 N   0  0  0  0  0  0  0  0  0  0  0  0
   27.0997    9.7562    9.1205 N   0  0  0  0  0  0  0  0  0  0  0  0
   30.9206    9.7467    6.3960 C   0  0  0  0  0  0  0  0  0  0  0  0
   28.3806    9.9859   11.1316 C   0  0  0  0  0  0  0  0  0  0  0  0
   28.8051   11.4047   11.4951 C   0  0  0  0  0  0  0  0  0  0  0  0
   31.7433    9.8235    5.2916 C   0  0  0  0  0  0  0  0  0  0  0  0
   33.0975    9.8840    5.6152 C   0  0  0  0  0  0  0  0  0  0  0  0
   33.3366    9.8482    6.9714 C   0  0  0  0  0  0  0  0  0  0  0  0
   31.8498    9.7540    7.8681 S   0  0  0  0  0  0  0  0  0  0  0  0
   22.8639    4.7154   -0.1064 S   0  0  0  0  0  0  0  0  0  0  0  0
   13.7491    9.5796    9.4480 S   0  0  0  0  0  0  0  0  0  0  0  0
   14.1758   10.9265   10.6145 C   0  0  0  0  0  0  0  0  0  0  0  0
   26.5688    9.3056    4.3261 F   0  0  0  0  0  0  0  0  0  0  0  0
   29.1424    9.4494    4.1217 F   0  0  0  0  0  0  0  0  0  0  0  0
   22.7380    5.0460   -1.9050 C   0  0  0  0  0  0  0  0  0  0  0  0
   13.1260   10.9911   11.7064 C   0  0  0  0  0  0  0  0  0  0  0  0
   23.8904    4.3639   -2.6157 C   0  0  0  0  0  0  0  0  0  0  0  0
   36.8345    9.5647   10.5493 C   0  0  0  0  0  0  0  0  0  0  0  0
   36.2341    9.7365    9.2825 C   0  0  0  0  0  0  0  0  0  0  0  0
   37.0414    9.9454    8.1375 C   0  0  0  0  0  0  0  0  0  0  0  0
   38.4304   10.0303    8.1751 C   0  0  0  0  0  0  0  0  0  0  0  0
   39.0222    9.9221    9.4504 C   0  0  0  0  0  0  0  0  0  0  0  0
   38.2187    9.6911   10.5919 C   0  0  0  0  0  0  0  0  0  0  0  0
   34.8555    9.7262    8.9603 C   0  0  0  0  0  0  0  0  0  0  0  0
   34.5994    9.8572    7.6262 C   0  0  0  0  0  0  0  0  0  0  0  0
   36.0709   10.0371    6.6919 S   0  0  0  0  0  0  0  0  0  0  0  0
   40.3941   10.0251    9.7839 C   0  0  0  0  0  0  0  0  0  0  0  0
   40.6563    9.8487   11.1109 C   0  0  0  0  0  0  0  0  0  0  0  0
   39.1928    9.5507   12.0312 S   0  0  0  0  0  0  0  0  0  0  0  0
   36.0472    9.2544   11.7211 C   0  0  0  0  0  0  0  0  0  0  0  0
   39.2076   10.1962    6.9641 C   0  0  0  0  0  0  0  0  0  0  0  0
   38.8870   10.9726    5.8859 C   0  0  0  0  0  0  0  0  0  0  0  0
   39.7564   10.8976    4.7783 C   0  0  0  0  0  0  0  0  0  0  0  0
   40.8005   10.0335    4.9324 C   0  0  0  0  0  0  0  0  0  0  0  0
   40.7868    9.2048    6.6127 Se  0  0  0  0  0  0  0  0  0  0  0  0
   34.9502    8.4398   11.7949 C   0  0  0  0  0  0  0  0  0  0  0  0
   34.3397    8.3292   13.0580 C   0  0  0  0  0  0  0  0  0  0  0  0
   34.9288    9.0636   14.0482 C   0  0  0  0  0  0  0  0  0  0  0  0
   36.4316   10.0053   13.4079 Se  0  0  0  0  0  0  0  0  0  0  0  0
   41.9225    9.8734   11.7573 C   0  0  0  0  0  0  0  0  0  0  0  0
   43.3711   10.1746   10.8522 S   0  0  0  0  0  0  0  0  0  0  0  0
   44.3463   10.0106   12.2838 C   0  0  0  0  0  0  0  0  0  0  0  0
   43.5613    9.7405   13.3861 C   0  0  0  0  0  0  0  0  0  0  0  0
   42.2018    9.6654   13.0910 C   0  0  0  0  0  0  0  0  0  0  0  0
   45.7719   10.1420   12.2598 C   0  0  0  0  0  0  0  0  0  0  0  0
   46.5096   10.4581   11.1262 C   0  0  0  0  0  0  0  0  0  0  0  0
   47.9066   10.5863   11.1000 C   0  0  0  0  0  0  0  0  0  0  0  0
   48.7147   10.4058   12.2129 C   0  0  0  0  0  0  0  0  0  0  0  0
   47.9887   10.0787   13.3825 C   0  0  0  0  0  0  0  0  0  0  0  0
   46.5695    9.9522   13.4164 C   0  0  0  0  0  0  0  0  0  0  0  0
   48.4425    9.8311   14.6165 N   0  0  0  0  0  0  0  0  0  0  0  0
   47.3713    9.5807   15.3132 N   0  0  0  0  0  0  0  0  0  0  0  0
   46.2348    9.6352   14.6758 N   0  0  0  0  0  0  0  0  0  0  0  0
   50.1451   10.5282   12.2358 C   0  0  0  0  0  0  0  0  0  0  0  0
   47.4397    9.2948   16.7177 C   0  0  0  0  0  0  0  0  0  0  0  0
   47.7695   10.5614   17.5004 C   0  0  0  0  0  0  0  0  0  0  0  0
   51.0182   10.8066   11.2109 C   0  0  0  0  0  0  0  0  0  0  0  0
   52.3591   10.8466   11.6260 C   0  0  0  0  0  0  0  0  0  0  0  0
   52.5030   10.6018   12.9568 C   0  0  0  0  0  0  0  0  0  0  0  0
   51.0032   10.3107   13.7356 S   0  0  0  0  0  0  0  0  0  0  0  0
   42.0833    9.6318    3.8182 S   0  0  0  0  0  0  0  0  0  0  0  0
   34.3517    9.1187   15.6967 S   0  0  0  0  0  0  0  0  0  0  0  0
   35.6428   10.1688   16.4581 C   0  0  0  0  0  0  0  0  0  0  0  0
   45.8717   10.6665    9.9573 F   0  0  0  0  0  0  0  0  0  0  0  0
   48.4476   10.9050    9.9079 F   0  0  0  0  0  0  0  0  0  0  0  0
   41.8446   10.8812    2.4982 C   0  0  0  0  0  0  0  0  0  0  0  0
   35.3786   10.3333   17.9401 C   0  0  0  0  0  0  0  0  0  0  0  0
   42.9908   10.7853    1.5104 C   0  0  0  0  0  0  0  0  0  0  0  0
   -4.5712    5.5756    2.3997 H   0  0  0  0  0  0  0  0  0  0  0  0
   -5.2825    3.6384    0.8277 H   0  0  0  0  0  0  0  0  0  0  0  0
    2.4193    4.4615    1.2824 H   0  0  0  0  0  0  0  0  0  0  0  0
   -1.0254    2.8683   -1.4591 H   0  0  0  0  0  0  0  0  0  0  0  0
    0.2305    0.8540   -2.3448 H   0  0  0  0  0  0  0  0  0  0  0  0
   -1.1300    8.6204    3.3687 H   0  0  0  0  0  0  0  0  0  0  0  0
   -2.4127    9.8806    5.1845 H   0  0  0  0  0  0  0  0  0  0  0  0
    5.9044    7.9612    4.7140 H   0  0  0  0  0  0  0  0  0  0  0  0
    3.3078    7.6850    4.7310 H   0  0  0  0  0  0  0  0  0  0  0  0
    8.8236    8.9139    6.8900 H   0  0  0  0  0  0  0  0  0  0  0  0
    9.9667    9.9611    6.0130 H   0  0  0  0  0  0  0  0  0  0  0  0
   10.6705    7.2753    7.3040 H   0  0  0  0  0  0  0  0  0  0  0  0
   11.1684    8.8691    7.8785 H   0  0  0  0  0  0  0  0  0  0  0  0
   11.7714    8.2565    6.3338 H   0  0  0  0  0  0  0  0  0  0  0  0
   11.9763    5.6247   -0.0256 H   0  0  0  0  0  0  0  0  0  0  0  0
   14.5234    6.0023    0.2534 H   0  0  0  0  0  0  0  0  0  0  0  0
   -5.1119    6.5210    7.4058 H   0  0  0  0  0  0  0  0  0  0  0  0
   -6.2218    7.1108    6.1385 H   0  0  0  0  0  0  0  0  0  0  0  0
    2.3035   -0.1441   -3.1696 H   0  0  0  0  0  0  0  0  0  0  0  0
    1.1655   -1.3696   -2.5398 H   0  0  0  0  0  0  0  0  0  0  0  0
   -6.2884    7.9531    9.0870 H   0  0  0  0  0  0  0  0  0  0  0  0
   -7.4249    6.8361    8.3207 H   0  0  0  0  0  0  0  0  0  0  0  0
   -7.3850    8.5352    7.8328 H   0  0  0  0  0  0  0  0  0  0  0  0
    4.1846   -1.7621   -2.8844 H   0  0  0  0  0  0  0  0  0  0  0  0
    2.9432   -2.4431   -3.9443 H   0  0  0  0  0  0  0  0  0  0  0  0
    3.0609   -2.9715   -2.2607 H   0  0  0  0  0  0  0  0  0  0  0  0
   14.8247    8.3433    4.4322 H   0  0  0  0  0  0  0  0  0  0  0  0
   21.9560    8.1611    3.8937 H   0  0  0  0  0  0  0  0  0  0  0  0
   18.9581    7.7514    0.3262 H   0  0  0  0  0  0  0  0  0  0  0  0
   20.5055    6.4255   -1.1811 H   0  0  0  0  0  0  0  0  0  0  0  0
   17.8969   10.8741    7.0455 H   0  0  0  0  0  0  0  0  0  0  0  0
   16.2802   11.3143    8.9383 H   0  0  0  0  0  0  0  0  0  0  0  0
   24.8013    9.9425    8.8536 H   0  0  0  0  0  0  0  0  0  0  0  0
   22.2357    9.6812    8.4397 H   0  0  0  0  0  0  0  0  0  0  0  0
   29.1306    9.2712   11.4787 H   0  0  0  0  0  0  0  0  0  0  0  0
   27.4065    9.7426   11.5584 H   0  0  0  0  0  0  0  0  0  0  0  0
   29.7542   11.6378   11.0192 H   0  0  0  0  0  0  0  0  0  0  0  0
   28.9197   11.4908   12.5716 H   0  0  0  0  0  0  0  0  0  0  0  0
   28.0584   12.1220   11.1631 H   0  0  0  0  0  0  0  0  0  0  0  0
   31.3801    9.8384    4.2814 H   0  0  0  0  0  0  0  0  0  0  0  0
   33.8888    9.9447    4.8890 H   0  0  0  0  0  0  0  0  0  0  0  0
   14.2109   11.8560   10.0461 H   0  0  0  0  0  0  0  0  0  0  0  0
   15.1600   10.7017   11.0251 H   0  0  0  0  0  0  0  0  0  0  0  0
   22.7742    6.1270   -2.0391 H   0  0  0  0  0  0  0  0  0  0  0  0
   21.7786    4.6579   -2.2474 H   0  0  0  0  0  0  0  0  0  0  0  0
   12.1463   11.1972   11.2817 H   0  0  0  0  0  0  0  0  0  0  0  0
   13.3751   11.7816   12.4106 H   0  0  0  0  0  0  0  0  0  0  0  0
   13.0770   10.0469   12.2434 H   0  0  0  0  0  0  0  0  0  0  0  0
   24.8412    4.7407   -2.2460 H   0  0  0  0  0  0  0  0  0  0  0  0
   23.8295    4.5552   -3.6850 H   0  0  0  0  0  0  0  0  0  0  0  0
   23.8577    3.2895   -2.4502 H   0  0  0  0  0  0  0  0  0  0  0  0
   34.0672    9.6470    9.6864 H   0  0  0  0  0  0  0  0  0  0  0  0
   41.1740   10.2468    9.0748 H   0  0  0  0  0  0  0  0  0  0  0  0
   38.0409   11.6386    5.8868 H   0  0  0  0  0  0  0  0  0  0  0  0
   39.5896   11.4782    3.8883 H   0  0  0  0  0  0  0  0  0  0  0  0
   34.6042    7.8704   10.9488 H   0  0  0  0  0  0  0  0  0  0  0  0
   33.4789    7.7087   13.2384 H   0  0  0  0  0  0  0  0  0  0  0  0
   43.9828    9.6040   14.3643 H   0  0  0  0  0  0  0  0  0  0  0  0
   41.4341    9.4629   13.8170 H   0  0  0  0  0  0  0  0  0  0  0  0
   48.2192    8.5451   16.8727 H   0  0  0  0  0  0  0  0  0  0  0  0
   46.4688    8.8916   17.0095 H   0  0  0  0  0  0  0  0  0  0  0  0
   48.7180   10.9679   17.1589 H   0  0  0  0  0  0  0  0  0  0  0  0
   47.8438   10.3323   18.5593 H   0  0  0  0  0  0  0  0  0  0  0  0
   46.9932   11.3092   17.3570 H   0  0  0  0  0  0  0  0  0  0  0  0
   50.7127   10.9748   10.1956 H   0  0  0  0  0  0  0  0  0  0  0  0
   53.1807   11.0489   10.9623 H   0  0  0  0  0  0  0  0  0  0  0  0
   53.4092   10.5723   13.5288 H   0  0  0  0  0  0  0  0  0  0  0  0
   35.6225   11.1314   15.9386 H   0  0  0  0  0  0  0  0  0  0  0  0
   36.6034    9.6792   16.2753 H   0  0  0  0  0  0  0  0  0  0  0  0
   41.8174   11.8591    2.9788 H   0  0  0  0  0  0  0  0  0  0  0  0
   40.8897   10.6746    2.0146 H   0  0  0  0  0  0  0  0  0  0  0  0
   34.4100   10.7989   18.1048 H   0  0  0  0  0  0  0  0  0  0  0  0
   36.1485   10.9600   18.3844 H   0  0  0  0  0  0  0  0  0  0  0  0
   35.3850    9.3661   18.4366 H   0  0  0  0  0  0  0  0  0  0  0  0
   43.9392   10.9684    2.0099 H   0  0  0  0  0  0  0  0  0  0  0  0
   42.8612   11.5241    0.7224 H   0  0  0  0  0  0  0  0  0  0  0  0
   43.0237    9.7959    1.0601 H   0  0  0  0  0  0  0  0  0  0  0  0
  1 13  1  0  0  0  0
  2  1  2  0  0  0  0
  3  2  1  0  0  0  0
  4  3  2  0  0  0  0
  4  5  1  0  0  0  0
  5 10  1  0  0  0  0
  5  6  2  0  0  0  0
  6  1  1  0  0  0  0
  6 12  1  0  0  0  0
  7  2  1  0  0  0  0
  7154  1  0  0  0  0
  8  7  2  0  0  0  0
  9  8  1  0  0  0  0
  9  3  1  0  0  0  0
 10 11  2  0  0  0  0
 11 23  1  0  0  0  0
 11 12  1  0  0  0  0
 13 19  2  0  0  0  0
 13 22  1  0  0  0  0
 14 18  1  0  0  0  0
 14  4  1  0  0  0  0
 15 14  2  0  0  0  0
 16 15  1  0  0  0  0
 16 17  2  0  0  0  0
 17 18  1  0  0  0  0
 19 20  1  0  0  0  0
 20160  1  0  0  0  0
 20 21  2  0  0  0  0
 21 45  1  0  0  0  0
 22 21  1  0  0  0  0
 23 27  2  0  0  0  0
 24 25  1  0  0  0  0
 24 23  1  0  0  0  0
 25 26  2  0  0  0  0
 26 27  1  0  0  0  0
 26161  1  0  0  0  0
 27162  1  0  0  0  0
 28 25  1  0  0  0  0
 28 33  1  0  0  0  0
 29 28  2  0  0  0  0
 30 29  1  0  0  0  0
 30 31  2  0  0  0  0
 31 32  1  0  0  0  0
 32 33  1  0  0  0  0
 32 34  2  0  0  0  0
 33 36  2  0  0  0  0
 34 35  1  0  0  0  0
 35 38  1  0  0  0  0
 36 35  1  0  0  0  0
 37 31  1  0  0  0  0
 37 43  1  0  0  0  0
 38163  1  0  0  0  0
 38 39  1  0  0  0  0
 39165  1  0  0  0  0
 39166  1  0  0  0  0
 40 41  1  0  0  0  0
 40 37  2  0  0  0  0
 41 42  2  0  0  0  0
 42 59  1  0  0  0  0
 42 43  1  0  0  0  0
 44 17  1  0  0  0  0
 45 46  1  0  0  0  0
 46170  1  0  0  0  0
 46 50  1  0  0  0  0
 47 29  1  0  0  0  0
 48 30  1  0  0  0  0
 49 44  1  0  0  0  0
 50175  1  0  0  0  0
 50174  1  0  0  0  0
 51177  1  0  0  0  0
 51 49  1  0  0  0  0
 51179  1  0  0  0  0
 52 57  1  0  0  0  0
 52 64  1  0  0  0  0
 53 52  2  0  0  0  0
 54 55  2  0  0  0  0
 54 53  1  0  0  0  0
 55 56  1  0  0  0  0
 56 61  1  0  0  0  0
 56 57  2  0  0  0  0
 57 63  1  0  0  0  0
 58 53  1  0  0  0  0
 58180  1  0  0  0  0
 59 58  2  0  0  0  0
 60 59  1  0  0  0  0
 60 54  1  0  0  0  0
 61 62  2  0  0  0  0
 62 74  1  0  0  0  0
 62 63  1  0  0  0  0
 64 73  1  0  0  0  0
 64 70  2  0  0  0  0
 65 69  1  0  0  0  0
 65 55  1  0  0  0  0
 66 65  2  0  0  0  0
 67 68  2  0  0  0  0
 67 66  1  0  0  0  0
 68 69  1  0  0  0  0
 70 71  1  0  0  0  0
 71 72  2  0  0  0  0
 71185  1  0  0  0  0
 72 96  1  0  0  0  0
 73 72  1  0  0  0  0
 74 78  2  0  0  0  0
 75 74  1  0  0  0  0
 75 76  1  0  0  0  0
 76 77  2  0  0  0  0
 77186  1  0  0  0  0
 78 77  1  0  0  0  0
 78187  1  0  0  0  0
 79 76  1  0  0  0  0
 79 84  1  0  0  0  0
 80 79  2  0  0  0  0
 81 80  1  0  0  0  0
 81 82  2  0  0  0  0
 82 83  1  0  0  0  0
 83 84  1  0  0  0  0
 83 85  2  0  0  0  0
 84 87  2  0  0  0  0
 85 86  1  0  0  0  0
 86 89  1  0  0  0  0
 87 86  1  0  0  0  0
 88 82  1  0  0  0  0
 88 94  1  0  0  0  0
 89188  1  0  0  0  0
 89 90  1  0  0  0  0
 89189  1  0  0  0  0
 90191  1  0  0  0  0
 91 92  1  0  0  0  0
 91 88  2  0  0  0  0
 92 93  2  0  0  0  0
 93110  1  0  0  0  0
 93 94  1  0  0  0  0
 95 68  1  0  0  0  0
 96 97  1  0  0  0  0
 97196  1  0  0  0  0
 97101  1  0  0  0  0
 98 80  1  0  0  0  0
 99 81  1  0  0  0  0
100 95  1  0  0  0  0
101201  1  0  0  0  0
101200  1  0  0  0  0
102204  1  0  0  0  0
102202  1  0  0  0  0
102100  1  0  0  0  0
103108  1  0  0  0  0
103115  1  0  0  0  0
104103  2  0  0  0  0
105106  2  0  0  0  0
105104  1  0  0  0  0
106107  1  0  0  0  0
107112  1  0  0  0  0
107108  2  0  0  0  0
108114  1  0  0  0  0
109104  1  0  0  0  0
109205  1  0  0  0  0
110109  2  0  0  0  0
111110  1  0  0  0  0
111105  1  0  0  0  0
112113  2  0  0  0  0
113125  1  0  0  0  0
113114  1  0  0  0  0
115121  2  0  0  0  0
115124  1  0  0  0  0
116106  1  0  0  0  0
117207  1  0  0  0  0
117116  2  0  0  0  0
118119  2  0  0  0  0
118117  1  0  0  0  0
119120  1  0  0  0  0
120116  1  0  0  0  0
121122  1  0  0  0  0
122210  1  0  0  0  0
122123  2  0  0  0  0
123147  1  0  0  0  0
124123  1  0  0  0  0
125129  2  0  0  0  0
126125  1  0  0  0  0
126127  1  0  0  0  0
127128  2  0  0  0  0
128211  1  0  0  0  0
129128  1  0  0  0  0
129212  1  0  0  0  0
130127  1  0  0  0  0
130135  1  0  0  0  0
131130  2  0  0  0  0
132131  1  0  0  0  0
132133  2  0  0  0  0
133139  1  0  0  0  0
133134  1  0  0  0  0
134135  1  0  0  0  0
134136  2  0  0  0  0
135138  2  0  0  0  0
136137  1  0  0  0  0
137140  1  0  0  0  0
138137  1  0  0  0  0
139145  1  0  0  0  0
140213  1  0  0  0  0
140214  1  0  0  0  0
140141  1  0  0  0  0
141216  1  0  0  0  0
142143  1  0  0  0  0
142139  2  0  0  0  0
143144  2  0  0  0  0
144220  1  0  0  0  0
144145  1  0  0  0  0
146119  1  0  0  0  0
147148  1  0  0  0  0
148152  1  0  0  0  0
149131  1  0  0  0  0
150132  1  0  0  0  0
151223  1  0  0  0  0
151146  1  0  0  0  0
152225  1  0  0  0  0
152226  1  0  0  0  0
152227  1  0  0  0  0
153228  1  0  0  0  0
153151  1  0  0  0  0
155  8  1  0  0  0  0
156 10  1  0  0  0  0
157 15  1  0  0  0  0
158 16  1  0  0  0  0
159 19  1  0  0  0  0
164 38  1  0  0  0  0
167 39  1  0  0  0  0
168 40  1  0  0  0  0
169 41  1  0  0  0  0
171 46  1  0  0  0  0
172 49  1  0  0  0  0
173 49  1  0  0  0  0
176 50  1  0  0  0  0
178 51  1  0  0  0  0
181 61  1  0  0  0  0
182 66  1  0  0  0  0
183 67  1  0  0  0  0
184 70  1  0  0  0  0
190 90  1  0  0  0  0
192 90  1  0  0  0  0
193 91  1  0  0  0  0
194 92  1  0  0  0  0
195 97  1  0  0  0  0
197100  1  0  0  0  0
198100  1  0  0  0  0
199101  1  0  0  0  0
203102  1  0  0  0  0
206112  1  0  0  0  0
208118  1  0  0  0  0
209121  1  0  0  0  0
215141  1  0  0  0  0
217141  1  0  0  0  0
218142  1  0  0  0  0
219143  1  0  0  0  0
221148  1  0  0  0  0
222148  1  0  0  0  0
224151  1  0  0  0  0
229153  1  0  0  0  0
230153  1  0  0  0  0
M  END
