SCF done       -422.357676435085          0.000282615798
 OpenBabel12282109573D

236265  0  0  0  0  0  0  0  0999 V2000
   -1.6366    7.6877    5.4839 C   0  0  0  0  0  0  0  0  0  0  0  0
   -0.7672    8.3251    6.3998 C   0  0  0  0  0  0  0  0  0  0  0  0
    0.6136    8.3327    6.2640 C   0  0  0  0  0  0  0  0  0  0  0  0
    1.1385    7.6308    5.1676 C   0  0  0  0  0  0  0  0  0  0  0  0
    0.2731    6.9885    4.2493 C   0  0  0  0  0  0  0  0  0  0  0  0
   -1.1125    7.0180    4.3624 C   0  0  0  0  0  0  0  0  0  0  0  0
   -3.0003    7.8185    5.8800 C   0  0  0  0  0  0  0  0  0  0  0  0
   -3.1543    8.5420    7.0075 C   0  0  0  0  0  0  0  0  0  0  0  0
   -1.6639    9.1112    7.6755 S   0  0  0  0  0  0  0  0  0  0  0  0
    2.5028    7.4468    4.8276 C   0  0  0  0  0  0  0  0  0  0  0  0
    2.6917    6.7264    3.6861 C   0  0  0  0  0  0  0  0  0  0  0  0
    1.1733    6.2175    2.9688 S   0  0  0  0  0  0  0  0  0  0  0  0
    1.4876    9.0435    7.2063 C   0  0  0  0  0  0  0  0  0  0  0  0
   -1.9840    6.4108    3.3776 C   0  0  0  0  0  0  0  0  0  0  0  0
    3.9301    6.3804    3.0752 C   0  0  0  0  0  0  0  0  0  0  0  0
    4.1430    5.6584    1.9211 C   0  0  0  0  0  0  0  0  0  0  0  0
    5.4927    5.5089    1.6062 C   0  0  0  0  0  0  0  0  0  0  0  0
    6.3373    6.1135    2.5144 C   0  0  0  0  0  0  0  0  0  0  0  0
    5.4299    6.8850    3.7843 S   0  0  0  0  0  0  0  0  0  0  0  0
    7.7678    6.1374    2.4803 C   0  0  0  0  0  0  0  0  0  0  0  0
    8.5589    6.7510    3.4426 C   0  0  0  0  0  0  0  0  0  0  0  0
    9.9584    6.7643    3.4142 C   0  0  0  0  0  0  0  0  0  0  0  0
   10.7222    6.1706    2.4174 C   0  0  0  0  0  0  0  0  0  0  0  0
    9.9443    5.5409    1.4123 C   0  0  0  0  0  0  0  0  0  0  0  0
    8.5167    5.5223    1.4443 C   0  0  0  0  0  0  0  0  0  0  0  0
    7.9773    7.3784    4.4844 F   0  0  0  0  0  0  0  0  0  0  0  0
   10.5687    7.4006    4.4343 F   0  0  0  0  0  0  0  0  0  0  0  0
   10.3238    4.8734    0.3144 N   0  0  0  0  0  0  0  0  0  0  0  0
    9.2070    4.4977   -0.2426 N   0  0  0  0  0  0  0  0  0  0  0  0
    8.1065    4.8442    0.3640 N   0  0  0  0  0  0  0  0  0  0  0  0
    9.1873    3.7832   -1.4870 C   0  0  0  0  0  0  0  0  0  0  0  0
    9.0834    4.7563   -2.6576 C   0  0  0  0  0  0  0  0  0  0  0  0
   12.1530    6.1758    2.3949 C   0  0  0  0  0  0  0  0  0  0  0  0
    1.3630    8.8135    8.5934 C   0  0  0  0  0  0  0  0  0  0  0  0
    2.1654    9.4676    9.4818 C   0  0  0  0  0  0  0  0  0  0  0  0
    3.1374   10.3900    9.0405 C   0  0  0  0  0  0  0  0  0  0  0  0
    3.2686   10.6277    7.6472 C   0  0  0  0  0  0  0  0  0  0  0  0
    2.4268    9.9392    6.7534 C   0  0  0  0  0  0  0  0  0  0  0  0
   13.0878    6.8986    3.6721 S   0  0  0  0  0  0  0  0  0  0  0  0
   14.5739    6.4583    2.8929 C   0  0  0  0  0  0  0  0  0  0  0  0
   14.3359    5.7940    1.7091 C   0  0  0  0  0  0  0  0  0  0  0  0
   12.9788    5.6350    1.4305 C   0  0  0  0  0  0  0  0  0  0  0  0
   -3.1335    6.9134    2.8345 C   0  0  0  0  0  0  0  0  0  0  0  0
   -3.7395    6.0599    1.8968 C   0  0  0  0  0  0  0  0  0  0  0  0
   -3.0518    4.8916    1.7258 C   0  0  0  0  0  0  0  0  0  0  0  0
   -1.6286    4.8358    2.7186 S   0  0  0  0  0  0  0  0  0  0  0  0
   -3.5123    3.5947    0.6535 S   0  0  0  0  0  0  0  0  0  0  0  0
   -2.1462    2.4076    0.9391 C   0  0  0  0  0  0  0  0  0  0  0  0
   -2.3464    1.1793    0.0745 C   0  0  0  0  0  0  0  0  0  0  0  0
    3.9829   11.0793    9.9333 C   0  0  0  0  0  0  0  0  0  0  0  0
    4.9173   11.9621    9.4685 C   0  0  0  0  0  0  0  0  0  0  0  0
    5.0488   12.1958    8.0903 C   0  0  0  0  0  0  0  0  0  0  0  0
    4.2428   11.5450    7.1994 C   0  0  0  0  0  0  0  0  0  0  0  0
   17.3383    7.5761    5.0824 C   0  0  0  0  0  0  0  0  0  0  0  0
   18.2254    7.0651    4.1021 C   0  0  0  0  0  0  0  0  0  0  0  0
   19.6050    7.1108    4.2265 C   0  0  0  0  0  0  0  0  0  0  0  0
   20.1133    7.7210    5.3881 C   0  0  0  0  0  0  0  0  0  0  0  0
   19.2274    8.2340    6.3675 C   0  0  0  0  0  0  0  0  0  0  0  0
   17.8441    8.1626    6.2591 C   0  0  0  0  0  0  0  0  0  0  0  0
   15.9855    7.4209    4.7023 C   0  0  0  0  0  0  0  0  0  0  0  0
   15.8150    6.7794    3.5096 C   0  0  0  0  0  0  0  0  0  0  0  0
   17.3462    6.3476    2.7716 S   0  0  0  0  0  0  0  0  0  0  0  0
   21.4701    7.9160    5.7519 C   0  0  0  0  0  0  0  0  0  0  0  0
   21.6302    8.5163    6.9666 C   0  0  0  0  0  0  0  0  0  0  0  0
   20.0942    8.9005    7.7217 S   0  0  0  0  0  0  0  0  0  0  0  0
   20.5030    6.5513    3.2076 C   0  0  0  0  0  0  0  0  0  0  0  0
   16.9560    8.6440    7.2961 C   0  0  0  0  0  0  0  0  0  0  0  0
   22.8349    8.8261    7.6585 C   0  0  0  0  0  0  0  0  0  0  0  0
   22.9409    9.4654    8.8745 C   0  0  0  0  0  0  0  0  0  0  0  0
   24.2544    9.5958    9.3179 C   0  0  0  0  0  0  0  0  0  0  0  0
   25.1806    9.0553    8.4496 C   0  0  0  0  0  0  0  0  0  0  0  0
   24.3998    8.3802    7.0459 S   0  0  0  0  0  0  0  0  0  0  0  0
   26.6040    8.9794    8.5829 C   0  0  0  0  0  0  0  0  0  0  0  0
   27.3300    9.4335    9.6781 C   0  0  0  0  0  0  0  0  0  0  0  0
   28.7224    9.3250    9.7972 C   0  0  0  0  0  0  0  0  0  0  0  0
   29.5434    8.7538    8.8323 C   0  0  0  0  0  0  0  0  0  0  0  0
   28.8319    8.2937    7.6990 C   0  0  0  0  0  0  0  0  0  0  0  0
   27.4170    8.3989    7.5799 C   0  0  0  0  0  0  0  0  0  0  0  0
   26.7025   10.0167   10.7187 F   0  0  0  0  0  0  0  0  0  0  0  0
   29.2505    9.8231   10.9327 F   0  0  0  0  0  0  0  0  0  0  0  0
   29.2811    7.6948    6.5898 N   0  0  0  0  0  0  0  0  0  0  0  0
   28.2082    7.4720    5.8828 N   0  0  0  0  0  0  0  0  0  0  0  0
   27.0772    7.8601    6.4021 N   0  0  0  0  0  0  0  0  0  0  0  0
   28.2752    6.8562    4.5882 C   0  0  0  0  0  0  0  0  0  0  0  0
   28.9561    7.7888    3.5926 C   0  0  0  0  0  0  0  0  0  0  0  0
   30.9656    8.6223    8.9338 C   0  0  0  0  0  0  0  0  0  0  0  0
   20.3391    6.9116    1.8524 C   0  0  0  0  0  0  0  0  0  0  0  0
   21.1730    6.4152    0.8937 C   0  0  0  0  0  0  0  0  0  0  0  0
   22.2218    5.5332    1.2292 C   0  0  0  0  0  0  0  0  0  0  0  0
   22.3906    5.1618    2.5889 C   0  0  0  0  0  0  0  0  0  0  0  0
   21.5105    5.6834    3.5557 C   0  0  0  0  0  0  0  0  0  0  0  0
   31.8865    8.0510    7.5707 S   0  0  0  0  0  0  0  0  0  0  0  0
   33.3696    8.1900    8.4688 C   0  0  0  0  0  0  0  0  0  0  0  0
   33.1336    8.6430    9.7485 C   0  0  0  0  0  0  0  0  0  0  0  0
   31.7876    8.8889   10.0088 C   0  0  0  0  0  0  0  0  0  0  0  0
   15.8225    8.0541    7.7811 C   0  0  0  0  0  0  0  0  0  0  0  0
   15.1843    8.7904    8.7958 C   0  0  0  0  0  0  0  0  0  0  0  0
   15.8320    9.9583    9.0806 C   0  0  0  0  0  0  0  0  0  0  0  0
   17.2534   10.1618    8.1077 S   0  0  0  0  0  0  0  0  0  0  0  0
   15.4484   11.2086   10.2366 S   0  0  0  0  0  0  0  0  0  0  0  0
   13.7730   10.6964   10.7788 C   0  0  0  0  0  0  0  0  0  0  0  0
   13.1982   11.7618   11.6918 C   0  0  0  0  0  0  0  0  0  0  0  0
   23.1087    5.0139    0.2643 C   0  0  0  0  0  0  0  0  0  0  0  0
   24.1201    4.1695    0.6285 C   0  0  0  0  0  0  0  0  0  0  0  0
   24.2895    3.8046    1.9737 C   0  0  0  0  0  0  0  0  0  0  0  0
   23.4434    4.2871    2.9321 C   0  0  0  0  0  0  0  0  0  0  0  0
   36.3056    7.3006    6.3785 C   0  0  0  0  0  0  0  0  0  0  0  0
   37.0716    7.4801    7.5579 C   0  0  0  0  0  0  0  0  0  0  0  0
   38.4452    7.3145    7.6158 C   0  0  0  0  0  0  0  0  0  0  0  0
   39.0789    6.9109    6.4295 C   0  0  0  0  0  0  0  0  0  0  0  0
   38.3240    6.7347    5.2445 C   0  0  0  0  0  0  0  0  0  0  0  0
   36.9502    6.9504    5.1726 C   0  0  0  0  0  0  0  0  0  0  0  0
   34.9245    7.5064    6.6166 C   0  0  0  0  0  0  0  0  0  0  0  0
   34.6351    7.8782    7.8982 C   0  0  0  0  0  0  0  0  0  0  0  0
   36.0720    7.9709    8.8993 S   0  0  0  0  0  0  0  0  0  0  0  0
   40.4544    6.6266    6.2375 C   0  0  0  0  0  0  0  0  0  0  0  0
   40.7659    6.2725    4.9572 C   0  0  0  0  0  0  0  0  0  0  0  0
   39.3542    6.2648    3.9189 S   0  0  0  0  0  0  0  0  0  0  0  0
   39.2039    7.5576    8.8500 C   0  0  0  0  0  0  0  0  0  0  0  0
   36.2225    6.8601    3.9263 C   0  0  0  0  0  0  0  0  0  0  0  0
   42.0392    5.9322    4.4154 C   0  0  0  0  0  0  0  0  0  0  0  0
   43.2665    5.9439    5.0440 C   0  0  0  0  0  0  0  0  0  0  0  0
   44.3157    5.5647    4.2070 C   0  0  0  0  0  0  0  0  0  0  0  0
   43.9091    5.2533    2.9264 C   0  0  0  0  0  0  0  0  0  0  0  0
   42.1883    5.4323    2.7605 S   0  0  0  0  0  0  0  0  0  0  0  0
   44.6792    4.8426    1.7908 C   0  0  0  0  0  0  0  0  0  0  0  0
   46.0606    4.7305    1.7329 C   0  0  0  0  0  0  0  0  0  0  0  0
   46.7562    4.3463    0.5759 C   0  0  0  0  0  0  0  0  0  0  0  0
   46.1552    4.0383   -0.6376 C   0  0  0  0  0  0  0  0  0  0  0  0
   44.7410    4.1343   -0.6086 C   0  0  0  0  0  0  0  0  0  0  0  0
   44.0415    4.5191    0.5704 C   0  0  0  0  0  0  0  0  0  0  0  0
   46.8118    5.0031    2.8176 F   0  0  0  0  0  0  0  0  0  0  0  0
   48.0988    4.2895    0.6839 F   0  0  0  0  0  0  0  0  0  0  0  0
   43.8158    3.9161   -1.5565 N   0  0  0  0  0  0  0  0  0  0  0  0
   42.6776    4.1539   -0.9655 N   0  0  0  0  0  0  0  0  0  0  0  0
   42.7356    4.5109    0.2854 N   0  0  0  0  0  0  0  0  0  0  0  0
   41.4212    4.0149   -1.6481 C   0  0  0  0  0  0  0  0  0  0  0  0
   40.5375    5.2254   -1.3808 C   0  0  0  0  0  0  0  0  0  0  0  0
   46.8702    3.6601   -1.8226 C   0  0  0  0  0  0  0  0  0  0  0  0
   40.3122    8.4328    8.8306 C   0  0  0  0  0  0  0  0  0  0  0  0
   41.0252    8.6775    9.9677 C   0  0  0  0  0  0  0  0  0  0  0  0
   40.6773    8.0630   11.1895 C   0  0  0  0  0  0  0  0  0  0  0  0
   39.5607    7.1871   11.2180 C   0  0  0  0  0  0  0  0  0  0  0  0
   38.8422    6.9544   10.0300 C   0  0  0  0  0  0  0  0  0  0  0  0
   48.6058    3.5238   -1.8684 S   0  0  0  0  0  0  0  0  0  0  0  0
   48.5610    3.0768   -3.5195 C   0  0  0  0  0  0  0  0  0  0  0  0
   47.2926    3.0331   -4.0138 C   0  0  0  0  0  0  0  0  0  0  0  0
   46.3270    3.3640   -3.0513 C   0  0  0  0  0  0  0  0  0  0  0  0
   35.1978    7.6482    3.4752 C   0  0  0  0  0  0  0  0  0  0  0  0
   34.7515    7.3193    2.1845 C   0  0  0  0  0  0  0  0  0  0  0  0
   35.4381    6.2705    1.6406 C   0  0  0  0  0  0  0  0  0  0  0  0
   36.6460    5.6640    2.7295 S   0  0  0  0  0  0  0  0  0  0  0  0
   35.1644    5.5818    0.0613 S   0  0  0  0  0  0  0  0  0  0  0  0
   36.6225    4.4804   -0.0873 C   0  0  0  0  0  0  0  0  0  0  0  0
   36.6703    3.8805   -1.4783 C   0  0  0  0  0  0  0  0  0  0  0  0
   41.3967    8.2918   12.3799 C   0  0  0  0  0  0  0  0  0  0  0  0
   41.0270    7.6822   13.5463 C   0  0  0  0  0  0  0  0  0  0  0  0
   39.9213    6.8176   13.5754 C   0  0  0  0  0  0  0  0  0  0  0  0
   39.2044    6.5744   12.4378 C   0  0  0  0  0  0  0  0  0  0  0  0
   -3.8176    7.3671    5.3484 H   0  0  0  0  0  0  0  0  0  0  0  0
   -4.0676    8.7836    7.5154 H   0  0  0  0  0  0  0  0  0  0  0  0
    3.3193    7.8241    5.4175 H   0  0  0  0  0  0  0  0  0  0  0  0
    3.3359    5.2575    1.3335 H   0  0  0  0  0  0  0  0  0  0  0  0
    5.8648    4.9799    0.7489 H   0  0  0  0  0  0  0  0  0  0  0  0
    8.3254    3.1135   -1.4699 H   0  0  0  0  0  0  0  0  0  0  0  0
   10.1115    3.2060   -1.5475 H   0  0  0  0  0  0  0  0  0  0  0  0
    8.1736    5.3457   -2.5747 H   0  0  0  0  0  0  0  0  0  0  0  0
    9.0613    4.2062   -3.5937 H   0  0  0  0  0  0  0  0  0  0  0  0
    9.9382    5.4281   -2.6651 H   0  0  0  0  0  0  0  0  0  0  0  0
    0.6358    8.0950    8.9414 H   0  0  0  0  0  0  0  0  0  0  0  0
    2.0690    9.2824   10.5422 H   0  0  0  0  0  0  0  0  0  0  0  0
    2.5151   10.1425    5.6952 H   0  0  0  0  0  0  0  0  0  0  0  0
   15.1303    5.4373    1.0775 H   0  0  0  0  0  0  0  0  0  0  0  0
   12.5881    5.1421    0.5600 H   0  0  0  0  0  0  0  0  0  0  0  0
   -3.5123    7.8915    3.0716 H   0  0  0  0  0  0  0  0  0  0  0  0
   -4.6427    6.2897    1.3625 H   0  0  0  0  0  0  0  0  0  0  0  0
   -2.1538    2.1535    1.9996 H   0  0  0  0  0  0  0  0  0  0  0  0
   -1.2149    2.9203    0.6953 H   0  0  0  0  0  0  0  0  0  0  0  0
   -3.2886    0.6930    0.3161 H   0  0  0  0  0  0  0  0  0  0  0  0
   -1.5352    0.4748    0.2441 H   0  0  0  0  0  0  0  0  0  0  0  0
   -2.3593    1.4521   -0.9781 H   0  0  0  0  0  0  0  0  0  0  0  0
    3.8783   10.8953   10.9933 H   0  0  0  0  0  0  0  0  0  0  0  0
    5.5627   12.4866   10.1580 H   0  0  0  0  0  0  0  0  0  0  0  0
    5.7946   12.8948    7.7411 H   0  0  0  0  0  0  0  0  0  0  0  0
    4.3415   11.7198    6.1374 H   0  0  0  0  0  0  0  0  0  0  0  0
   15.1561    7.7878    5.2790 H   0  0  0  0  0  0  0  0  0  0  0  0
   22.3033    7.6335    5.1336 H   0  0  0  0  0  0  0  0  0  0  0  0
   22.0841    9.8219    9.4185 H   0  0  0  0  0  0  0  0  0  0  0  0
   24.5130   10.0692   10.2458 H   0  0  0  0  0  0  0  0  0  0  0  0
   27.2491    6.6364    4.2894 H   0  0  0  0  0  0  0  0  0  0  0  0
   28.8458    5.9285    4.6808 H   0  0  0  0  0  0  0  0  0  0  0  0
   28.3860    8.7080    3.4829 H   0  0  0  0  0  0  0  0  0  0  0  0
   29.0287    7.3043    2.6233 H   0  0  0  0  0  0  0  0  0  0  0  0
   29.9560    8.0328    3.9426 H   0  0  0  0  0  0  0  0  0  0  0  0
   19.5548    7.6046    1.5867 H   0  0  0  0  0  0  0  0  0  0  0  0
   21.0450    6.6997   -0.1410 H   0  0  0  0  0  0  0  0  0  0  0  0
   21.6279    5.3749    4.5850 H   0  0  0  0  0  0  0  0  0  0  0  0
   33.9222    8.7937   10.4646 H   0  0  0  0  0  0  0  0  0  0  0  0
   31.4305    9.2455   10.9562 H   0  0  0  0  0  0  0  0  0  0  0  0
   15.4733    7.0909    7.4546 H   0  0  0  0  0  0  0  0  0  0  0  0
   14.2896    8.4561    9.2872 H   0  0  0  0  0  0  0  0  0  0  0  0
   13.8702    9.7437   11.2996 H   0  0  0  0  0  0  0  0  0  0  0  0
   13.1651   10.5725    9.8829 H   0  0  0  0  0  0  0  0  0  0  0  0
   13.8343   11.8999   12.5630 H   0  0  0  0  0  0  0  0  0  0  0  0
   12.2064   11.4648   12.0259 H   0  0  0  0  0  0  0  0  0  0  0  0
   13.1214   12.7111   11.1672 H   0  0  0  0  0  0  0  0  0  0  0  0
   22.9745    5.2981   -0.7699 H   0  0  0  0  0  0  0  0  0  0  0  0
   24.7971    3.7761   -0.1158 H   0  0  0  0  0  0  0  0  0  0  0  0
   25.0950    3.1369    2.2432 H   0  0  0  0  0  0  0  0  0  0  0  0
   23.5691    4.0095    3.9692 H   0  0  0  0  0  0  0  0  0  0  0  0
   34.1568    7.3636    5.8783 H   0  0  0  0  0  0  0  0  0  0  0  0
   41.1771    6.6685    7.0316 H   0  0  0  0  0  0  0  0  0  0  0  0
   43.3996    6.2225    6.0736 H   0  0  0  0  0  0  0  0  0  0  0  0
   45.3392    5.5195    4.5297 H   0  0  0  0  0  0  0  0  0  0  0  0
   40.9289    3.1057   -1.2872 H   0  0  0  0  0  0  0  0  0  0  0  0
   41.6489    3.9008   -2.7093 H   0  0  0  0  0  0  0  0  0  0  0  0
   40.3853    5.3369   -0.3104 H   0  0  0  0  0  0  0  0  0  0  0  0
   39.5769    5.0965   -1.8704 H   0  0  0  0  0  0  0  0  0  0  0  0
   41.0058    6.1298   -1.7609 H   0  0  0  0  0  0  0  0  0  0  0  0
   40.5720    8.9238    7.9038 H   0  0  0  0  0  0  0  0  0  0  0  0
   41.8688    9.3531    9.9484 H   0  0  0  0  0  0  0  0  0  0  0  0
   38.0056    6.2710   10.0558 H   0  0  0  0  0  0  0  0  0  0  0  0
   49.4796    2.8711   -4.0327 H   0  0  0  0  0  0  0  0  0  0  0  0
   47.0581    2.7735   -5.0307 H   0  0  0  0  0  0  0  0  0  0  0  0
   45.2688    3.3900   -3.2311 H   0  0  0  0  0  0  0  0  0  0  0  0
   34.8108    8.4820    4.0324 H   0  0  0  0  0  0  0  0  0  0  0  0
   33.9679    7.8387    1.6642 H   0  0  0  0  0  0  0  0  0  0  0  0
   36.5268    3.7072    0.6756 H   0  0  0  0  0  0  0  0  0  0  0  0
   37.5060    5.0856    0.1184 H   0  0  0  0  0  0  0  0  0  0  0  0
   35.7663    3.3102   -1.6780 H   0  0  0  0  0  0  0  0  0  0  0  0
   37.5271    3.2155   -1.5636 H   0  0  0  0  0  0  0  0  0  0  0  0
   36.7537    4.6631   -2.2291 H   0  0  0  0  0  0  0  0  0  0  0  0
   42.2466    8.9591   12.3530 H   0  0  0  0  0  0  0  0  0  0  0  0
   41.5826    7.8615   14.4552 H   0  0  0  0  0  0  0  0  0  0  0  0
   39.6429    6.3463   14.5067 H   0  0  0  0  0  0  0  0  0  0  0  0
   38.3515    5.9110   12.4542 H   0  0  0  0  0  0  0  0  0  0  0  0
  1  7  1  0  0  0  0
  1  2  2  0  0  0  0
  2  9  1  0  0  0  0
  3  2  1  0  0  0  0
  3 13  1  0  0  0  0
  4  3  2  0  0  0  0
  5  6  2  0  0  0  0
  5  4  1  0  0  0  0
  6  1  1  0  0  0  0
  7  8  2  0  0  0  0
  8161  1  0  0  0  0
  8  9  1  0  0  0  0
 10  4  1  0  0  0  0
 10162  1  0  0  0  0
 11 10  2  0  0  0  0
 12 11  1  0  0  0  0
 12  5  1  0  0  0  0
 13 34  1  0  0  0  0
 14  6  1  0  0  0  0
 15 11  1  0  0  0  0
 15 19  1  0  0  0  0
 16 15  2  0  0  0  0
 17 16  1  0  0  0  0
 17 18  2  0  0  0  0
 18 19  1  0  0  0  0
 20 18  1  0  0  0  0
 20 21  2  0  0  0  0
 21 26  1  0  0  0  0
 22 21  1  0  0  0  0
 22 27  1  0  0  0  0
 23 22  2  0  0  0  0
 24 25  1  0  0  0  0
 24 23  1  0  0  0  0
 25 20  1  0  0  0  0
 28 24  2  0  0  0  0
 29 28  1  0  0  0  0
 29 30  1  0  0  0  0
 30 25  2  0  0  0  0
 31165  1  0  0  0  0
 31 29  1  0  0  0  0
 32167  1  0  0  0  0
 32 31  1  0  0  0  0
 33 23  1  0  0  0  0
 33 39  1  0  0  0  0
 34170  1  0  0  0  0
 34 35  2  0  0  0  0
 35171  1  0  0  0  0
 36 35  1  0  0  0  0
 36 50  2  0  0  0  0
 37 36  1  0  0  0  0
 38 13  2  0  0  0  0
 38 37  1  0  0  0  0
 40 61  1  0  0  0  0
 40 39  1  0  0  0  0
 41 40  2  0  0  0  0
 42 41  1  0  0  0  0
 42 33  2  0  0  0  0
 43175  1  0  0  0  0
 43 14  2  0  0  0  0
 44 43  1  0  0  0  0
 45 44  2  0  0  0  0
 45 46  1  0  0  0  0
 46 14  1  0  0  0  0
 47 48  1  0  0  0  0
 47 45  1  0  0  0  0
 48177  1  0  0  0  0
 49180  1  0  0  0  0
 49179  1  0  0  0  0
 49 48  1  0  0  0  0
 50182  1  0  0  0  0
 51 50  1  0  0  0  0
 51183  1  0  0  0  0
 52 51  2  0  0  0  0
 53 37  2  0  0  0  0
 53 52  1  0  0  0  0
 54 59  2  0  0  0  0
 55 56  2  0  0  0  0
 55 54  1  0  0  0  0
 56 57  1  0  0  0  0
 57 63  1  0  0  0  0
 57 58  2  0  0  0  0
 58 65  1  0  0  0  0
 59 58  1  0  0  0  0
 59 67  1  0  0  0  0
 60 54  1  0  0  0  0
 60186  1  0  0  0  0
 61 60  2  0  0  0  0
 62 61  1  0  0  0  0
 62 55  1  0  0  0  0
 63 64  2  0  0  0  0
 64 68  1  0  0  0  0
 64 65  1  0  0  0  0
 66 91  1  0  0  0  0
 66 56  1  0  0  0  0
 67 96  2  0  0  0  0
 67 99  1  0  0  0  0
 68 69  2  0  0  0  0
 69 70  1  0  0  0  0
 69188  1  0  0  0  0
 70189  1  0  0  0  0
 71 73  1  0  0  0  0
 71 70  2  0  0  0  0
 72 68  1  0  0  0  0
 72 71  1  0  0  0  0
 73 74  2  0  0  0  0
 74 75  1  0  0  0  0
 74 79  1  0  0  0  0
 75 80  1  0  0  0  0
 76 86  1  0  0  0  0
 76 75  2  0  0  0  0
 77 76  1  0  0  0  0
 78 77  1  0  0  0  0
 78 73  1  0  0  0  0
 81 77  2  0  0  0  0
 82 83  1  0  0  0  0
 82 81  1  0  0  0  0
 83 78  2  0  0  0  0
 84191  1  0  0  0  0
 84 82  1  0  0  0  0
 85194  1  0  0  0  0
 85 84  1  0  0  0  0
 86 95  2  0  0  0  0
 87 66  2  0  0  0  0
 88 89  2  0  0  0  0
 88 87  1  0  0  0  0
 89 90  1  0  0  0  0
 90106  1  0  0  0  0
 90 91  2  0  0  0  0
 91197  1  0  0  0  0
 92 93  1  0  0  0  0
 92 86  1  0  0  0  0
 93 94  2  0  0  0  0
 94 95  1  0  0  0  0
 94198  1  0  0  0  0
 95199  1  0  0  0  0
 96 97  1  0  0  0  0
 97 98  2  0  0  0  0
 97201  1  0  0  0  0
 98100  1  0  0  0  0
 99 98  1  0  0  0  0
100101  1  0  0  0  0
101202  1  0  0  0  0
101102  1  0  0  0  0
102205  1  0  0  0  0
102204  1  0  0  0  0
103104  2  0  0  0  0
103 89  1  0  0  0  0
104105  1  0  0  0  0
105209  1  0  0  0  0
105106  2  0  0  0  0
106210  1  0  0  0  0
107113  1  0  0  0  0
107108  2  0  0  0  0
108109  1  0  0  0  0
108115  1  0  0  0  0
109119  1  0  0  0  0
110109  2  0  0  0  0
111110  1  0  0  0  0
112111  2  0  0  0  0
112107  1  0  0  0  0
113114  2  0  0  0  0
114 93  1  0  0  0  0
114115  1  0  0  0  0
116110  1  0  0  0  0
116212  1  0  0  0  0
117116  2  0  0  0  0
118117  1  0  0  0  0
118111  1  0  0  0  0
119144  1  0  0  0  0
120112  1  0  0  0  0
121117  1  0  0  0  0
121122  2  0  0  0  0
122213  1  0  0  0  0
123214  1  0  0  0  0
123122  1  0  0  0  0
124123  2  0  0  0  0
125124  1  0  0  0  0
125121  1  0  0  0  0
126124  1  0  0  0  0
127126  2  0  0  0  0
127132  1  0  0  0  0
128133  1  0  0  0  0
128127  1  0  0  0  0
129130  1  0  0  0  0
129128  2  0  0  0  0
130131  1  0  0  0  0
131126  1  0  0  0  0
134135  1  0  0  0  0
134130  2  0  0  0  0
135136  1  0  0  0  0
136131  2  0  0  0  0
137138  1  0  0  0  0
137215  1  0  0  0  0
137135  1  0  0  0  0
138217  1  0  0  0  0
139129  1  0  0  0  0
140119  2  0  0  0  0
140141  1  0  0  0  0
141142  2  0  0  0  0
142143  1  0  0  0  0
142156  1  0  0  0  0
143159  1  0  0  0  0
144222  1  0  0  0  0
144143  2  0  0  0  0
145139  1  0  0  0  0
146145  1  0  0  0  0
147146  2  0  0  0  0
147148  1  0  0  0  0
148139  2  0  0  0  0
149120  2  0  0  0  0
149226  1  0  0  0  0
150149  1  0  0  0  0
151150  2  0  0  0  0
151152  1  0  0  0  0
152120  1  0  0  0  0
153151  1  0  0  0  0
154153  1  0  0  0  0
154229  1  0  0  0  0
154228  1  0  0  0  0
155154  1  0  0  0  0
156157  2  0  0  0  0
157158  1  0  0  0  0
157234  1  0  0  0  0
158235  1  0  0  0  0
159236  1  0  0  0  0
159158  2  0  0  0  0
160  7  1  0  0  0  0
163 16  1  0  0  0  0
164 17  1  0  0  0  0
166 31  1  0  0  0  0
168 32  1  0  0  0  0
169 32  1  0  0  0  0
172 38  1  0  0  0  0
173 41  1  0  0  0  0
174 42  1  0  0  0  0
176 44  1  0  0  0  0
178 48  1  0  0  0  0
181 49  1  0  0  0  0
184 52  1  0  0  0  0
185 53  1  0  0  0  0
187 63  1  0  0  0  0
190 84  1  0  0  0  0
192 85  1  0  0  0  0
193 85  1  0  0  0  0
195 87  1  0  0  0  0
196 88  1  0  0  0  0
200 96  1  0  0  0  0
203101  1  0  0  0  0
206102  1  0  0  0  0
207103  1  0  0  0  0
208104  1  0  0  0  0
211113  1  0  0  0  0
216137  1  0  0  0  0
218138  1  0  0  0  0
219138  1  0  0  0  0
220140  1  0  0  0  0
221141  1  0  0  0  0
223146  1  0  0  0  0
224147  1  0  0  0  0
225148  1  0  0  0  0
227150  1  0  0  0  0
230155  1  0  0  0  0
231155  1  0  0  0  0
232155  1  0  0  0  0
233156  1  0  0  0  0
M  END
