SCF done       -352.160525704900          0.000594567278
 OpenBabel12282109573D

203223  0  0  0  0  0  0  0  0999 V2000
   -4.2556   -7.5784    5.8051 C   0  0  0  0  0  0  0  0  0  0  0  0
   -3.6447   -6.4163    6.3291 C   0  0  0  0  0  0  0  0  0  0  0  0
   -3.8502   -5.1373    5.8141 C   0  0  0  0  0  0  0  0  0  0  0  0
   -4.7291   -5.0427    4.7167 C   0  0  0  0  0  0  0  0  0  0  0  0
   -5.3395   -6.2076    4.1933 C   0  0  0  0  0  0  0  0  0  0  0  0
   -5.1335   -7.4834    4.7096 C   0  0  0  0  0  0  0  0  0  0  0  0
   -5.1679   -3.8733    4.0470 C   0  0  0  0  0  0  0  0  0  0  0  0
   -6.0627   -4.1149    3.0466 C   0  0  0  0  0  0  0  0  0  0  0  0
   -6.4150   -5.8210    2.8772 S   0  0  0  0  0  0  0  0  0  0  0  0
   -3.8108   -8.7545    6.4785 C   0  0  0  0  0  0  0  0  0  0  0  0
   -2.9224   -8.4978    7.4587 C   0  0  0  0  0  0  0  0  0  0  0  0
   -2.5655   -6.8161    7.6401 S   0  0  0  0  0  0  0  0  0  0  0  0
   -5.8047   -8.6312    4.1363 C   0  0  0  0  0  0  0  0  0  0  0  0
   -3.1784   -3.9878    6.3798 C   0  0  0  0  0  0  0  0  0  0  0  0
   -6.6868   -3.1584    2.1918 C   0  0  0  0  0  0  0  0  0  0  0  0
   -6.0254   -8.9111    2.8160 C   0  0  0  0  0  0  0  0  0  0  0  0
   -6.7491  -10.0950    2.5987 C   0  0  0  0  0  0  0  0  0  0  0  0
   -7.1080  -10.7184    3.7603 C   0  0  0  0  0  0  0  0  0  0  0  0
   -6.5341   -9.8512    5.1499 S   0  0  0  0  0  0  0  0  0  0  0  0
   -2.9002   -3.7372    7.6949 C   0  0  0  0  0  0  0  0  0  0  0  0
   -2.1890   -2.5438    7.9155 C   0  0  0  0  0  0  0  0  0  0  0  0
   -1.9039   -1.8807    6.7566 C   0  0  0  0  0  0  0  0  0  0  0  0
   -2.5234   -2.7184    5.3705 S   0  0  0  0  0  0  0  0  0  0  0  0
   -7.8800   -3.6356    1.0230 S   0  0  0  0  0  0  0  0  0  0  0  0
   -8.0950   -2.0012    0.4639 C   0  0  0  0  0  0  0  0  0  0  0  0
   -7.2632   -1.1353    1.1726 C   0  0  0  0  0  0  0  0  0  0  0  0
   -6.4826   -1.8056    2.1403 C   0  0  0  0  0  0  0  0  0  0  0  0
   -8.0303  -12.1947    3.8689 S   0  0  0  0  0  0  0  0  0  0  0  0
   -8.0561  -12.4604    5.6821 C   0  0  0  0  0  0  0  0  0  0  0  0
   -1.0616   -0.3750    6.4875 S   0  0  0  0  0  0  0  0  0  0  0  0
   -0.4966    0.0333    8.1825 C   0  0  0  0  0  0  0  0  0  0  0  0
   -7.1043    0.3155    0.9821 C   0  0  0  0  0  0  0  0  0  0  0  0
   -7.5103    0.9709    0.0514 O   0  0  0  0  0  0  0  0  0  0  0  0
   -6.4151    0.8526    2.0017 O   0  0  0  0  0  0  0  0  0  0  0  0
   -6.1345    2.2486    1.9240 C   0  0  0  0  0  0  0  0  0  0  0  0
   -4.9061    2.5228    1.0677 C   0  0  0  0  0  0  0  0  0  0  0  0
   -8.7901  -13.7477    5.9986 C   0  0  0  0  0  0  0  0  0  0  0  0
    0.3401    1.2969    8.1371 C   0  0  0  0  0  0  0  0  0  0  0  0
   -9.0724   -1.8021   -0.5524 C   0  0  0  0  0  0  0  0  0  0  0  0
   -9.5887   -0.6572   -1.1210 C   0  0  0  0  0  0  0  0  0  0  0  0
  -10.5810   -0.9045   -2.0704 C   0  0  0  0  0  0  0  0  0  0  0  0
  -10.8449   -2.2427   -2.2576 C   0  0  0  0  0  0  0  0  0  0  0  0
   -9.8414   -3.2187   -1.2302 S   0  0  0  0  0  0  0  0  0  0  0  0
  -13.0007   -4.5449   -4.1908 C   0  0  0  0  0  0  0  0  0  0  0  0
  -13.5886   -3.3887   -4.7599 C   0  0  0  0  0  0  0  0  0  0  0  0
  -14.6182   -3.4350   -5.6936 C   0  0  0  0  0  0  0  0  0  0  0  0
  -15.0391   -4.7215   -6.0901 C   0  0  0  0  0  0  0  0  0  0  0  0
  -14.4692   -5.8781   -5.5046 C   0  0  0  0  0  0  0  0  0  0  0  0
  -13.4623   -5.8333   -4.5421 C   0  0  0  0  0  0  0  0  0  0  0  0
  -16.0075   -5.0466   -7.0694 C   0  0  0  0  0  0  0  0  0  0  0  0
  -16.2189   -6.3868   -7.2131 C   0  0  0  0  0  0  0  0  0  0  0  0
  -15.2141   -7.3256   -6.1328 S   0  0  0  0  0  0  0  0  0  0  0  0
  -11.9655   -4.2061   -3.2894 C   0  0  0  0  0  0  0  0  0  0  0  0
  -11.7864   -2.8641   -3.1221 C   0  0  0  0  0  0  0  0  0  0  0  0
  -12.8844   -1.9288   -4.1119 S   0  0  0  0  0  0  0  0  0  0  0  0
  -12.9238   -7.0339   -3.9441 C   0  0  0  0  0  0  0  0  0  0  0  0
  -15.2308   -2.2246   -6.1947 C   0  0  0  0  0  0  0  0  0  0  0  0
  -17.1016   -7.0123   -8.1441 C   0  0  0  0  0  0  0  0  0  0  0  0
  -12.7316   -8.2640   -4.5178 C   0  0  0  0  0  0  0  0  0  0  0  0
  -12.1476   -9.2105   -3.6619 C   0  0  0  0  0  0  0  0  0  0  0  0
  -11.8972   -8.7152   -2.4120 C   0  0  0  0  0  0  0  0  0  0  0  0
  -12.4169   -7.0674   -2.2717 S   0  0  0  0  0  0  0  0  0  0  0  0
  -14.6373   -1.0299   -6.4993 C   0  0  0  0  0  0  0  0  0  0  0  0
  -15.5386   -0.0300   -6.8992 C   0  0  0  0  0  0  0  0  0  0  0  0
  -16.8387   -0.4516   -6.8870 C   0  0  0  0  0  0  0  0  0  0  0  0
  -16.9629   -2.1110   -6.3941 S   0  0  0  0  0  0  0  0  0  0  0  0
  -17.5391   -8.6936   -8.0250 S   0  0  0  0  0  0  0  0  0  0  0  0
  -18.5377   -8.6078   -9.4512 C   0  0  0  0  0  0  0  0  0  0  0  0
  -18.5080   -7.3179   -9.9796 C   0  0  0  0  0  0  0  0  0  0  0  0
  -17.7066   -6.4338   -9.2258 C   0  0  0  0  0  0  0  0  0  0  0  0
  -11.1501   -9.5773   -1.0938 S   0  0  0  0  0  0  0  0  0  0  0  0
  -10.6592   -8.1897    0.0048 C   0  0  0  0  0  0  0  0  0  0  0  0
  -18.2220    0.5139   -7.3306 S   0  0  0  0  0  0  0  0  0  0  0  0
  -19.5905   -0.6524   -6.9746 C   0  0  0  0  0  0  0  0  0  0  0  0
  -19.1875   -6.8706  -11.1931 C   0  0  0  0  0  0  0  0  0  0  0  0
  -19.7037   -7.5886  -12.0242 O   0  0  0  0  0  0  0  0  0  0  0  0
  -19.1720   -5.5345  -11.3046 O   0  0  0  0  0  0  0  0  0  0  0  0
  -19.7809   -4.9831  -12.4711 C   0  0  0  0  0  0  0  0  0  0  0  0
  -18.8504   -5.0475  -13.6737 C   0  0  0  0  0  0  0  0  0  0  0  0
   -9.6219   -8.6660    1.0008 C   0  0  0  0  0  0  0  0  0  0  0  0
  -20.9198    0.0152   -7.2636 C   0  0  0  0  0  0  0  0  0  0  0  0
  -19.2460   -9.7764   -9.8359 C   0  0  0  0  0  0  0  0  0  0  0  0
  -19.3125  -10.9475   -9.0973 C   0  0  0  0  0  0  0  0  0  0  0  0
  -20.0907  -11.9400   -9.6825 C   0  0  0  0  0  0  0  0  0  0  0  0
  -20.6292  -11.5473  -10.8896 C   0  0  0  0  0  0  0  0  0  0  0  0
  -20.1657   -9.9246  -11.3032 S   0  0  0  0  0  0  0  0  0  0  0  0
  -22.6803  -12.7784  -13.7064 C   0  0  0  0  0  0  0  0  0  0  0  0
  -22.8743  -13.9665  -12.9601 C   0  0  0  0  0  0  0  0  0  0  0  0
  -23.6167  -15.0492  -13.4249 C   0  0  0  0  0  0  0  0  0  0  0  0
  -24.1910  -14.9052  -14.7067 C   0  0  0  0  0  0  0  0  0  0  0  0
  -23.9809  -13.7230  -15.4576 C   0  0  0  0  0  0  0  0  0  0  0  0
  -23.2290  -12.6452  -14.9997 C   0  0  0  0  0  0  0  0  0  0  0  0
  -24.9957  -15.8336  -15.4115 C   0  0  0  0  0  0  0  0  0  0  0  0
  -25.3528  -15.4209  -16.6602 C   0  0  0  0  0  0  0  0  0  0  0  0
  -24.7364  -13.8253  -17.0272 S   0  0  0  0  0  0  0  0  0  0  0  0
  -21.9016  -11.8370  -12.9968 C   0  0  0  0  0  0  0  0  0  0  0  0
  -21.4563  -12.2792  -11.7853 C   0  0  0  0  0  0  0  0  0  0  0  0
  -22.0243  -13.8980  -11.4356 S   0  0  0  0  0  0  0  0  0  0  0  0
  -23.0061  -11.4749  -15.8187 C   0  0  0  0  0  0  0  0  0  0  0  0
  -23.7671  -16.2501  -12.6337 C   0  0  0  0  0  0  0  0  0  0  0  0
  -26.1264  -16.1363  -17.6184 C   0  0  0  0  0  0  0  0  0  0  0  0
  -23.8663  -10.8708  -16.6969 C   0  0  0  0  0  0  0  0  0  0  0  0
  -23.3247   -9.7512  -17.3480 C   0  0  0  0  0  0  0  0  0  0  0  0
  -22.0313   -9.4997  -16.9825 C   0  0  0  0  0  0  0  0  0  0  0  0
  -21.4637  -10.6558  -15.8229 S   0  0  0  0  0  0  0  0  0  0  0  0
  -23.8979  -16.3592  -11.2749 C   0  0  0  0  0  0  0  0  0  0  0  0
  -24.0115  -17.6808  -10.8154 C   0  0  0  0  0  0  0  0  0  0  0  0
  -23.9528  -18.6004  -11.8250 C   0  0  0  0  0  0  0  0  0  0  0  0
  -23.7494  -17.8348  -13.3680 S   0  0  0  0  0  0  0  0  0  0  0  0
  -26.7535  -17.7188  -17.2586 S   0  0  0  0  0  0  0  0  0  0  0  0
  -27.4934  -17.8588  -18.8283 C   0  0  0  0  0  0  0  0  0  0  0  0
  -27.2469  -16.7177  -19.5835 C   0  0  0  0  0  0  0  0  0  0  0  0
  -26.4725  -15.7622  -18.8866 C   0  0  0  0  0  0  0  0  0  0  0  0
  -21.0359   -8.1990  -17.5805 S   0  0  0  0  0  0  0  0  0  0  0  0
  -19.5876   -8.3221  -16.4623 C   0  0  0  0  0  0  0  0  0  0  0  0
  -24.0574  -20.3307  -11.6360 S   0  0  0  0  0  0  0  0  0  0  0  0
  -24.2356  -20.8591  -13.3831 C   0  0  0  0  0  0  0  0  0  0  0  0
  -27.6752  -16.4345  -20.9647 C   0  0  0  0  0  0  0  0  0  0  0  0
  -28.6261  -16.9073  -21.5407 O   0  0  0  0  0  0  0  0  0  0  0  0
  -26.8529  -15.5371  -21.5283 O   0  0  0  0  0  0  0  0  0  0  0  0
  -27.1637  -15.1169  -22.8551 C   0  0  0  0  0  0  0  0  0  0  0  0
  -28.1958  -13.9981  -22.8563 C   0  0  0  0  0  0  0  0  0  0  0  0
  -18.5544   -7.2862  -16.8570 C   0  0  0  0  0  0  0  0  0  0  0  0
  -24.4681  -22.3550  -13.4445 C   0  0  0  0  0  0  0  0  0  0  0  0
  -28.1685  -19.0839  -19.1202 C   0  0  0  0  0  0  0  0  0  0  0  0
  -29.0318  -19.4183  -20.1343 C   0  0  0  0  0  0  0  0  0  0  0  0
  -29.4923  -20.7437  -20.0541 C   0  0  0  0  0  0  0  0  0  0  0  0
  -28.9882  -21.4187  -18.9862 C   0  0  0  0  0  0  0  0  0  0  0  0
  -27.9346  -20.4465  -18.0471 S   0  0  0  0  0  0  0  0  0  0  0  0
   -4.8486   -2.8827    4.3082 H   0  0  0  0  0  0  0  0  0  0  0  0
   -4.1347   -9.7462    6.2228 H   0  0  0  0  0  0  0  0  0  0  0  0
   -2.4369   -9.1979    8.1098 H   0  0  0  0  0  0  0  0  0  0  0  0
   -5.6439   -8.3013    2.0173 H   0  0  0  0  0  0  0  0  0  0  0  0
   -6.9965  -10.4870    1.6301 H   0  0  0  0  0  0  0  0  0  0  0  0
   -3.2294   -4.3706    8.4984 H   0  0  0  0  0  0  0  0  0  0  0  0
   -1.9099   -2.2022    8.8946 H   0  0  0  0  0  0  0  0  0  0  0  0
   -5.7811   -1.2892    2.7679 H   0  0  0  0  0  0  0  0  0  0  0  0
   -8.5510  -11.5984    6.1307 H   0  0  0  0  0  0  0  0  0  0  0  0
   -7.0196  -12.5003    6.0189 H   0  0  0  0  0  0  0  0  0  0  0  0
    0.0857   -0.8138    8.5448 H   0  0  0  0  0  0  0  0  0  0  0  0
   -1.3832    0.1702    8.8016 H   0  0  0  0  0  0  0  0  0  0  0  0
   -5.9722    2.5607    2.9577 H   0  0  0  0  0  0  0  0  0  0  0  0
   -7.0070    2.7652    1.5100 H   0  0  0  0  0  0  0  0  0  0  0  0
   -4.0497    1.9736    1.4517 H   0  0  0  0  0  0  0  0  0  0  0  0
   -4.6828    3.5857    1.0808 H   0  0  0  0  0  0  0  0  0  0  0  0
   -5.0935    2.2145    0.0420 H   0  0  0  0  0  0  0  0  0  0  0  0
   -9.8136  -13.7019    5.6346 H   0  0  0  0  0  0  0  0  0  0  0  0
   -8.8079  -13.9055    7.0746 H   0  0  0  0  0  0  0  0  0  0  0  0
   -8.2946  -14.5939    5.5289 H   0  0  0  0  0  0  0  0  0  0  0  0
    1.2075    1.1563    7.4965 H   0  0  0  0  0  0  0  0  0  0  0  0
    0.6817    1.5489    9.1386 H   0  0  0  0  0  0  0  0  0  0  0  0
   -0.2448    2.1271    7.7480 H   0  0  0  0  0  0  0  0  0  0  0  0
   -9.2448    0.3250   -0.8601 H   0  0  0  0  0  0  0  0  0  0  0  0
  -11.0993   -0.1338   -2.6132 H   0  0  0  0  0  0  0  0  0  0  0  0
  -16.5278   -4.3146   -7.6571 H   0  0  0  0  0  0  0  0  0  0  0  0
  -11.3434   -4.9168   -2.7787 H   0  0  0  0  0  0  0  0  0  0  0  0
  -12.9488   -8.4719   -5.5495 H   0  0  0  0  0  0  0  0  0  0  0  0
  -11.8987  -10.2145   -3.9517 H   0  0  0  0  0  0  0  0  0  0  0  0
  -13.5734   -0.8803   -6.4714 H   0  0  0  0  0  0  0  0  0  0  0  0
  -15.2511    0.9650   -7.1844 H   0  0  0  0  0  0  0  0  0  0  0  0
  -17.5714   -5.4057   -9.5036 H   0  0  0  0  0  0  0  0  0  0  0  0
  -11.5597   -7.8293    0.5025 H   0  0  0  0  0  0  0  0  0  0  0  0
  -10.2558   -7.4025   -0.6322 H   0  0  0  0  0  0  0  0  0  0  0  0
  -19.5085   -0.9383   -5.9255 H   0  0  0  0  0  0  0  0  0  0  0  0
  -19.4414   -1.5311   -7.6032 H   0  0  0  0  0  0  0  0  0  0  0  0
  -20.0109   -3.9494  -12.2050 H   0  0  0  0  0  0  0  0  0  0  0  0
  -20.7066   -5.5293  -12.6810 H   0  0  0  0  0  0  0  0  0  0  0  0
  -17.9167   -4.5340  -13.4571 H   0  0  0  0  0  0  0  0  0  0  0  0
  -19.3272   -4.5737  -14.5268 H   0  0  0  0  0  0  0  0  0  0  0  0
  -18.6355   -6.0845  -13.9186 H   0  0  0  0  0  0  0  0  0  0  0  0
  -10.0142   -9.4748    1.6126 H   0  0  0  0  0  0  0  0  0  0  0  0
   -9.3288   -7.8438    1.6499 H   0  0  0  0  0  0  0  0  0  0  0  0
   -8.7386   -9.0253    0.4798 H   0  0  0  0  0  0  0  0  0  0  0  0
  -21.0446    0.8997   -6.6436 H   0  0  0  0  0  0  0  0  0  0  0  0
  -21.7314   -0.6774   -7.0527 H   0  0  0  0  0  0  0  0  0  0  0  0
  -20.9774    0.3148   -8.3073 H   0  0  0  0  0  0  0  0  0  0  0  0
  -18.8093  -11.0589   -8.1524 H   0  0  0  0  0  0  0  0  0  0  0  0
  -20.2588  -12.9118   -9.2529 H   0  0  0  0  0  0  0  0  0  0  0  0
  -25.3173  -16.7805  -15.0189 H   0  0  0  0  0  0  0  0  0  0  0  0
  -21.6708  -10.8483  -13.3471 H   0  0  0  0  0  0  0  0  0  0  0  0
  -24.8823  -11.1917  -16.8379 H   0  0  0  0  0  0  0  0  0  0  0  0
  -23.8607   -9.1432  -18.0530 H   0  0  0  0  0  0  0  0  0  0  0  0
  -23.9598  -15.5080  -10.6218 H   0  0  0  0  0  0  0  0  0  0  0  0
  -24.1411  -17.9538   -9.7846 H   0  0  0  0  0  0  0  0  0  0  0  0
  -26.1839  -14.8199  -19.3158 H   0  0  0  0  0  0  0  0  0  0  0  0
  -19.1888   -9.3324  -16.5581 H   0  0  0  0  0  0  0  0  0  0  0  0
  -19.9446   -8.1670  -15.4435 H   0  0  0  0  0  0  0  0  0  0  0  0
  -23.3204  -20.5766  -13.9045 H   0  0  0  0  0  0  0  0  0  0  0  0
  -25.0785  -20.3094  -13.8033 H   0  0  0  0  0  0  0  0  0  0  0  0
  -27.5361  -15.9760  -23.4230 H   0  0  0  0  0  0  0  0  0  0  0  0
  -26.2137  -14.7773  -23.2729 H   0  0  0  0  0  0  0  0  0  0  0  0
  -29.1347  -14.3592  -22.4438 H   0  0  0  0  0  0  0  0  0  0  0  0
  -28.3653  -13.6601  -23.8745 H   0  0  0  0  0  0  0  0  0  0  0  0
  -27.8446  -13.1614  -22.2571 H   0  0  0  0  0  0  0  0  0  0  0  0
  -18.2174   -7.4545  -17.8770 H   0  0  0  0  0  0  0  0  0  0  0  0
  -17.6967   -7.3506  -16.1914 H   0  0  0  0  0  0  0  0  0  0  0  0
  -18.9730   -6.2849  -16.7937 H   0  0  0  0  0  0  0  0  0  0  0  0
  -23.6301  -22.8904  -13.0044 H   0  0  0  0  0  0  0  0  0  0  0  0
  -24.5777  -22.6655  -14.4810 H   0  0  0  0  0  0  0  0  0  0  0  0
  -25.3718  -22.6223  -12.9019 H   0  0  0  0  0  0  0  0  0  0  0  0
  -29.3268  -18.7263  -20.8992 H   0  0  0  0  0  0  0  0  0  0  0  0
  -30.1743  -21.1779  -20.7629 H   0  0  0  0  0  0  0  0  0  0  0  0
  -29.1723  -22.4324  -18.6901 H   0  0  0  0  0  0  0  0  0  0  0  0
  1  2  2  0  0  0  0
  1 10  1  0  0  0  0
  2 12  1  0  0  0  0
  3  2  1  0  0  0  0
  3 14  1  0  0  0  0
  4  3  2  0  0  0  0
  5  6  2  0  0  0  0
  5  4  1  0  0  0  0
  6  1  1  0  0  0  0
  7130  1  0  0  0  0
  7  4  1  0  0  0  0
  8  7  2  0  0  0  0
  9  8  1  0  0  0  0
  9  5  1  0  0  0  0
 10 11  2  0  0  0  0
 11 12  1  0  0  0  0
 11132  1  0  0  0  0
 13  6  1  0  0  0  0
 13 19  1  0  0  0  0
 14 20  2  0  0  0  0
 15  8  1  0  0  0  0
 16 13  2  0  0  0  0
 17 16  1  0  0  0  0
 17 18  2  0  0  0  0
 18 28  1  0  0  0  0
 18 19  1  0  0  0  0
 20 21  1  0  0  0  0
 20135  1  0  0  0  0
 21136  1  0  0  0  0
 22 21  2  0  0  0  0
 23 14  1  0  0  0  0
 23 22  1  0  0  0  0
 24 15  1  0  0  0  0
 25 24  1  0  0  0  0
 25 26  2  0  0  0  0
 26 27  1  0  0  0  0
 27 15  2  0  0  0  0
 27137  1  0  0  0  0
 28 29  1  0  0  0  0
 29 37  1  0  0  0  0
 29139  1  0  0  0  0
 29138  1  0  0  0  0
 30 22  1  0  0  0  0
 30 31  1  0  0  0  0
 31140  1  0  0  0  0
 31141  1  0  0  0  0
 32 26  1  0  0  0  0
 32 34  1  0  0  0  0
 33 32  2  0  0  0  0
 35 34  1  0  0  0  0
 35142  1  0  0  0  0
 36145  1  0  0  0  0
 36144  1  0  0  0  0
 36 35  1  0  0  0  0
 37148  1  0  0  0  0
 38 31  1  0  0  0  0
 38151  1  0  0  0  0
 39 25  1  0  0  0  0
 40153  1  0  0  0  0
 40 39  2  0  0  0  0
 41 40  1  0  0  0  0
 42 41  2  0  0  0  0
 42 43  1  0  0  0  0
 43 39  1  0  0  0  0
 44 53  1  0  0  0  0
 45 44  2  0  0  0  0
 45 55  1  0  0  0  0
 46 45  1  0  0  0  0
 47 46  2  0  0  0  0
 47 48  1  0  0  0  0
 48 49  2  0  0  0  0
 49 44  1  0  0  0  0
 49 56  1  0  0  0  0
 50 47  1  0  0  0  0
 51 50  2  0  0  0  0
 51 52  1  0  0  0  0
 52 48  1  0  0  0  0
 53 54  2  0  0  0  0
 53156  1  0  0  0  0
 54 42  1  0  0  0  0
 55 54  1  0  0  0  0
 56 62  1  0  0  0  0
 57 46  1  0  0  0  0
 58 67  1  0  0  0  0
 58 51  1  0  0  0  0
 59 56  2  0  0  0  0
 59 60  1  0  0  0  0
 60 61  2  0  0  0  0
 61 62  1  0  0  0  0
 61 71  1  0  0  0  0
 63159  1  0  0  0  0
 63 57  2  0  0  0  0
 64 65  2  0  0  0  0
 64 63  1  0  0  0  0
 65 66  1  0  0  0  0
 66 57  1  0  0  0  0
 68 67  1  0  0  0  0
 69 68  2  0  0  0  0
 69 70  1  0  0  0  0
 70 58  2  0  0  0  0
 71 72  1  0  0  0  0
 72162  1  0  0  0  0
 72 80  1  0  0  0  0
 73 74  1  0  0  0  0
 73 65  1  0  0  0  0
 74164  1  0  0  0  0
 75 69  1  0  0  0  0
 76 75  2  0  0  0  0
 77 75  1  0  0  0  0
 78166  1  0  0  0  0
 78 77  1  0  0  0  0
 79168  1  0  0  0  0
 79 78  1  0  0  0  0
 80171  1  0  0  0  0
 80172  1  0  0  0  0
 81175  1  0  0  0  0
 81 74  1  0  0  0  0
 81174  1  0  0  0  0
 82 68  1  0  0  0  0
 82 83  2  0  0  0  0
 83177  1  0  0  0  0
 84178  1  0  0  0  0
 84 83  1  0  0  0  0
 85 84  2  0  0  0  0
 86 85  1  0  0  0  0
 86 82  1  0  0  0  0
 87 96  1  0  0  0  0
 87 88  2  0  0  0  0
 88 98  1  0  0  0  0
 89 88  1  0  0  0  0
 89100  1  0  0  0  0
 90 89  2  0  0  0  0
 91 92  2  0  0  0  0
 91 90  1  0  0  0  0
 92 87  1  0  0  0  0
 93179  1  0  0  0  0
 93 90  1  0  0  0  0
 94 93  2  0  0  0  0
 95 94  1  0  0  0  0
 95 91  1  0  0  0  0
 96 97  2  0  0  0  0
 97 98  1  0  0  0  0
 97 85  1  0  0  0  0
 99 92  1  0  0  0  0
100106  2  0  0  0  0
101110  1  0  0  0  0
101 94  1  0  0  0  0
102 99  2  0  0  0  0
103104  2  0  0  0  0
103102  1  0  0  0  0
104105  1  0  0  0  0
105 99  1  0  0  0  0
106107  1  0  0  0  0
106183  1  0  0  0  0
107184  1  0  0  0  0
108116  1  0  0  0  0
108107  2  0  0  0  0
109100  1  0  0  0  0
109108  1  0  0  0  0
111110  1  0  0  0  0
112113  1  0  0  0  0
112111  2  0  0  0  0
113101  2  0  0  0  0
114104  1  0  0  0  0
114115  1  0  0  0  0
115187  1  0  0  0  0
117116  1  0  0  0  0
118112  1  0  0  0  0
119118  2  0  0  0  0
120118  1  0  0  0  0
121120  1  0  0  0  0
122121  1  0  0  0  0
122192  1  0  0  0  0
122194  1  0  0  0  0
123197  1  0  0  0  0
123115  1  0  0  0  0
123196  1  0  0  0  0
124117  1  0  0  0  0
124198  1  0  0  0  0
124200  1  0  0  0  0
125111  1  0  0  0  0
125129  1  0  0  0  0
126127  1  0  0  0  0
126125  2  0  0  0  0
127128  2  0  0  0  0
128203  1  0  0  0  0
128129  1  0  0  0  0
131 10  1  0  0  0  0
133 16  1  0  0  0  0
134 17  1  0  0  0  0
143 35  1  0  0  0  0
146 36  1  0  0  0  0
147 37  1  0  0  0  0
149 37  1  0  0  0  0
150 38  1  0  0  0  0
152 38  1  0  0  0  0
154 41  1  0  0  0  0
155 50  1  0  0  0  0
157 59  1  0  0  0  0
158 60  1  0  0  0  0
160 64  1  0  0  0  0
161 70  1  0  0  0  0
163 72  1  0  0  0  0
165 74  1  0  0  0  0
167 78  1  0  0  0  0
169 79  1  0  0  0  0
170 79  1  0  0  0  0
173 80  1  0  0  0  0
176 81  1  0  0  0  0
180 96  1  0  0  0  0
181102  1  0  0  0  0
182103  1  0  0  0  0
185113  1  0  0  0  0
186115  1  0  0  0  0
188117  1  0  0  0  0
189117  1  0  0  0  0
190121  1  0  0  0  0
191121  1  0  0  0  0
193122  1  0  0  0  0
195123  1  0  0  0  0
199124  1  0  0  0  0
201126  1  0  0  0  0
202127  1  0  0  0  0
M  END
