SCF done       -521.492078880242          0.000634771928
 OpenBabel12282109573D

314349  0  0  0  0  0  0  0  0999 V2000
   -0.4435    4.7871   -2.3937 C   0  0  0  0  0  0  0  0  0  0  0  0
   -1.7065    5.0301   -1.8322 C   0  0  0  0  0  0  0  0  0  0  0  0
   -1.8290    5.4059   -0.4717 C   0  0  0  0  0  0  0  0  0  0  0  0
   -0.7384    5.5665    0.3678 C   0  0  0  0  0  0  0  0  0  0  0  0
    0.5226    5.2947   -0.1892 C   0  0  0  0  0  0  0  0  0  0  0  0
    0.6470    4.9116   -1.5464 C   0  0  0  0  0  0  0  0  0  0  0  0
   -2.9826    4.9278   -2.4632 C   0  0  0  0  0  0  0  0  0  0  0  0
   -4.0039    5.2341   -1.6384 C   0  0  0  0  0  0  0  0  0  0  0  0
   -3.5008    5.6613   -0.0377 S   0  0  0  0  0  0  0  0  0  0  0  0
    1.7764    5.3308    0.4645 C   0  0  0  0  0  0  0  0  0  0  0  0
    2.8329    5.0368   -0.3463 C   0  0  0  0  0  0  0  0  0  0  0  0
    2.3224    4.6660   -1.9844 S   0  0  0  0  0  0  0  0  0  0  0  0
   -0.2811    4.4228   -3.8080 C   0  0  0  0  0  0  0  0  0  0  0  0
   -0.8270    5.9798    1.7739 C   0  0  0  0  0  0  0  0  0  0  0  0
    4.1940    5.0168    0.0655 C   0  0  0  0  0  0  0  0  0  0  0  0
    5.3226    4.6732   -0.6504 C   0  0  0  0  0  0  0  0  0  0  0  0
    6.4776    4.7531    0.1157 C   0  0  0  0  0  0  0  0  0  0  0  0
    6.2620    5.1604    1.4259 C   0  0  0  0  0  0  0  0  0  0  0  0
    4.5727    5.4748    1.6969 S   0  0  0  0  0  0  0  0  0  0  0  0
    7.2717    5.2477    2.4156 C   0  0  0  0  0  0  0  0  0  0  0  0
    8.9029    4.8618    1.9233 S   0  0  0  0  0  0  0  0  0  0  0  0
    9.5337    5.0581    3.5410 C   0  0  0  0  0  0  0  0  0  0  0  0
    8.5093    5.4047    4.4164 C   0  0  0  0  0  0  0  0  0  0  0  0
    7.2360    5.5343    3.7764 C   0  0  0  0  0  0  0  0  0  0  0  0
    8.6864    5.5949    5.8449 C   0  0  0  0  0  0  0  0  0  0  0  0
    7.4699    5.9180    6.5817 C   0  0  0  0  0  0  0  0  0  0  0  0
    6.2079    6.1034    5.9330 C   0  0  0  0  0  0  0  0  0  0  0  0
    6.0409    5.9457    4.4924 C   0  0  0  0  0  0  0  0  0  0  0  0
    7.4023    6.0769    7.9446 C   0  0  0  0  0  0  0  0  0  0  0  0
    5.7921    6.4824    8.4308 S   0  0  0  0  0  0  0  0  0  0  0  0
    5.1993    6.4311    6.8062 C   0  0  0  0  0  0  0  0  0  0  0  0
   10.9223    4.8442    3.7202 C   0  0  0  0  0  0  0  0  0  0  0  0
   11.8039    4.5108    2.6995 C   0  0  0  0  0  0  0  0  0  0  0  0
   13.1176    4.3475    3.1157 C   0  0  0  0  0  0  0  0  0  0  0  0
   11.7628    4.9590    5.2389 S   0  0  0  0  0  0  0  0  0  0  0  0
    9.7745    5.4885    6.4075 O   0  0  0  0  0  0  0  0  0  0  0  0
    4.9634    6.1510    3.9373 O   0  0  0  0  0  0  0  0  0  0  0  0
    8.4833    5.9679    8.9596 C   0  0  0  0  0  0  0  0  0  0  0  0
    9.2834    7.2695    9.0636 C   0  0  0  0  0  0  0  0  0  0  0  0
    3.7590    6.6760    6.5326 C   0  0  0  0  0  0  0  0  0  0  0  0
    2.9993    5.3603    6.3434 C   0  0  0  0  0  0  0  0  0  0  0  0
   13.2675    4.5565    4.4720 C   0  0  0  0  0  0  0  0  0  0  0  0
   -1.6741    5.2986    2.6741 C   0  0  0  0  0  0  0  0  0  0  0  0
   -1.6607    5.5974    4.0056 C   0  0  0  0  0  0  0  0  0  0  0  0
   -0.7979    6.5907    4.5190 C   0  0  0  0  0  0  0  0  0  0  0  0
    0.0184    7.3156    3.6109 C   0  0  0  0  0  0  0  0  0  0  0  0
   -0.0245    6.9939    2.2440 C   0  0  0  0  0  0  0  0  0  0  0  0
   -0.8552    5.2291   -4.8157 C   0  0  0  0  0  0  0  0  0  0  0  0
   -0.7037    4.9131   -6.1337 C   0  0  0  0  0  0  0  0  0  0  0  0
    0.0285    3.7704   -6.5254 C   0  0  0  0  0  0  0  0  0  0  0  0
    0.6130    2.9592   -5.5170 C   0  0  0  0  0  0  0  0  0  0  0  0
    0.4426    3.3111   -4.1663 C   0  0  0  0  0  0  0  0  0  0  0  0
    0.1953    3.4129   -7.8728 C   0  0  0  0  0  0  0  0  0  0  0  0
    0.9179    2.2959   -8.2246 C   0  0  0  0  0  0  0  0  0  0  0  0
    1.5062    1.4977   -7.2268 C   0  0  0  0  0  0  0  0  0  0  0  0
    1.3506    1.8239   -5.9096 C   0  0  0  0  0  0  0  0  0  0  0  0
   -0.7081    6.8754    5.8920 C   0  0  0  0  0  0  0  0  0  0  0  0
    0.1613    7.8340    6.3587 C   0  0  0  0  0  0  0  0  0  0  0  0
    0.9622    8.5595    5.4575 C   0  0  0  0  0  0  0  0  0  0  0  0
    0.8826    8.3075    4.1184 C   0  0  0  0  0  0  0  0  0  0  0  0
    0.2589    8.0455    8.1113 S   0  0  0  0  0  0  0  0  0  0  0  0
    1.0509    9.6873    8.3195 C   0  0  0  0  0  0  0  0  0  0  0  0
    0.8904   10.1295    9.7616 C   0  0  0  0  0  0  0  0  0  0  0  0
    1.0710    1.9635   -9.9530 S   0  0  0  0  0  0  0  0  0  0  0  0
    1.8142    0.2894  -10.0359 C   0  0  0  0  0  0  0  0  0  0  0  0
    1.8087   -0.1768  -11.4797 C   0  0  0  0  0  0  0  0  0  0  0  0
   16.1145    4.5809    8.5502 C   0  0  0  0  0  0  0  0  0  0  0  0
   15.7582    4.4618    7.1944 C   0  0  0  0  0  0  0  0  0  0  0  0
   16.7178    4.0916    6.2174 C   0  0  0  0  0  0  0  0  0  0  0  0
   18.0384    3.8273    6.5337 C   0  0  0  0  0  0  0  0  0  0  0  0
   18.3995    3.9697    7.8862 C   0  0  0  0  0  0  0  0  0  0  0  0
   17.4414    4.3418    8.8628 C   0  0  0  0  0  0  0  0  0  0  0  0
   14.4861    4.6841    6.6210 C   0  0  0  0  0  0  0  0  0  0  0  0
   14.4354    4.4566    5.2758 C   0  0  0  0  0  0  0  0  0  0  0  0
   15.9961    3.9807    4.6294 S   0  0  0  0  0  0  0  0  0  0  0  0
   19.6817    3.7914    8.4511 C   0  0  0  0  0  0  0  0  0  0  0  0
   19.7238    3.9671    9.8041 C   0  0  0  0  0  0  0  0  0  0  0  0
   18.1550    4.4063   10.4583 S   0  0  0  0  0  0  0  0  0  0  0  0
   15.0995    4.9549    9.5436 C   0  0  0  0  0  0  0  0  0  0  0  0
   19.0581    3.4324    5.5533 C   0  0  0  0  0  0  0  0  0  0  0  0
   20.8870    3.8042   10.6051 C   0  0  0  0  0  0  0  0  0  0  0  0
   21.0545    3.9755   11.9644 C   0  0  0  0  0  0  0  0  0  0  0  0
   22.3548    3.7118   12.3730 C   0  0  0  0  0  0  0  0  0  0  0  0
   23.2081    3.3335   11.3439 C   0  0  0  0  0  0  0  0  0  0  0  0
   22.3549    3.2963    9.8285 S   0  0  0  0  0  0  0  0  0  0  0  0
   24.5858    3.0473   11.5062 C   0  0  0  0  0  0  0  0  0  0  0  0
   25.2290    3.1256   13.1293 S   0  0  0  0  0  0  0  0  0  0  0  0
   26.8526    2.7533   12.6014 C   0  0  0  0  0  0  0  0  0  0  0  0
   26.8817    2.5892   11.2196 C   0  0  0  0  0  0  0  0  0  0  0  0
   25.5973    2.7311   10.6043 C   0  0  0  0  0  0  0  0  0  0  0  0
   28.0866    2.3219   10.4548 C   0  0  0  0  0  0  0  0  0  0  0  0
   27.8855    2.1528    9.0201 C   0  0  0  0  0  0  0  0  0  0  0  0
   26.5956    2.2570    8.4099 C   0  0  0  0  0  0  0  0  0  0  0  0
   25.3895    2.5398    9.1798 C   0  0  0  0  0  0  0  0  0  0  0  0
   28.8873    1.8914    8.1171 C   0  0  0  0  0  0  0  0  0  0  0  0
   28.2441    1.7559    6.5166 S   0  0  0  0  0  0  0  0  0  0  0  0
   26.6263    2.0556    7.0513 C   0  0  0  0  0  0  0  0  0  0  0  0
   27.8493    2.6516   13.6028 C   0  0  0  0  0  0  0  0  0  0  0  0
   27.6149    2.7837   14.9660 C   0  0  0  0  0  0  0  0  0  0  0  0
   28.7444    2.6155   15.7556 C   0  0  0  0  0  0  0  0  0  0  0  0
   29.5302    2.3179   13.3042 S   0  0  0  0  0  0  0  0  0  0  0  0
   29.2042    2.2514   10.9630 O   0  0  0  0  0  0  0  0  0  0  0  0
   24.2823    2.5980    8.6480 O   0  0  0  0  0  0  0  0  0  0  0  0
   30.3403    1.6902    8.3529 C   0  0  0  0  0  0  0  0  0  0  0  0
   30.6310    0.2860    8.8887 C   0  0  0  0  0  0  0  0  0  0  0  0
   25.5158    2.1053    6.0653 C   0  0  0  0  0  0  0  0  0  0  0  0
   25.1386    3.5488    5.7224 C   0  0  0  0  0  0  0  0  0  0  0  0
   29.8727    2.3484   15.0068 C   0  0  0  0  0  0  0  0  0  0  0  0
   19.2816    4.2163    4.4012 C   0  0  0  0  0  0  0  0  0  0  0  0
   20.3105    3.9292    3.5521 C   0  0  0  0  0  0  0  0  0  0  0  0
   21.1765    2.8421    3.8024 C   0  0  0  0  0  0  0  0  0  0  0  0
   20.9218    2.0162    4.9290 C   0  0  0  0  0  0  0  0  0  0  0  0
   19.8524    2.3333    5.7836 C   0  0  0  0  0  0  0  0  0  0  0  0
   13.8765    4.2474    9.5917 C   0  0  0  0  0  0  0  0  0  0  0  0
   12.8787    4.6314   10.4370 C   0  0  0  0  0  0  0  0  0  0  0  0
   13.0432    5.7452   11.2894 C   0  0  0  0  0  0  0  0  0  0  0  0
   14.2868    6.4310   11.2811 C   0  0  0  0  0  0  0  0  0  0  0  0
   15.2990    6.0121   10.3980 C   0  0  0  0  0  0  0  0  0  0  0  0
   12.0214    6.1890   12.1441 C   0  0  0  0  0  0  0  0  0  0  0  0
   12.2101    7.2751   12.9666 C   0  0  0  0  0  0  0  0  0  0  0  0
   13.4423    7.9538   12.9621 C   0  0  0  0  0  0  0  0  0  0  0  0
   14.4517    7.5345   12.1430 C   0  0  0  0  0  0  0  0  0  0  0  0
   22.2831    2.5571    2.9845 C   0  0  0  0  0  0  0  0  0  0  0  0
   23.1137    1.4980    3.2662 C   0  0  0  0  0  0  0  0  0  0  0  0
   22.8529    0.6707    4.3742 C   0  0  0  0  0  0  0  0  0  0  0  0
   21.7794    0.9248    5.1780 C   0  0  0  0  0  0  0  0  0  0  0  0
   24.5301    1.2824    2.2294 S   0  0  0  0  0  0  0  0  0  0  0  0
   24.9848   -0.4788    2.4695 C   0  0  0  0  0  0  0  0  0  0  0  0
   25.9172   -0.9030    1.3506 C   0  0  0  0  0  0  0  0  0  0  0  0
   10.8366    7.7736   13.9612 S   0  0  0  0  0  0  0  0  0  0  0  0
   11.5813    8.8572   15.2394 C   0  0  0  0  0  0  0  0  0  0  0  0
   10.5664    9.0862   16.3433 C   0  0  0  0  0  0  0  0  0  0  0  0
   34.7438    1.4602   14.6222 C   0  0  0  0  0  0  0  0  0  0  0  0
   33.4987    1.7108   15.2277 C   0  0  0  0  0  0  0  0  0  0  0  0
   33.3810    1.8453   16.6345 C   0  0  0  0  0  0  0  0  0  0  0  0
   34.4699    1.7418   17.4822 C   0  0  0  0  0  0  0  0  0  0  0  0
   35.7094    1.4551   16.8799 C   0  0  0  0  0  0  0  0  0  0  0  0
   35.8252    1.3176   15.4730 C   0  0  0  0  0  0  0  0  0  0  0  0
   32.2510    1.8502   14.5812 C   0  0  0  0  0  0  0  0  0  0  0  0
   31.2133    2.1253   15.4244 C   0  0  0  0  0  0  0  0  0  0  0  0
   31.7317    2.1966   17.1002 S   0  0  0  0  0  0  0  0  0  0  0  0
   36.9504    1.2627   17.5276 C   0  0  0  0  0  0  0  0  0  0  0  0
   37.9921    1.0291   16.6771 C   0  0  0  0  0  0  0  0  0  0  0  0
   37.4783    1.0046   14.9989 S   0  0  0  0  0  0  0  0  0  0  0  0
   34.8231    1.3664   13.1587 C   0  0  0  0  0  0  0  0  0  0  0  0
   34.4004    1.9025   18.9404 C   0  0  0  0  0  0  0  0  0  0  0  0
   39.3448    0.8464   17.0742 C   0  0  0  0  0  0  0  0  0  0  0  0
   40.4527    0.5583   16.3031 C   0  0  0  0  0  0  0  0  0  0  0  0
   41.6123    0.4663   17.0602 C   0  0  0  0  0  0  0  0  0  0  0  0
   41.4222    0.6848   18.4188 C   0  0  0  0  0  0  0  0  0  0  0  0
   39.7479    1.0169   18.7547 S   0  0  0  0  0  0  0  0  0  0  0  0
   42.4534    0.6331   19.3895 C   0  0  0  0  0  0  0  0  0  0  0  0
   44.0661    0.2917   18.8143 S   0  0  0  0  0  0  0  0  0  0  0  0
   44.7526    0.3561   20.4195 C   0  0  0  0  0  0  0  0  0  0  0  0
   43.7607    0.6237   21.3532 C   0  0  0  0  0  0  0  0  0  0  0  0
   42.4620    0.7896   20.7716 C   0  0  0  0  0  0  0  0  0  0  0  0
   43.9961    0.7281   22.7845 C   0  0  0  0  0  0  0  0  0  0  0  0
   42.8035    0.9917   23.5855 C   0  0  0  0  0  0  0  0  0  0  0  0
   41.5096    1.1730   23.0014 C   0  0  0  0  0  0  0  0  0  0  0  0
   41.2842    1.0960   21.5624 C   0  0  0  0  0  0  0  0  0  0  0  0
   42.7906    1.0904   24.9549 C   0  0  0  0  0  0  0  0  0  0  0  0
   41.1935    1.4268   25.5295 S   0  0  0  0  0  0  0  0  0  0  0  0
   40.5319    1.4313   23.9309 C   0  0  0  0  0  0  0  0  0  0  0  0
   46.1537    0.1381   20.5200 C   0  0  0  0  0  0  0  0  0  0  0  0
   46.9725   -0.1165   19.4333 C   0  0  0  0  0  0  0  0  0  0  0  0
   48.3157   -0.2888   19.7713 C   0  0  0  0  0  0  0  0  0  0  0  0
   47.0880    0.1588   21.9911 S   0  0  0  0  0  0  0  0  0  0  0  0
   45.1079    0.6093   23.2914 O   0  0  0  0  0  0  0  0  0  0  0  0
   40.1723    1.2792   21.0706 O   0  0  0  0  0  0  0  0  0  0  0  0
   43.9222    0.9946   25.9129 C   0  0  0  0  0  0  0  0  0  0  0  0
   44.6660    2.3298   26.0100 C   0  0  0  0  0  0  0  0  0  0  0  0
   39.0769    1.6587   23.7314 C   0  0  0  0  0  0  0  0  0  0  0  0
   38.3271    0.3398   23.5275 C   0  0  0  0  0  0  0  0  0  0  0  0
   48.5212   -0.1651   21.1151 C   0  0  0  0  0  0  0  0  0  0  0  0
   33.4886    1.1418   19.7031 C   0  0  0  0  0  0  0  0  0  0  0  0
   33.5073    1.1941   21.0666 C   0  0  0  0  0  0  0  0  0  0  0  0
   34.4359    2.0103   21.7496 C   0  0  0  0  0  0  0  0  0  0  0  0
   35.3167    2.8214   20.9863 C   0  0  0  0  0  0  0  0  0  0  0  0
   35.2727    2.7494   19.5838 C   0  0  0  0  0  0  0  0  0  0  0  0
   35.3929    0.2343   12.5382 C   0  0  0  0  0  0  0  0  0  0  0  0
   35.3510    0.0889   11.1818 C   0  0  0  0  0  0  0  0  0  0  0  0
   34.7391    1.0653   10.3648 C   0  0  0  0  0  0  0  0  0  0  0  0
   34.2178    2.2344   10.9795 C   0  0  0  0  0  0  0  0  0  0  0  0
   34.2782    2.3588   12.3774 C   0  0  0  0  0  0  0  0  0  0  0  0
   34.6147    0.9147    8.9735 C   0  0  0  0  0  0  0  0  0  0  0  0
   33.9962    1.8785    8.2110 C   0  0  0  0  0  0  0  0  0  0  0  0
   33.5001    3.0469    8.8178 C   0  0  0  0  0  0  0  0  0  0  0  0
   33.6156    3.2168   10.1673 C   0  0  0  0  0  0  0  0  0  0  0  0
   34.5257    2.0394   23.1515 C   0  0  0  0  0  0  0  0  0  0  0  0
   35.4512    2.8373   23.7830 C   0  0  0  0  0  0  0  0  0  0  0  0
   36.3120    3.6540   23.0269 C   0  0  0  0  0  0  0  0  0  0  0  0
   36.2386    3.6454   21.6639 C   0  0  0  0  0  0  0  0  0  0  0  0
   35.5389    2.7290   25.5458 S   0  0  0  0  0  0  0  0  0  0  0  0
   36.4123    4.2639   26.0429 C   0  0  0  0  0  0  0  0  0  0  0  0
   36.2569    4.4538   27.5398 C   0  0  0  0  0  0  0  0  0  0  0  0
   33.8124    1.5384    6.4857 S   0  0  0  0  0  0  0  0  0  0  0  0
   33.3824    3.1609    5.7457 C   0  0  0  0  0  0  0  0  0  0  0  0
   33.4351    3.0381    4.2346 C   0  0  0  0  0  0  0  0  0  0  0  0
   -3.1116    4.6241   -3.4864 H   0  0  0  0  0  0  0  0  0  0  0  0
   -5.0534    5.2345   -1.8602 H   0  0  0  0  0  0  0  0  0  0  0  0
    1.9016    5.5485    1.5098 H   0  0  0  0  0  0  0  0  0  0  0  0
    5.2981    4.3730   -1.6834 H   0  0  0  0  0  0  0  0  0  0  0  0
    7.4592    4.5119   -0.2547 H   0  0  0  0  0  0  0  0  0  0  0  0
   11.4803    4.3923    1.6796 H   0  0  0  0  0  0  0  0  0  0  0  0
   13.9329    4.0857    2.4640 H   0  0  0  0  0  0  0  0  0  0  0  0
    9.1638    5.1673    8.6630 H   0  0  0  0  0  0  0  0  0  0  0  0
    8.0447    5.7304    9.9309 H   0  0  0  0  0  0  0  0  0  0  0  0
    9.7786    7.4740    8.1183 H   0  0  0  0  0  0  0  0  0  0  0  0
   10.0409    7.1762    9.8375 H   0  0  0  0  0  0  0  0  0  0  0  0
    8.6294    8.1026    9.3121 H   0  0  0  0  0  0  0  0  0  0  0  0
    3.6634    7.2631    5.6170 H   0  0  0  0  0  0  0  0  0  0  0  0
    3.3212    7.2276    7.3666 H   0  0  0  0  0  0  0  0  0  0  0  0
    3.3819    4.8335    5.4737 H   0  0  0  0  0  0  0  0  0  0  0  0
    1.9442    5.5672    6.1856 H   0  0  0  0  0  0  0  0  0  0  0  0
    3.1057    4.7271    7.2215 H   0  0  0  0  0  0  0  0  0  0  0  0
   -2.3131    4.5134    2.2981 H   0  0  0  0  0  0  0  0  0  0  0  0
   -2.2982    5.0600    4.6927 H   0  0  0  0  0  0  0  0  0  0  0  0
    0.5946    7.5559    1.5592 H   0  0  0  0  0  0  0  0  0  0  0  0
   -1.3987    6.1166   -4.5248 H   0  0  0  0  0  0  0  0  0  0  0  0
   -1.1393    5.5370   -6.9009 H   0  0  0  0  0  0  0  0  0  0  0  0
    0.8774    2.6784   -3.4058 H   0  0  0  0  0  0  0  0  0  0  0  0
   -0.2494    4.0241   -8.6443 H   0  0  0  0  0  0  0  0  0  0  0  0
    2.0860    0.6285   -7.4937 H   0  0  0  0  0  0  0  0  0  0  0  0
    1.8036    1.2092   -5.1449 H   0  0  0  0  0  0  0  0  0  0  0  0
   -1.3190    6.3232    6.5910 H   0  0  0  0  0  0  0  0  0  0  0  0
    1.6492    9.3076    5.8201 H   0  0  0  0  0  0  0  0  0  0  0  0
    1.5063    8.8564    3.4276 H   0  0  0  0  0  0  0  0  0  0  0  0
    0.5543   10.3791    7.6394 H   0  0  0  0  0  0  0  0  0  0  0  0
    2.1064    9.5977    8.0591 H   0  0  0  0  0  0  0  0  0  0  0  0
   -0.1631   10.2005   10.0217 H   0  0  0  0  0  0  0  0  0  0  0  0
    1.3535   11.1037    9.9041 H   0  0  0  0  0  0  0  0  0  0  0  0
    1.3629    9.4159   10.4326 H   0  0  0  0  0  0  0  0  0  0  0  0
    1.2138   -0.3715   -9.4104 H   0  0  0  0  0  0  0  0  0  0  0  0
    2.8334    0.3496   -9.6528 H   0  0  0  0  0  0  0  0  0  0  0  0
    0.7918   -0.2122  -11.8632 H   0  0  0  0  0  0  0  0  0  0  0  0
    2.2449   -1.1711  -11.5493 H   0  0  0  0  0  0  0  0  0  0  0  0
    2.3869    0.5035  -12.1006 H   0  0  0  0  0  0  0  0  0  0  0  0
   13.6261    5.0108    7.1774 H   0  0  0  0  0  0  0  0  0  0  0  0
   20.5598    3.5501    7.8796 H   0  0  0  0  0  0  0  0  0  0  0  0
   20.2608    4.2801   12.6241 H   0  0  0  0  0  0  0  0  0  0  0  0
   22.6896    3.7953   13.3927 H   0  0  0  0  0  0  0  0  0  0  0  0
   26.6353    2.9929   15.3603 H   0  0  0  0  0  0  0  0  0  0  0  0
   28.7495    2.6830   16.8295 H   0  0  0  0  0  0  0  0  0  0  0  0
   30.6869    2.4171    9.0904 H   0  0  0  0  0  0  0  0  0  0  0  0
   30.8809    1.8349    7.4161 H   0  0  0  0  0  0  0  0  0  0  0  0
   30.1543    0.1522    9.8557 H   0  0  0  0  0  0  0  0  0  0  0  0
   31.7033    0.1588    9.0106 H   0  0  0  0  0  0  0  0  0  0  0  0
   30.2630   -0.4709    8.1994 H   0  0  0  0  0  0  0  0  0  0  0  0
   24.6385    1.6131    6.4900 H   0  0  0  0  0  0  0  0  0  0  0  0
   25.8185    1.5867    5.1538 H   0  0  0  0  0  0  0  0  0  0  0  0
   24.7646    4.0541    6.6085 H   0  0  0  0  0  0  0  0  0  0  0  0
   24.3575    3.5510    4.9671 H   0  0  0  0  0  0  0  0  0  0  0  0
   26.0007    4.0896    5.3381 H   0  0  0  0  0  0  0  0  0  0  0  0
   18.6430    5.0676    4.2174 H   0  0  0  0  0  0  0  0  0  0  0  0
   20.4898    4.5444    2.6822 H   0  0  0  0  0  0  0  0  0  0  0  0
   19.6637    1.6977    6.6371 H   0  0  0  0  0  0  0  0  0  0  0  0
   13.7486    3.3857    8.9530 H   0  0  0  0  0  0  0  0  0  0  0  0
   11.9434    4.0913   10.4627 H   0  0  0  0  0  0  0  0  0  0  0  0
   16.2295    6.5610   10.3747 H   0  0  0  0  0  0  0  0  0  0  0  0
   11.0734    5.6711   12.1529 H   0  0  0  0  0  0  0  0  0  0  0  0
   13.5934    8.8128   13.5966 H   0  0  0  0  0  0  0  0  0  0  0  0
   15.3966    8.0589   12.1405 H   0  0  0  0  0  0  0  0  0  0  0  0
   22.4906    3.1866    2.1318 H   0  0  0  0  0  0  0  0  0  0  0  0
   23.5058   -0.1578    4.5995 H   0  0  0  0  0  0  0  0  0  0  0  0
   21.5867    0.2975    6.0363 H   0  0  0  0  0  0  0  0  0  0  0  0
   24.0622   -1.0586    2.4523 H   0  0  0  0  0  0  0  0  0  0  0  0
   25.4742   -0.5819    3.4389 H   0  0  0  0  0  0  0  0  0  0  0  0
   25.4321   -0.7794    0.3853 H   0  0  0  0  0  0  0  0  0  0  0  0
   26.1923   -1.9485    1.4738 H   0  0  0  0  0  0  0  0  0  0  0  0
   26.8219   -0.2996    1.3608 H   0  0  0  0  0  0  0  0  0  0  0  0
   11.8596    9.8008   14.7687 H   0  0  0  0  0  0  0  0  0  0  0  0
   12.4678    8.3510   15.6216 H   0  0  0  0  0  0  0  0  0  0  0  0
    9.6729    9.5615   15.9453 H   0  0  0  0  0  0  0  0  0  0  0  0
   10.9929    9.7294   17.1104 H   0  0  0  0  0  0  0  0  0  0  0  0
   10.2798    8.1408   16.7977 H   0  0  0  0  0  0  0  0  0  0  0  0
   32.1112    1.7404   13.5209 H   0  0  0  0  0  0  0  0  0  0  0  0
   37.0793    1.2818   18.5948 H   0  0  0  0  0  0  0  0  0  0  0  0
   40.4111    0.4210   15.2367 H   0  0  0  0  0  0  0  0  0  0  0  0
   42.5806    0.2440   16.6459 H   0  0  0  0  0  0  0  0  0  0  0  0
   46.5964   -0.1730   18.4264 H   0  0  0  0  0  0  0  0  0  0  0  0
   49.0913   -0.4936   19.0549 H   0  0  0  0  0  0  0  0  0  0  0  0
   44.6202    0.2329   25.5606 H   0  0  0  0  0  0  0  0  0  0  0  0
   43.5433    0.7118   26.8970 H   0  0  0  0  0  0  0  0  0  0  0  0
   45.0990    2.5806   25.0455 H   0  0  0  0  0  0  0  0  0  0  0  0
   45.4676    2.2532   26.7392 H   0  0  0  0  0  0  0  0  0  0  0  0
   43.9887    3.1252   26.3144 H   0  0  0  0  0  0  0  0  0  0  0  0
   38.9306    2.2780   22.8442 H   0  0  0  0  0  0  0  0  0  0  0  0
   38.6700    2.1714   24.6049 H   0  0  0  0  0  0  0  0  0  0  0  0
   38.6788   -0.1501   22.6239 H   0  0  0  0  0  0  0  0  0  0  0  0
   37.2638    0.5382   23.4225 H   0  0  0  0  0  0  0  0  0  0  0  0
   38.4787   -0.3227   24.3769 H   0  0  0  0  0  0  0  0  0  0  0  0
   49.4527   -0.2510   21.6399 H   0  0  0  0  0  0  0  0  0  0  0  0
   32.7942    0.4925   19.1907 H   0  0  0  0  0  0  0  0  0  0  0  0
   32.8209    0.5940   21.6463 H   0  0  0  0  0  0  0  0  0  0  0  0
   35.9455    3.3717   19.0107 H   0  0  0  0  0  0  0  0  0  0  0  0
   35.8364   -0.5319   13.1566 H   0  0  0  0  0  0  0  0  0  0  0  0
   35.7699   -0.7898   10.7130 H   0  0  0  0  0  0  0  0  0  0  0  0
   33.8792    3.2519   12.8372 H   0  0  0  0  0  0  0  0  0  0  0  0
   34.9968    0.0228    8.4987 H   0  0  0  0  0  0  0  0  0  0  0  0
   33.0182    3.8077    8.2246 H   0  0  0  0  0  0  0  0  0  0  0  0
   33.2225    4.1082   10.6347 H   0  0  0  0  0  0  0  0  0  0  0  0
   33.8677    1.4168   23.7397 H   0  0  0  0  0  0  0  0  0  0  0  0
   37.0394    4.2804   23.5182 H   0  0  0  0  0  0  0  0  0  0  0  0
   36.9089    4.2626   21.0831 H   0  0  0  0  0  0  0  0  0  0  0  0
   35.9614    5.0899   25.4930 H   0  0  0  0  0  0  0  0  0  0  0  0
   37.4653    4.1663   25.7753 H   0  0  0  0  0  0  0  0  0  0  0  0
   35.2055    4.5345   27.8052 H   0  0  0  0  0  0  0  0  0  0  0  0
   36.7688    5.3614   27.8532 H   0  0  0  0  0  0  0  0  0  0  0  0
   36.6830    3.6088   28.0758 H   0  0  0  0  0  0  0  0  0  0  0  0
   34.1082    3.8898    6.1063 H   0  0  0  0  0  0  0  0  0  0  0  0
   32.3791    3.4365    6.0735 H   0  0  0  0  0  0  0  0  0  0  0  0
   34.4314    2.7462    3.9116 H   0  0  0  0  0  0  0  0  0  0  0  0
   33.1829    3.9923    3.7767 H   0  0  0  0  0  0  0  0  0  0  0  0
   32.7277    2.2871    3.8903 H   0  0  0  0  0  0  0  0  0  0  0  0
  1  2  2  0  0  0  0
  1  6  1  0  0  0  0
  2  3  1  0  0  0  0
  3  9  1  0  0  0  0
  3  4  2  0  0  0  0
  4 14  1  0  0  0  0
  5  4  1  0  0  0  0
  5 10  1  0  0  0  0
  6  5  2  0  0  0  0
  7  2  1  0  0  0  0
  7  8  2  0  0  0  0
  8  9  1  0  0  0  0
 10201  1  0  0  0  0
 11 15  1  0  0  0  0
 11 10  2  0  0  0  0
 12  6  1  0  0  0  0
 12 11  1  0  0  0  0
 13  1  1  0  0  0  0
 14 47  2  0  0  0  0
 14 43  1  0  0  0  0
 15 19  1  0  0  0  0
 16 15  2  0  0  0  0
 16 17  1  0  0  0  0
 17 18  2  0  0  0  0
 18 19  1  0  0  0  0
 18 20  1  0  0  0  0
 20 24  2  0  0  0  0
 21 20  1  0  0  0  0
 21 22  1  0  0  0  0
 22 32  1  0  0  0  0
 22 23  2  0  0  0  0
 23 25  1  0  0  0  0
 24 23  1  0  0  0  0
 24 28  1  0  0  0  0
 25 36  2  0  0  0  0
 25 26  1  0  0  0  0
 26 29  2  0  0  0  0
 27 26  1  0  0  0  0
 27 31  2  0  0  0  0
 28 27  1  0  0  0  0
 29 30  1  0  0  0  0
 29 38  1  0  0  0  0
 31 30  1  0  0  0  0
 32 35  1  0  0  0  0
 33 34  1  0  0  0  0
 33 32  2  0  0  0  0
 34 42  2  0  0  0  0
 37 28  2  0  0  0  0
 38 39  1  0  0  0  0
 38207  1  0  0  0  0
 39210  1  0  0  0  0
 39209  1  0  0  0  0
 40 31  1  0  0  0  0
 40212  1  0  0  0  0
 41 40  1  0  0  0  0
 41215  1  0  0  0  0
 42 35  1  0  0  0  0
 42 74  1  0  0  0  0
 43 44  2  0  0  0  0
 44 45  1  0  0  0  0
 44217  1  0  0  0  0
 45 57  2  0  0  0  0
 46 60  2  0  0  0  0
 46 45  1  0  0  0  0
 47 46  1  0  0  0  0
 48219  1  0  0  0  0
 48 13  2  0  0  0  0
 49 48  1  0  0  0  0
 50 49  2  0  0  0  0
 50 51  1  0  0  0  0
 51 52  2  0  0  0  0
 52 13  1  0  0  0  0
 52221  1  0  0  0  0
 53 50  1  0  0  0  0
 54 53  2  0  0  0  0
 54 55  1  0  0  0  0
 55 56  2  0  0  0  0
 56 51  1  0  0  0  0
 56224  1  0  0  0  0
 57 58  1  0  0  0  0
 57225  1  0  0  0  0
 58 61  1  0  0  0  0
 59226  1  0  0  0  0
 59 58  2  0  0  0  0
 60 59  1  0  0  0  0
 61 62  1  0  0  0  0
 62 63  1  0  0  0  0
 63231  1  0  0  0  0
 63230  1  0  0  0  0
 63232  1  0  0  0  0
 64 54  1  0  0  0  0
 65 64  1  0  0  0  0
 65234  1  0  0  0  0
 65233  1  0  0  0  0
 66 65  1  0  0  0  0
 67 72  1  0  0  0  0
 67 79  1  0  0  0  0
 68 67  2  0  0  0  0
 69 70  2  0  0  0  0
 69 68  1  0  0  0  0
 70 71  1  0  0  0  0
 71 76  1  0  0  0  0
 71 72  2  0  0  0  0
 72 78  1  0  0  0  0
 73238  1  0  0  0  0
 73 68  1  0  0  0  0
 74 73  2  0  0  0  0
 75 74  1  0  0  0  0
 75 69  1  0  0  0  0
 76 77  2  0  0  0  0
 77 78  1  0  0  0  0
 77 81  1  0  0  0  0
 79114  2  0  0  0  0
 79118  1  0  0  0  0
 80113  1  0  0  0  0
 80 70  1  0  0  0  0
 81 82  2  0  0  0  0
 82 83  1  0  0  0  0
 82240  1  0  0  0  0
 83241  1  0  0  0  0
 84 86  1  0  0  0  0
 84 83  2  0  0  0  0
 85 81  1  0  0  0  0
 85 84  1  0  0  0  0
 86 87  1  0  0  0  0
 88 87  1  0  0  0  0
 88 98  1  0  0  0  0
 89 88  2  0  0  0  0
 90 89  1  0  0  0  0
 90 86  2  0  0  0  0
 91102  2  0  0  0  0
 91 89  1  0  0  0  0
 92 91  1  0  0  0  0
 93 92  1  0  0  0  0
 93 94  1  0  0  0  0
 94 90  1  0  0  0  0
 95104  1  0  0  0  0
 95 92  2  0  0  0  0
 96 97  1  0  0  0  0
 96 95  1  0  0  0  0
 97 93  2  0  0  0  0
 98 99  2  0  0  0  0
 99242  1  0  0  0  0
 99100  1  0  0  0  0
100243  1  0  0  0  0
101 98  1  0  0  0  0
101108  1  0  0  0  0
103 94  2  0  0  0  0
104105  1  0  0  0  0
104244  1  0  0  0  0
105247  1  0  0  0  0
105246  1  0  0  0  0
106249  1  0  0  0  0
106 97  1  0  0  0  0
107106  1  0  0  0  0
107251  1  0  0  0  0
108140  1  0  0  0  0
108100  2  0  0  0  0
109 80  2  0  0  0  0
110111  2  0  0  0  0
110109  1  0  0  0  0
111112  1  0  0  0  0
112126  1  0  0  0  0
112113  2  0  0  0  0
113256  1  0  0  0  0
114115  1  0  0  0  0
115258  1  0  0  0  0
115116  2  0  0  0  0
116119  1  0  0  0  0
117116  1  0  0  0  0
117122  1  0  0  0  0
118117  2  0  0  0  0
119260  1  0  0  0  0
119120  2  0  0  0  0
120130  1  0  0  0  0
121120  1  0  0  0  0
121261  1  0  0  0  0
122121  2  0  0  0  0
123124  2  0  0  0  0
123111  1  0  0  0  0
124125  1  0  0  0  0
125264  1  0  0  0  0
125126  2  0  0  0  0
126265  1  0  0  0  0
127128  1  0  0  0  0
127124  1  0  0  0  0
128267  1  0  0  0  0
129270  1  0  0  0  0
129269  1  0  0  0  0
129128  1  0  0  0  0
130131  1  0  0  0  0
131272  1  0  0  0  0
131132  1  0  0  0  0
132275  1  0  0  0  0
132274  1  0  0  0  0
133134  2  0  0  0  0
133138  1  0  0  0  0
134135  1  0  0  0  0
135141  1  0  0  0  0
135136  2  0  0  0  0
136146  1  0  0  0  0
137136  1  0  0  0  0
137142  1  0  0  0  0
138137  2  0  0  0  0
139134  1  0  0  0  0
139140  2  0  0  0  0
140141  1  0  0  0  0
142277  1  0  0  0  0
143147  1  0  0  0  0
143142  2  0  0  0  0
144138  1  0  0  0  0
144143  1  0  0  0  0
145133  1  0  0  0  0
146179  2  0  0  0  0
146175  1  0  0  0  0
147151  1  0  0  0  0
148149  1  0  0  0  0
148147  2  0  0  0  0
149150  2  0  0  0  0
150151  1  0  0  0  0
150152  1  0  0  0  0
152156  2  0  0  0  0
153152  1  0  0  0  0
153154  1  0  0  0  0
154164  1  0  0  0  0
154155  2  0  0  0  0
155157  1  0  0  0  0
156155  1  0  0  0  0
156160  1  0  0  0  0
157168  2  0  0  0  0
157158  1  0  0  0  0
158161  2  0  0  0  0
159158  1  0  0  0  0
159163  2  0  0  0  0
160159  1  0  0  0  0
161162  1  0  0  0  0
161170  1  0  0  0  0
163162  1  0  0  0  0
164167  1  0  0  0  0
165166  1  0  0  0  0
165164  2  0  0  0  0
166174  2  0  0  0  0
169160  2  0  0  0  0
170171  1  0  0  0  0
170283  1  0  0  0  0
171286  1  0  0  0  0
171285  1  0  0  0  0
172163  1  0  0  0  0
172288  1  0  0  0  0
173172  1  0  0  0  0
173291  1  0  0  0  0
174292  1  0  0  0  0
174167  1  0  0  0  0
175176  2  0  0  0  0
176294  1  0  0  0  0
176177  1  0  0  0  0
177189  2  0  0  0  0
178192  2  0  0  0  0
178177  1  0  0  0  0
179178  1  0  0  0  0
180296  1  0  0  0  0
180145  1  0  0  0  0
181180  2  0  0  0  0
182183  1  0  0  0  0
182181  1  0  0  0  0
183184  1  0  0  0  0
184298  1  0  0  0  0
184145  2  0  0  0  0
185182  2  0  0  0  0
186187  2  0  0  0  0
186185  1  0  0  0  0
187188  1  0  0  0  0
188301  1  0  0  0  0
188183  2  0  0  0  0
189302  1  0  0  0  0
189190  1  0  0  0  0
190193  1  0  0  0  0
191303  1  0  0  0  0
191190  2  0  0  0  0
192191  1  0  0  0  0
193194  1  0  0  0  0
194195  1  0  0  0  0
195307  1  0  0  0  0
195308  1  0  0  0  0
195309  1  0  0  0  0
196186  1  0  0  0  0
197311  1  0  0  0  0
197310  1  0  0  0  0
197196  1  0  0  0  0
198197  1  0  0  0  0
199  7  1  0  0  0  0
200  8  1  0  0  0  0
202 16  1  0  0  0  0
203 17  1  0  0  0  0
204 33  1  0  0  0  0
205 34  1  0  0  0  0
206 38  1  0  0  0  0
208 39  1  0  0  0  0
211 40  1  0  0  0  0
213 41  1  0  0  0  0
214 41  1  0  0  0  0
216 43  1  0  0  0  0
218 47  1  0  0  0  0
220 49  1  0  0  0  0
222 53  1  0  0  0  0
223 55  1  0  0  0  0
227 60  1  0  0  0  0
228 62  1  0  0  0  0
229 62  1  0  0  0  0
235 66  1  0  0  0  0
236 66  1  0  0  0  0
237 66  1  0  0  0  0
239 76  1  0  0  0  0
245104  1  0  0  0  0
248105  1  0  0  0  0
250106  1  0  0  0  0
252107  1  0  0  0  0
253107  1  0  0  0  0
254109  1  0  0  0  0
255110  1  0  0  0  0
257114  1  0  0  0  0
259118  1  0  0  0  0
262122  1  0  0  0  0
263123  1  0  0  0  0
266128  1  0  0  0  0
268129  1  0  0  0  0
271131  1  0  0  0  0
273132  1  0  0  0  0
276139  1  0  0  0  0
278148  1  0  0  0  0
279149  1  0  0  0  0
280165  1  0  0  0  0
281166  1  0  0  0  0
282170  1  0  0  0  0
284171  1  0  0  0  0
287172  1  0  0  0  0
289173  1  0  0  0  0
290173  1  0  0  0  0
293175  1  0  0  0  0
295179  1  0  0  0  0
297181  1  0  0  0  0
299185  1  0  0  0  0
300187  1  0  0  0  0
304192  1  0  0  0  0
305194  1  0  0  0  0
306194  1  0  0  0  0
312198  1  0  0  0  0
313198  1  0  0  0  0
314198  1  0  0  0  0
M  END
