SCF done       -380.421819317272          0.000756204193
 OpenBabel12282109573D

227250  0  0  0  0  0  0  0  0999 V2000
    0.6412   13.3645    5.7831 C   0  0  0  0  0  0  0  0  0  0  0  0
    0.9398   14.6356    6.3085 C   0  0  0  0  0  0  0  0  0  0  0  0
    2.2480   15.1610    6.2032 C   0  0  0  0  0  0  0  0  0  0  0  0
    3.3080   14.4777    5.6069 C   0  0  0  0  0  0  0  0  0  0  0  0
    3.0195   13.1817    5.1304 C   0  0  0  0  0  0  0  0  0  0  0  0
    1.7067   12.6640    5.2279 C   0  0  0  0  0  0  0  0  0  0  0  0
    0.0621   15.5355    6.9821 C   0  0  0  0  0  0  0  0  0  0  0  0
    0.6597   16.6920    7.3306 C   0  0  0  0  0  0  0  0  0  0  0  0
    2.3275   16.7670    6.8814 S   0  0  0  0  0  0  0  0  0  0  0  0
    3.9016   12.2485    4.5359 C   0  0  0  0  0  0  0  0  0  0  0  0
    3.3092   11.0822    4.1415 C   0  0  0  0  0  0  0  0  0  0  0  0
    1.6000   11.0756    4.5223 S   0  0  0  0  0  0  0  0  0  0  0  0
   -0.7021   12.8273    5.8061 C   0  0  0  0  0  0  0  0  0  0  0  0
    4.6132   15.0822    5.4709 C   0  0  0  0  0  0  0  0  0  0  0  0
   -1.8863   13.4651    5.5569 C   0  0  0  0  0  0  0  0  0  0  0  0
   -3.0119   12.6285    5.6424 C   0  0  0  0  0  0  0  0  0  0  0  0
   -2.6894   11.3402    5.9649 C   0  0  0  0  0  0  0  0  0  0  0  0
   -0.9770   11.1425    6.1663 S   0  0  0  0  0  0  0  0  0  0  0  0
    5.2586   15.9292    6.3324 C   0  0  0  0  0  0  0  0  0  0  0  0
    6.5127   16.3630    5.8756 C   0  0  0  0  0  0  0  0  0  0  0  0
    6.8332   15.8600    4.6452 C   0  0  0  0  0  0  0  0  0  0  0  0
    5.5760   14.8344    4.0333 S   0  0  0  0  0  0  0  0  0  0  0  0
   -3.8196   10.0279    6.1684 S   0  0  0  0  0  0  0  0  0  0  0  0
   -2.6701    8.6192    6.4002 C   0  0  0  0  0  0  0  0  0  0  0  0
    8.3022   16.1839    3.7641 S   0  0  0  0  0  0  0  0  0  0  0  0
    8.1438   14.9963    2.3762 C   0  0  0  0  0  0  0  0  0  0  0  0
    3.9711    9.9926    3.5018 C   0  0  0  0  0  0  0  0  0  0  0  0
    5.6975   10.1219    3.2776 S   0  0  0  0  0  0  0  0  0  0  0  0
    5.7506    8.5890    2.4732 C   0  0  0  0  0  0  0  0  0  0  0  0
    4.4979    8.0282    2.3960 C   0  0  0  0  0  0  0  0  0  0  0  0
    3.4852    8.8085    2.9730 C   0  0  0  0  0  0  0  0  0  0  0  0
    2.0629    8.3456    3.0122 C   0  0  0  0  0  0  0  0  0  0  0  0
    1.7484    7.6433    4.3345 C   0  0  0  0  0  0  0  0  0  0  0  0
    6.9585    8.0454    1.9632 C   0  0  0  0  0  0  0  0  0  0  0  0
    7.0222    6.9585    1.2535 N   0  0  0  0  0  0  0  0  0  0  0  0
    8.2275    6.6310    0.8685 N   0  0  0  0  0  0  0  0  0  0  0  0
    9.1608    7.4450    1.2640 C   0  0  0  0  0  0  0  0  0  0  0  0
    8.5373    8.7866    2.2217 S   0  0  0  0  0  0  0  0  0  0  0  0
   10.5351    7.2830    0.9479 C   0  0  0  0  0  0  0  0  0  0  0  0
   11.7685    8.2838    1.6366 S   0  0  0  0  0  0  0  0  0  0  0  0
   13.0036    7.4333    0.7474 C   0  0  0  0  0  0  0  0  0  0  0  0
   12.4620    6.4288   -0.0421 C   0  0  0  0  0  0  0  0  0  0  0  0
   11.0688    6.3519    0.0870 C   0  0  0  0  0  0  0  0  0  0  0  0
   13.2819    5.5331   -0.9189 C   0  0  0  0  0  0  0  0  0  0  0  0
   12.4827    4.4252   -1.5930 C   0  0  0  0  0  0  0  0  0  0  0  0
   -3.4561    7.3288    6.5145 C   0  0  0  0  0  0  0  0  0  0  0  0
    9.3886   15.0484    1.5139 C   0  0  0  0  0  0  0  0  0  0  0  0
   16.9907    9.7092    2.7251 C   0  0  0  0  0  0  0  0  0  0  0  0
   16.2121    8.9209    1.8509 C   0  0  0  0  0  0  0  0  0  0  0  0
   16.8285    8.2192    0.7873 C   0  0  0  0  0  0  0  0  0  0  0  0
   18.1908    8.2835    0.5048 C   0  0  0  0  0  0  0  0  0  0  0  0
   18.9577    9.1216    1.3427 C   0  0  0  0  0  0  0  0  0  0  0  0
   18.3459    9.7973    2.4255 C   0  0  0  0  0  0  0  0  0  0  0  0
   14.8145    8.7086    1.8821 C   0  0  0  0  0  0  0  0  0  0  0  0
   14.3585    7.8332    0.9361 C   0  0  0  0  0  0  0  0  0  0  0  0
   15.6656    7.2486   -0.0750 S   0  0  0  0  0  0  0  0  0  0  0  0
   20.3390    9.4116    1.2624 C   0  0  0  0  0  0  0  0  0  0  0  0
   20.8044   10.2223    2.2595 C   0  0  0  0  0  0  0  0  0  0  0  0
   19.5176   10.6993    3.3460 S   0  0  0  0  0  0  0  0  0  0  0  0
   16.4107   10.3631    3.8754 C   0  0  0  0  0  0  0  0  0  0  0  0
   18.7702    7.5159   -0.5737 C   0  0  0  0  0  0  0  0  0  0  0  0
   15.4470    9.9022    4.7320 C   0  0  0  0  0  0  0  0  0  0  0  0
   15.1351   10.7935    5.7710 C   0  0  0  0  0  0  0  0  0  0  0  0
   15.8612   11.9506    5.7115 C   0  0  0  0  0  0  0  0  0  0  0  0
   16.9480   11.9521    4.3588 S   0  0  0  0  0  0  0  0  0  0  0  0
   18.2213    7.2087   -1.7904 C   0  0  0  0  0  0  0  0  0  0  0  0
   19.0397    6.4080   -2.6016 C   0  0  0  0  0  0  0  0  0  0  0  0
   20.2246    6.0815   -2.0024 C   0  0  0  0  0  0  0  0  0  0  0  0
   20.3419    6.7686   -0.4143 S   0  0  0  0  0  0  0  0  0  0  0  0
   15.7404   13.2859    6.8249 S   0  0  0  0  0  0  0  0  0  0  0  0
   17.1245   14.3403    6.2478 C   0  0  0  0  0  0  0  0  0  0  0  0
   21.4794    5.0971   -2.7059 S   0  0  0  0  0  0  0  0  0  0  0  0
   22.8227    5.3113   -1.4769 C   0  0  0  0  0  0  0  0  0  0  0  0
   22.1549   10.6545    2.4134 C   0  0  0  0  0  0  0  0  0  0  0  0
   23.2576   10.3251    1.1013 S   0  0  0  0  0  0  0  0  0  0  0  0
   24.5738   11.0373    1.9735 C   0  0  0  0  0  0  0  0  0  0  0  0
   24.1627   11.4936    3.2030 C   0  0  0  0  0  0  0  0  0  0  0  0
   22.7991   11.2886    3.4621 C   0  0  0  0  0  0  0  0  0  0  0  0
   22.1626   11.7465    4.7363 C   0  0  0  0  0  0  0  0  0  0  0  0
   21.5844   13.1553    4.5879 C   0  0  0  0  0  0  0  0  0  0  0  0
   25.8842   11.1007    1.4305 C   0  0  0  0  0  0  0  0  0  0  0  0
   26.9365   11.4651    2.0999 N   0  0  0  0  0  0  0  0  0  0  0  0
   28.0478   11.4593    1.4106 N   0  0  0  0  0  0  0  0  0  0  0  0
   27.9113   11.0965    0.1701 C   0  0  0  0  0  0  0  0  0  0  0  0
   26.2461   10.6976   -0.2471 S   0  0  0  0  0  0  0  0  0  0  0  0
   28.9798   11.0226   -0.7617 C   0  0  0  0  0  0  0  0  0  0  0  0
   28.7008   10.7799   -2.4531 S   0  0  0  0  0  0  0  0  0  0  0  0
   30.4116   10.8391   -2.7795 C   0  0  0  0  0  0  0  0  0  0  0  0
   31.1453   11.0277   -1.6170 C   0  0  0  0  0  0  0  0  0  0  0  0
   30.3229   11.1382   -0.4873 C   0  0  0  0  0  0  0  0  0  0  0  0
   32.6407   11.1091   -1.5912 C   0  0  0  0  0  0  0  0  0  0  0  0
   33.2216   11.4117   -0.2159 C   0  0  0  0  0  0  0  0  0  0  0  0
   17.2697   15.5403    7.1616 C   0  0  0  0  0  0  0  0  0  0  0  0
   24.0670    4.5882   -1.9510 C   0  0  0  0  0  0  0  0  0  0  0  0
   30.1549   10.5846   -7.7638 C   0  0  0  0  0  0  0  0  0  0  0  0
   30.7013   10.5837   -6.4622 C   0  0  0  0  0  0  0  0  0  0  0  0
   32.0953   10.4251   -6.2764 C   0  0  0  0  0  0  0  0  0  0  0  0
   32.9946   10.2289   -7.3198 C   0  0  0  0  0  0  0  0  0  0  0  0
   32.4346   10.1267   -8.6116 C   0  0  0  0  0  0  0  0  0  0  0  0
   31.0456   10.3194   -8.7992 C   0  0  0  0  0  0  0  0  0  0  0  0
   30.0190   10.7129   -5.2312 C   0  0  0  0  0  0  0  0  0  0  0  0
   30.8356   10.7164   -4.1344 C   0  0  0  0  0  0  0  0  0  0  0  0
   32.5186   10.5380   -4.5896 S   0  0  0  0  0  0  0  0  0  0  0  0
   33.0909    9.8203   -9.8265 C   0  0  0  0  0  0  0  0  0  0  0  0
   32.2730    9.8205  -10.9221 C   0  0  0  0  0  0  0  0  0  0  0  0
   30.6208   10.2021  -10.4831 S   0  0  0  0  0  0  0  0  0  0  0  0
   28.7580   10.8657   -7.9963 C   0  0  0  0  0  0  0  0  0  0  0  0
   34.4217   10.1448   -7.1151 C   0  0  0  0  0  0  0  0  0  0  0  0
   27.9481   11.7649   -7.3538 C   0  0  0  0  0  0  0  0  0  0  0  0
   26.6419   11.8215   -7.8645 C   0  0  0  0  0  0  0  0  0  0  0  0
   26.4431   10.9578   -8.9057 C   0  0  0  0  0  0  0  0  0  0  0  0
   27.8791   10.0527   -9.2662 S   0  0  0  0  0  0  0  0  0  0  0  0
   35.4254   10.6519   -7.8968 C   0  0  0  0  0  0  0  0  0  0  0  0
   36.7147   10.3983   -7.4032 C   0  0  0  0  0  0  0  0  0  0  0  0
   36.7035    9.6866   -6.2358 C   0  0  0  0  0  0  0  0  0  0  0  0
   35.0845    9.3275   -5.7228 S   0  0  0  0  0  0  0  0  0  0  0  0
   24.9537   10.7467   -9.7853 S   0  0  0  0  0  0  0  0  0  0  0  0
   25.5222    9.6882  -11.1703 C   0  0  0  0  0  0  0  0  0  0  0  0
   38.1135    9.1838   -5.3434 S   0  0  0  0  0  0  0  0  0  0  0  0
   37.3368    8.3657   -3.8993 C   0  0  0  0  0  0  0  0  0  0  0  0
   32.6627    9.5209  -12.2610 C   0  0  0  0  0  0  0  0  0  0  0  0
   34.3074    8.9979  -12.5260 S   0  0  0  0  0  0  0  0  0  0  0  0
   34.0249    8.8327  -14.2263 C   0  0  0  0  0  0  0  0  0  0  0  0
   32.7328    9.1732  -14.5482 C   0  0  0  0  0  0  0  0  0  0  0  0
   31.9538    9.5663  -13.4501 C   0  0  0  0  0  0  0  0  0  0  0  0
   30.5166    9.9514  -13.6096 C   0  0  0  0  0  0  0  0  0  0  0  0
   29.5960    8.7458  -13.4104 C   0  0  0  0  0  0  0  0  0  0  0  0
   35.0343    8.3945  -15.1239 C   0  0  0  0  0  0  0  0  0  0  0  0
   34.8527    8.2481  -16.4019 N   0  0  0  0  0  0  0  0  0  0  0  0
   35.9061    7.8292  -17.0551 N   0  0  0  0  0  0  0  0  0  0  0  0
   36.9555    7.6301  -16.3160 C   0  0  0  0  0  0  0  0  0  0  0  0
   36.6713    7.9837  -14.6147 S   0  0  0  0  0  0  0  0  0  0  0  0
   38.2030    7.1706  -16.8230 C   0  0  0  0  0  0  0  0  0  0  0  0
   39.5838    6.9250  -15.7994 S   0  0  0  0  0  0  0  0  0  0  0  0
   40.5175    6.4136  -17.1439 C   0  0  0  0  0  0  0  0  0  0  0  0
   39.8184    6.4240  -18.3163 C   0  0  0  0  0  0  0  0  0  0  0  0
   38.4910    6.8612  -18.1287 C   0  0  0  0  0  0  0  0  0  0  0  0
   40.3927    6.0608  -19.6493 C   0  0  0  0  0  0  0  0  0  0  0  0
   40.7093    7.3166  -20.4627 C   0  0  0  0  0  0  0  0  0  0  0  0
   24.3933    9.4916  -12.1617 C   0  0  0  0  0  0  0  0  0  0  0  0
   38.4116    7.8695   -2.9533 C   0  0  0  0  0  0  0  0  0  0  0  0
   -0.9619   15.3036    7.2096 H   0  0  0  0  0  0  0  0  0  0  0  0
    0.2304   17.5288    7.8459 H   0  0  0  0  0  0  0  0  0  0  0  0
    4.9554   12.4158    4.4087 H   0  0  0  0  0  0  0  0  0  0  0  0
   -1.9440   14.4995    5.2689 H   0  0  0  0  0  0  0  0  0  0  0  0
   -4.0214   12.9514    5.4664 H   0  0  0  0  0  0  0  0  0  0  0  0
    4.8644   16.1999    7.2948 H   0  0  0  0  0  0  0  0  0  0  0  0
    7.1648   17.0150    6.4265 H   0  0  0  0  0  0  0  0  0  0  0  0
   -2.0936    8.8154    7.3049 H   0  0  0  0  0  0  0  0  0  0  0  0
   -2.0005    8.6043    5.5394 H   0  0  0  0  0  0  0  0  0  0  0  0
    7.2545   15.2742    1.8091 H   0  0  0  0  0  0  0  0  0  0  0  0
    8.0036   14.0063    2.8117 H   0  0  0  0  0  0  0  0  0  0  0  0
    4.3332    7.0754    1.9269 H   0  0  0  0  0  0  0  0  0  0  0  0
    1.9047    7.6470    2.1885 H   0  0  0  0  0  0  0  0  0  0  0  0
    1.3846    9.1894    2.8769 H   0  0  0  0  0  0  0  0  0  0  0  0
    2.4113    6.7928    4.4765 H   0  0  0  0  0  0  0  0  0  0  0  0
    0.7212    7.2878    4.3338 H   0  0  0  0  0  0  0  0  0  0  0  0
    1.8762    8.3258    5.1709 H   0  0  0  0  0  0  0  0  0  0  0  0
   10.4390    5.6492   -0.4240 H   0  0  0  0  0  0  0  0  0  0  0  0
   14.0798    5.0865   -0.3179 H   0  0  0  0  0  0  0  0  0  0  0  0
   13.7689    6.1435   -1.6861 H   0  0  0  0  0  0  0  0  0  0  0  0
   11.9940    3.7964   -0.8529 H   0  0  0  0  0  0  0  0  0  0  0  0
   13.1510    3.8030   -2.1833 H   0  0  0  0  0  0  0  0  0  0  0  0
   11.7279    4.8393   -2.2569 H   0  0  0  0  0  0  0  0  0  0  0  0
   -4.1370    7.3709    7.3613 H   0  0  0  0  0  0  0  0  0  0  0  0
   -2.7727    6.4945    6.6565 H   0  0  0  0  0  0  0  0  0  0  0  0
   -4.0380    7.1555    5.6124 H   0  0  0  0  0  0  0  0  0  0  0  0
    9.5273   16.0458    1.1034 H   0  0  0  0  0  0  0  0  0  0  0  0
    9.2947   14.3414    0.6927 H   0  0  0  0  0  0  0  0  0  0  0  0
   10.2680   14.7896    2.0988 H   0  0  0  0  0  0  0  0  0  0  0  0
   14.1538    9.2012    2.5721 H   0  0  0  0  0  0  0  0  0  0  0  0
   20.9856    9.0439    0.4870 H   0  0  0  0  0  0  0  0  0  0  0  0
   15.0103    8.9231    4.6506 H   0  0  0  0  0  0  0  0  0  0  0  0
   14.4132   10.5962    6.5417 H   0  0  0  0  0  0  0  0  0  0  0  0
   17.2707    7.5883   -2.1179 H   0  0  0  0  0  0  0  0  0  0  0  0
   18.7795    6.0846   -3.5924 H   0  0  0  0  0  0  0  0  0  0  0  0
   16.8982   14.6439    5.2251 H   0  0  0  0  0  0  0  0  0  0  0  0
   18.0238   13.7232    6.2525 H   0  0  0  0  0  0  0  0  0  0  0  0
   22.4648    4.9087   -0.5286 H   0  0  0  0  0  0  0  0  0  0  0  0
   23.0001    6.3826   -1.3745 H   0  0  0  0  0  0  0  0  0  0  0  0
   24.8436   11.9639    3.8888 H   0  0  0  0  0  0  0  0  0  0  0  0
   22.9228   11.7517    5.5197 H   0  0  0  0  0  0  0  0  0  0  0  0
   21.3708   11.0576    5.0345 H   0  0  0  0  0  0  0  0  0  0  0  0
   22.3655   13.8553    4.3003 H   0  0  0  0  0  0  0  0  0  0  0  0
   21.1531   13.4829    5.5304 H   0  0  0  0  0  0  0  0  0  0  0  0
   20.8068   13.1719    3.8284 H   0  0  0  0  0  0  0  0  0  0  0  0
   30.6698   11.2952    0.5160 H   0  0  0  0  0  0  0  0  0  0  0  0
   32.9625   11.8820   -2.2961 H   0  0  0  0  0  0  0  0  0  0  0  0
   33.0490   10.1606   -1.9552 H   0  0  0  0  0  0  0  0  0  0  0  0
   32.8480   12.3608    0.1608 H   0  0  0  0  0  0  0  0  0  0  0  0
   34.3052   11.4739   -0.2841 H   0  0  0  0  0  0  0  0  0  0  0  0
   32.9693   10.6274    0.4935 H   0  0  0  0  0  0  0  0  0  0  0  0
   16.3568   16.1309    7.1631 H   0  0  0  0  0  0  0  0  0  0  0  0
   18.0904   16.1659    6.8177 H   0  0  0  0  0  0  0  0  0  0  0  0
   17.4757   15.2210    8.1805 H   0  0  0  0  0  0  0  0  0  0  0  0
   23.8687    3.5256   -2.0706 H   0  0  0  0  0  0  0  0  0  0  0  0
   24.8650    4.7158   -1.2230 H   0  0  0  0  0  0  0  0  0  0  0  0
   24.3985    4.9876   -2.9066 H   0  0  0  0  0  0  0  0  0  0  0  0
   28.9491   10.7764   -5.1484 H   0  0  0  0  0  0  0  0  0  0  0  0
   34.1351    9.5723   -9.8905 H   0  0  0  0  0  0  0  0  0  0  0  0
   28.2980   12.4126   -6.5703 H   0  0  0  0  0  0  0  0  0  0  0  0
   25.8755   12.4775   -7.4952 H   0  0  0  0  0  0  0  0  0  0  0  0
   35.2405   11.2356   -8.7805 H   0  0  0  0  0  0  0  0  0  0  0  0
   37.6206   10.7260   -7.8786 H   0  0  0  0  0  0  0  0  0  0  0  0
   25.8474    8.7389  -10.7432 H   0  0  0  0  0  0  0  0  0  0  0  0
   26.3744   10.1904  -11.6296 H   0  0  0  0  0  0  0  0  0  0  0  0
   36.7303    7.5430   -4.2796 H   0  0  0  0  0  0  0  0  0  0  0  0
   36.6906    9.1017   -3.4193 H   0  0  0  0  0  0  0  0  0  0  0  0
   32.3741    9.1362  -15.5606 H   0  0  0  0  0  0  0  0  0  0  0  0
   30.3766   10.3455  -14.6181 H   0  0  0  0  0  0  0  0  0  0  0  0
   30.2510   10.7356  -12.8992 H   0  0  0  0  0  0  0  0  0  0  0  0
   29.8448    7.9608  -14.1208 H   0  0  0  0  0  0  0  0  0  0  0  0
   28.5598    9.0376  -13.5621 H   0  0  0  0  0  0  0  0  0  0  0  0
   29.6974    8.3478  -12.4041 H   0  0  0  0  0  0  0  0  0  0  0  0
   41.5395    6.1271  -16.9909 H   0  0  0  0  0  0  0  0  0  0  0  0
   37.7588    6.9462  -18.9102 H   0  0  0  0  0  0  0  0  0  0  0  0
   39.6720    5.4486  -20.1953 H   0  0  0  0  0  0  0  0  0  0  0  0
   41.3036    5.4765  -19.5083 H   0  0  0  0  0  0  0  0  0  0  0  0
   39.8095    7.9080  -20.6137 H   0  0  0  0  0  0  0  0  0  0  0  0
   41.1141    7.0450  -21.4345 H   0  0  0  0  0  0  0  0  0  0  0  0
   41.4401    7.9307  -19.9414 H   0  0  0  0  0  0  0  0  0  0  0  0
   23.5409    9.0186  -11.6800 H   0  0  0  0  0  0  0  0  0  0  0  0
   24.7290    8.8574  -12.9792 H   0  0  0  0  0  0  0  0  0  0  0  0
   24.0727   10.4477  -12.5688 H   0  0  0  0  0  0  0  0  0  0  0  0
   39.0592    7.1540   -3.4542 H   0  0  0  0  0  0  0  0  0  0  0  0
   37.9506    7.3839   -2.0962 H   0  0  0  0  0  0  0  0  0  0  0  0
   39.0210    8.6981   -2.6004 H   0  0  0  0  0  0  0  0  0  0  0  0
  1 13  1  0  0  0  0
  1  2  2  0  0  0  0
  2  7  1  0  0  0  0
  3  2  1  0  0  0  0
  3  9  1  0  0  0  0
  4  3  2  0  0  0  0
  5  6  2  0  0  0  0
  5  4  1  0  0  0  0
  6  1  1  0  0  0  0
  7142  1  0  0  0  0
  7  8  2  0  0  0  0
  8143  1  0  0  0  0
  9  8  1  0  0  0  0
 10  5  1  0  0  0  0
 11 12  1  0  0  0  0
 11 10  2  0  0  0  0
 12  6  1  0  0  0  0
 13 18  1  0  0  0  0
 14  4  1  0  0  0  0
 14 19  2  0  0  0  0
 15 16  1  0  0  0  0
 15 13  2  0  0  0  0
 16 17  2  0  0  0  0
 17 18  1  0  0  0  0
 17 23  1  0  0  0  0
 19147  1  0  0  0  0
 20 19  1  0  0  0  0
 20148  1  0  0  0  0
 21 20  2  0  0  0  0
 22 21  1  0  0  0  0
 22 14  1  0  0  0  0
 23 24  1  0  0  0  0
 24 46  1  0  0  0  0
 24149  1  0  0  0  0
 25 21  1  0  0  0  0
 26152  1  0  0  0  0
 26 25  1  0  0  0  0
 27 11  1  0  0  0  0
 28 27  1  0  0  0  0
 29 28  1  0  0  0  0
 30 29  2  0  0  0  0
 30 31  1  0  0  0  0
 31 32  1  0  0  0  0
 31 27  2  0  0  0  0
 32 33  1  0  0  0  0
 33156  1  0  0  0  0
 33158  1  0  0  0  0
 34 38  1  0  0  0  0
 34 29  1  0  0  0  0
 35 34  2  0  0  0  0
 36 35  1  0  0  0  0
 36 37  2  0  0  0  0
 37 38  1  0  0  0  0
 39 37  1  0  0  0  0
 39 40  1  0  0  0  0
 41 55  1  0  0  0  0
 41 40  1  0  0  0  0
 42 43  1  0  0  0  0
 42 41  2  0  0  0  0
 43 39  2  0  0  0  0
 44160  1  0  0  0  0
 44 42  1  0  0  0  0
 45 44  1  0  0  0  0
 45162  1  0  0  0  0
 46166  1  0  0  0  0
 46165  1  0  0  0  0
 47170  1  0  0  0  0
 47 26  1  0  0  0  0
 48 60  1  0  0  0  0
 49 54  1  0  0  0  0
 49 48  2  0  0  0  0
 50 49  1  0  0  0  0
 51 50  2  0  0  0  0
 51 52  1  0  0  0  0
 52 53  2  0  0  0  0
 53 48  1  0  0  0  0
 53 59  1  0  0  0  0
 54171  1  0  0  0  0
 55 54  2  0  0  0  0
 56 50  1  0  0  0  0
 56 55  1  0  0  0  0
 57 52  1  0  0  0  0
 57 58  2  0  0  0  0
 58 74  1  0  0  0  0
 58 59  1  0  0  0  0
 60 65  1  0  0  0  0
 60 62  2  0  0  0  0
 61 69  1  0  0  0  0
 61 51  1  0  0  0  0
 62 63  1  0  0  0  0
 63174  1  0  0  0  0
 64 63  2  0  0  0  0
 64 70  1  0  0  0  0
 65 64  1  0  0  0  0
 66 61  2  0  0  0  0
 67 68  2  0  0  0  0
 67 66  1  0  0  0  0
 68 69  1  0  0  0  0
 71178  1  0  0  0  0
 71 70  1  0  0  0  0
 71 93  1  0  0  0  0
 72 68  1  0  0  0  0
 72 73  1  0  0  0  0
 73180  1  0  0  0  0
 73179  1  0  0  0  0
 74 78  2  0  0  0  0
 75 76  1  0  0  0  0
 75 74  1  0  0  0  0
 76 77  2  0  0  0  0
 77 78  1  0  0  0  0
 77181  1  0  0  0  0
 78 79  1  0  0  0  0
 79183  1  0  0  0  0
 79182  1  0  0  0  0
 80 79  1  0  0  0  0
 80185  1  0  0  0  0
 81 76  1  0  0  0  0
 81 82  2  0  0  0  0
 83 82  1  0  0  0  0
 84 83  2  0  0  0  0
 85 84  1  0  0  0  0
 85 81  1  0  0  0  0
 86 90  2  0  0  0  0
 86 84  1  0  0  0  0
 87 86  1  0  0  0  0
 88 87  1  0  0  0  0
 88 89  2  0  0  0  0
 89 91  1  0  0  0  0
 89 90  1  0  0  0  0
 90187  1  0  0  0  0
 91 92  1  0  0  0  0
 92190  1  0  0  0  0
 92192  1  0  0  0  0
 93193  1  0  0  0  0
 93195  1  0  0  0  0
 94 73  1  0  0  0  0
 94197  1  0  0  0  0
 95 96  2  0  0  0  0
 96 97  1  0  0  0  0
 96101  1  0  0  0  0
 97103  1  0  0  0  0
 98108  1  0  0  0  0
 98 97  2  0  0  0  0
 99 98  1  0  0  0  0
100 99  2  0  0  0  0
100 95  1  0  0  0  0
101199  1  0  0  0  0
101102  2  0  0  0  0
102 88  1  0  0  0  0
103102  1  0  0  0  0
104 99  1  0  0  0  0
105106  1  0  0  0  0
105104  2  0  0  0  0
106100  1  0  0  0  0
107 95  1  0  0  0  0
107109  2  0  0  0  0
108116  1  0  0  0  0
109201  1  0  0  0  0
110202  1  0  0  0  0
110109  1  0  0  0  0
111110  2  0  0  0  0
112111  1  0  0  0  0
112107  1  0  0  0  0
113114  1  0  0  0  0
113108  2  0  0  0  0
114115  2  0  0  0  0
115116  1  0  0  0  0
115119  1  0  0  0  0
117111  1  0  0  0  0
118205  1  0  0  0  0
118117  1  0  0  0  0
119120  1  0  0  0  0
120208  1  0  0  0  0
120141  1  0  0  0  0
121105  1  0  0  0  0
122121  1  0  0  0  0
123122  1  0  0  0  0
124123  2  0  0  0  0
124125  1  0  0  0  0
125121  2  0  0  0  0
126125  1  0  0  0  0
126127  1  0  0  0  0
126211  1  0  0  0  0
127214  1  0  0  0  0
128132  1  0  0  0  0
128123  1  0  0  0  0
129128  2  0  0  0  0
130129  1  0  0  0  0
130131  2  0  0  0  0
131132  1  0  0  0  0
133131  1  0  0  0  0
133134  1  0  0  0  0
135215  1  0  0  0  0
135134  1  0  0  0  0
136137  1  0  0  0  0
136135  2  0  0  0  0
137133  2  0  0  0  0
138218  1  0  0  0  0
138136  1  0  0  0  0
139221  1  0  0  0  0
139138  1  0  0  0  0
140222  1  0  0  0  0
140118  1  0  0  0  0
141227  1  0  0  0  0
141226  1  0  0  0  0
144 10  1  0  0  0  0
145 15  1  0  0  0  0
146 16  1  0  0  0  0
150 24  1  0  0  0  0
151 26  1  0  0  0  0
153 30  1  0  0  0  0
154 32  1  0  0  0  0
155 32  1  0  0  0  0
157 33  1  0  0  0  0
159 43  1  0  0  0  0
161 44  1  0  0  0  0
163 45  1  0  0  0  0
164 45  1  0  0  0  0
167 46  1  0  0  0  0
168 47  1  0  0  0  0
169 47  1  0  0  0  0
172 57  1  0  0  0  0
173 62  1  0  0  0  0
175 66  1  0  0  0  0
176 67  1  0  0  0  0
177 71  1  0  0  0  0
184 80  1  0  0  0  0
186 80  1  0  0  0  0
188 91  1  0  0  0  0
189 91  1  0  0  0  0
191 92  1  0  0  0  0
194 93  1  0  0  0  0
196 94  1  0  0  0  0
198 94  1  0  0  0  0
200104  1  0  0  0  0
203113  1  0  0  0  0
204114  1  0  0  0  0
206118  1  0  0  0  0
207120  1  0  0  0  0
209124  1  0  0  0  0
210126  1  0  0  0  0
212127  1  0  0  0  0
213127  1  0  0  0  0
216137  1  0  0  0  0
217138  1  0  0  0  0
219139  1  0  0  0  0
220139  1  0  0  0  0
223140  1  0  0  0  0
224140  1  0  0  0  0
225141  1  0  0  0  0
M  END
