SCF done       -433.435719923750          0.000382501279
 OpenBabel12282109573D

248274  0  0  0  0  0  0  0  0999 V2000
    3.5716   -0.9996   -6.8104 C   0  0  0  0  0  0  0  0  0  0  0  0
    3.8166   -2.3627   -7.0272 C   0  0  0  0  0  0  0  0  0  0  0  0
    4.9118   -2.9988   -6.3956 C   0  0  0  0  0  0  0  0  0  0  0  0
    5.8012   -2.3350   -5.5640 C   0  0  0  0  0  0  0  0  0  0  0  0
    5.5617   -0.9680   -5.3546 C   0  0  0  0  0  0  0  0  0  0  0  0
    4.4585   -0.3345   -5.9790 C   0  0  0  0  0  0  0  0  0  0  0  0
    3.1039   -3.2615   -7.8763 C   0  0  0  0  0  0  0  0  0  0  0  0
    3.6240   -4.5049   -7.8777 C   0  0  0  0  0  0  0  0  0  0  0  0
    5.0100   -4.6807   -6.8542 S   0  0  0  0  0  0  0  0  0  0  0  0
    6.2798   -0.0747   -4.5197 C   0  0  0  0  0  0  0  0  0  0  0  0
    5.7647    1.1872   -4.4964 C   0  0  0  0  0  0  0  0  0  0  0  0
    4.3454    1.3449   -5.5183 S   0  0  0  0  0  0  0  0  0  0  0  0
    2.4239   -0.3149   -7.4248 C   0  0  0  0  0  0  0  0  0  0  0  0
    6.9339   -3.0205   -4.9256 C   0  0  0  0  0  0  0  0  0  0  0  0
    6.2490    2.3052   -3.7586 C   0  0  0  0  0  0  0  0  0  0  0  0
    7.7727    2.2260   -2.9349 S   0  0  0  0  0  0  0  0  0  0  0  0
    7.5756    3.8463   -2.3306 C   0  0  0  0  0  0  0  0  0  0  0  0
    6.3867    4.3923   -2.7678 C   0  0  0  0  0  0  0  0  0  0  0  0
    5.6473    3.5310   -3.5768 C   0  0  0  0  0  0  0  0  0  0  0  0
    8.5449    4.4668   -1.4787 C   0  0  0  0  0  0  0  0  0  0  0  0
    9.7984    3.9369   -1.2035 C   0  0  0  0  0  0  0  0  0  0  0  0
   10.7361    4.5439   -0.3580 C   0  0  0  0  0  0  0  0  0  0  0  0
   10.5082    5.7290    0.3279 C   0  0  0  0  0  0  0  0  0  0  0  0
    9.2368    6.2992    0.0662 C   0  0  0  0  0  0  0  0  0  0  0  0
    8.2937    5.6972   -0.8201 C   0  0  0  0  0  0  0  0  0  0  0  0
    8.6811    7.4276    0.5285 N   0  0  0  0  0  0  0  0  0  0  0  0
    7.5110    7.4737   -0.0441 N   0  0  0  0  0  0  0  0  0  0  0  0
    7.2152    6.4919   -0.8488 N   0  0  0  0  0  0  0  0  0  0  0  0
   11.4413    6.3277    1.2348 C   0  0  0  0  0  0  0  0  0  0  0  0
    6.6161    8.5771    0.1577 C   0  0  0  0  0  0  0  0  0  0  0  0
    6.9062    9.6871   -0.8482 C   0  0  0  0  0  0  0  0  0  0  0  0
   11.1879    7.3572    2.1174 C   0  0  0  0  0  0  0  0  0  0  0  0
   12.2890    7.6963    2.9019 C   0  0  0  0  0  0  0  0  0  0  0  0
   13.4099    6.9459    2.6170 C   0  0  0  0  0  0  0  0  0  0  0  0
   13.0888    5.7888    1.3693 S   0  0  0  0  0  0  0  0  0  0  0  0
   10.1676    2.7704   -1.7689 F   0  0  0  0  0  0  0  0  0  0  0  0
   11.9112    3.9020   -0.2056 F   0  0  0  0  0  0  0  0  0  0  0  0
    1.1323   -0.8118   -7.2547 C   0  0  0  0  0  0  0  0  0  0  0  0
    0.0648   -0.1513   -7.8267 C   0  0  0  0  0  0  0  0  0  0  0  0
    0.2537    0.9986   -8.5771 C   0  0  0  0  0  0  0  0  0  0  0  0
    1.5386    1.5013   -8.7523 C   0  0  0  0  0  0  0  0  0  0  0  0
    2.6170    0.8383   -8.1673 C   0  0  0  0  0  0  0  0  0  0  0  0
    1.8527    2.6127   -9.4680 O   0  0  0  0  0  0  0  0  0  0  0  0
    0.8172    3.3425  -10.0940 C   0  0  0  0  0  0  0  0  0  0  0  0
    1.4547    4.5166  -10.8204 C   0  0  0  0  0  0  0  0  0  0  0  0
    6.7285   -4.1899   -4.1950 C   0  0  0  0  0  0  0  0  0  0  0  0
    7.7987   -4.8143   -3.5883 C   0  0  0  0  0  0  0  0  0  0  0  0
    9.0808   -4.2993   -3.6920 C   0  0  0  0  0  0  0  0  0  0  0  0
    9.2971   -3.1352   -4.4226 C   0  0  0  0  0  0  0  0  0  0  0  0
    8.2158   -2.5055   -5.0382 C   0  0  0  0  0  0  0  0  0  0  0  0
   10.5014   -2.5339   -4.5984 O   0  0  0  0  0  0  0  0  0  0  0  0
   11.6384   -3.0680   -3.9497 C   0  0  0  0  0  0  0  0  0  0  0  0
   12.8152   -2.1553   -4.2564 C   0  0  0  0  0  0  0  0  0  0  0  0
   16.9993    7.8784    5.9761 C   0  0  0  0  0  0  0  0  0  0  0  0
   16.3679    7.4537    4.7956 C   0  0  0  0  0  0  0  0  0  0  0  0
   17.1292    6.8693    3.7521 C   0  0  0  0  0  0  0  0  0  0  0  0
   18.5079    6.7375    3.7990 C   0  0  0  0  0  0  0  0  0  0  0  0
   19.1409    7.1753    4.9738 C   0  0  0  0  0  0  0  0  0  0  0  0
   18.3741    7.7213    6.0337 C   0  0  0  0  0  0  0  0  0  0  0  0
   14.9941    7.5486    4.4596 C   0  0  0  0  0  0  0  0  0  0  0  0
   14.6950    7.0284    3.2341 C   0  0  0  0  0  0  0  0  0  0  0  0
   16.1128    6.4056    2.4131 S   0  0  0  0  0  0  0  0  0  0  0  0
   20.5167    7.0942    5.3048 C   0  0  0  0  0  0  0  0  0  0  0  0
   20.8061    7.5408    6.5601 C   0  0  0  0  0  0  0  0  0  0  0  0
   19.3769    8.1044    7.4103 S   0  0  0  0  0  0  0  0  0  0  0  0
   16.2384    8.4458    7.0989 C   0  0  0  0  0  0  0  0  0  0  0  0
   19.2756    6.1736    2.6796 C   0  0  0  0  0  0  0  0  0  0  0  0
   22.0804    7.5798    7.1953 C   0  0  0  0  0  0  0  0  0  0  0  0
   23.5350    7.3725    6.2749 S   0  0  0  0  0  0  0  0  0  0  0  0
   24.5102    7.5180    7.7092 C   0  0  0  0  0  0  0  0  0  0  0  0
   23.7207    7.7175    8.8224 C   0  0  0  0  0  0  0  0  0  0  0  0
   22.3582    7.7657    8.5318 C   0  0  0  0  0  0  0  0  0  0  0  0
   25.9396    7.4372    7.6738 C   0  0  0  0  0  0  0  0  0  0  0  0
   26.6965    7.4826    6.5109 C   0  0  0  0  0  0  0  0  0  0  0  0
   28.0963    7.4347    6.4864 C   0  0  0  0  0  0  0  0  0  0  0  0
   28.8871    7.2986    7.6192 C   0  0  0  0  0  0  0  0  0  0  0  0
   28.1430    7.2225    8.8236 C   0  0  0  0  0  0  0  0  0  0  0  0
   26.7184    7.3085    8.8517 C   0  0  0  0  0  0  0  0  0  0  0  0
   28.5564    7.0929   10.0917 N   0  0  0  0  0  0  0  0  0  0  0  0
   27.4593    7.1042   10.7957 N   0  0  0  0  0  0  0  0  0  0  0  0
   26.3423    7.2265   10.1351 N   0  0  0  0  0  0  0  0  0  0  0  0
   30.3180    7.2427    7.6021 C   0  0  0  0  0  0  0  0  0  0  0  0
   27.4778    6.9379   12.2210 C   0  0  0  0  0  0  0  0  0  0  0  0
   27.3075    5.4665   12.5873 C   0  0  0  0  0  0  0  0  0  0  0  0
   31.1453    6.8987    8.6506 C   0  0  0  0  0  0  0  0  0  0  0  0
   32.4994    6.9440    8.3237 C   0  0  0  0  0  0  0  0  0  0  0  0
   32.7326    7.3419    7.0252 C   0  0  0  0  0  0  0  0  0  0  0  0
   31.2458    7.6386    6.1837 S   0  0  0  0  0  0  0  0  0  0  0  0
   26.0797    7.5966    5.3179 F   0  0  0  0  0  0  0  0  0  0  0  0
   28.6783    7.5186    5.2735 F   0  0  0  0  0  0  0  0  0  0  0  0
   16.6076    9.6697    7.6547 C   0  0  0  0  0  0  0  0  0  0  0  0
   15.8897   10.1847    8.7142 C   0  0  0  0  0  0  0  0  0  0  0  0
   14.8058    9.5024    9.2432 C   0  0  0  0  0  0  0  0  0  0  0  0
   14.4322    8.2784    8.6982 C   0  0  0  0  0  0  0  0  0  0  0  0
   15.1546    7.7597    7.6245 C   0  0  0  0  0  0  0  0  0  0  0  0
   13.3919    7.5152    9.1286 O   0  0  0  0  0  0  0  0  0  0  0  0
   12.6308    7.9552   10.2351 C   0  0  0  0  0  0  0  0  0  0  0  0
   11.5672    6.9044   10.5124 C   0  0  0  0  0  0  0  0  0  0  0  0
   18.9185    4.9486    2.1182 C   0  0  0  0  0  0  0  0  0  0  0  0
   19.6548    4.4365    1.0697 C   0  0  0  0  0  0  0  0  0  0  0  0
   20.7478    5.1192    0.5607 C   0  0  0  0  0  0  0  0  0  0  0  0
   21.1099    6.3444    1.1117 C   0  0  0  0  0  0  0  0  0  0  0  0
   20.3644    6.8635    2.1694 C   0  0  0  0  0  0  0  0  0  0  0  0
   22.1554    7.1093    0.7048 O   0  0  0  0  0  0  0  0  0  0  0  0
   22.9951    6.6361   -0.3291 C   0  0  0  0  0  0  0  0  0  0  0  0
   24.1034    7.6589   -0.5239 C   0  0  0  0  0  0  0  0  0  0  0  0
   36.1627    8.6876    3.6426 C   0  0  0  0  0  0  0  0  0  0  0  0
   35.5924    8.1690    4.8172 C   0  0  0  0  0  0  0  0  0  0  0  0
   36.4175    7.5941    5.8169 C   0  0  0  0  0  0  0  0  0  0  0  0
   37.7907    7.4708    5.6889 C   0  0  0  0  0  0  0  0  0  0  0  0
   38.3603    7.9844    4.5120 C   0  0  0  0  0  0  0  0  0  0  0  0
   37.5379    8.5764    3.5205 C   0  0  0  0  0  0  0  0  0  0  0  0
   34.2196    8.0994    5.1609 C   0  0  0  0  0  0  0  0  0  0  0  0
   33.9868    7.5307    6.3785 C   0  0  0  0  0  0  0  0  0  0  0  0
   35.4715    7.0279    7.1698 S   0  0  0  0  0  0  0  0  0  0  0  0
   39.7316    8.0444    4.1656 C   0  0  0  0  0  0  0  0  0  0  0  0
   39.9689    8.6426    2.9624 C   0  0  0  0  0  0  0  0  0  0  0  0
   38.4891    9.1745    2.1841 S   0  0  0  0  0  0  0  0  0  0  0  0
   35.3376    9.3298    2.6095 C   0  0  0  0  0  0  0  0  0  0  0  0
   38.6158    6.8180    6.7155 C   0  0  0  0  0  0  0  0  0  0  0  0
   41.2319    8.8407    2.3370 C   0  0  0  0  0  0  0  0  0  0  0  0
   42.6872    8.2575    3.0865 S   0  0  0  0  0  0  0  0  0  0  0  0
   43.6510    8.8569    1.7675 C   0  0  0  0  0  0  0  0  0  0  0  0
   42.8614    9.4711    0.8181 C   0  0  0  0  0  0  0  0  0  0  0  0
   41.5037    9.4612    1.1382 C   0  0  0  0  0  0  0  0  0  0  0  0
   45.0692    8.6582    1.7924 C   0  0  0  0  0  0  0  0  0  0  0  0
   45.9653    9.0479    0.8073 C   0  0  0  0  0  0  0  0  0  0  0  0
   47.3471    8.8138    0.8815 C   0  0  0  0  0  0  0  0  0  0  0  0
   47.9795    8.1698    1.9364 C   0  0  0  0  0  0  0  0  0  0  0  0
   47.0908    7.7609    2.9623 C   0  0  0  0  0  0  0  0  0  0  0  0
   45.6896    8.0046    2.8835 C   0  0  0  0  0  0  0  0  0  0  0  0
   47.3113    7.1243    4.1229 N   0  0  0  0  0  0  0  0  0  0  0  0
   46.1307    7.0149    4.6668 N   0  0  0  0  0  0  0  0  0  0  0  0
   45.1321    7.5111    3.9942 N   0  0  0  0  0  0  0  0  0  0  0  0
   49.3922    7.9290    2.0086 C   0  0  0  0  0  0  0  0  0  0  0  0
   45.9390    6.3810    5.9405 C   0  0  0  0  0  0  0  0  0  0  0  0
   44.9882    5.1973    5.8126 C   0  0  0  0  0  0  0  0  0  0  0  0
   50.0689    7.3029    3.0293 C   0  0  0  0  0  0  0  0  0  0  0  0
   51.4513    7.2209    2.8035 C   0  0  0  0  0  0  0  0  0  0  0  0
   51.8224    7.7809    1.6188 C   0  0  0  0  0  0  0  0  0  0  0  0
   50.4928    8.4210    0.7521 S   0  0  0  0  0  0  0  0  0  0  0  0
   45.5299    9.6851   -0.2972 F   0  0  0  0  0  0  0  0  0  0  0  0
   48.0795    9.2561   -0.1606 F   0  0  0  0  0  0  0  0  0  0  0  0
   35.4400    8.9411    1.2749 C   0  0  0  0  0  0  0  0  0  0  0  0
   34.6561    9.5576    0.3214 C   0  0  0  0  0  0  0  0  0  0  0  0
   33.7665   10.5626    0.6656 C   0  0  0  0  0  0  0  0  0  0  0  0
   33.6606   10.9609    1.9943 C   0  0  0  0  0  0  0  0  0  0  0  0
   34.4526   10.3382    2.9580 C   0  0  0  0  0  0  0  0  0  0  0  0
   32.8317   11.9322    2.4579 O   0  0  0  0  0  0  0  0  0  0  0  0
   31.9690   12.5906    1.5520 C   0  0  0  0  0  0  0  0  0  0  0  0
   31.1402   13.5868    2.3475 C   0  0  0  0  0  0  0  0  0  0  0  0
   38.5298    7.2035    8.0521 C   0  0  0  0  0  0  0  0  0  0  0  0
   39.3092    6.5705    8.9984 C   0  0  0  0  0  0  0  0  0  0  0  0
   40.1769    5.5491    8.6452 C   0  0  0  0  0  0  0  0  0  0  0  0
   40.2637    5.1523    7.3151 C   0  0  0  0  0  0  0  0  0  0  0  0
   39.4809    5.7951    6.3579 C   0  0  0  0  0  0  0  0  0  0  0  0
   41.0696    4.1623    6.8431 O   0  0  0  0  0  0  0  0  0  0  0  0
   41.8430    3.4124    7.7565 C   0  0  0  0  0  0  0  0  0  0  0  0
   42.5464    2.3152    6.9726 C   0  0  0  0  0  0  0  0  0  0  0  0
    2.2525   -2.9659   -8.4623 H   0  0  0  0  0  0  0  0  0  0  0  0
    3.2820   -5.3620   -8.4247 H   0  0  0  0  0  0  0  0  0  0  0  0
    7.1373   -0.3622   -3.9382 H   0  0  0  0  0  0  0  0  0  0  0  0
    6.0829    5.3860   -2.4969 H   0  0  0  0  0  0  0  0  0  0  0  0
    4.6964    3.7777   -4.0152 H   0  0  0  0  0  0  0  0  0  0  0  0
    6.7618    8.9383    1.1774 H   0  0  0  0  0  0  0  0  0  0  0  0
    5.5991    8.2013    0.0326 H   0  0  0  0  0  0  0  0  0  0  0  0
    7.9290   10.0377   -0.7336 H   0  0  0  0  0  0  0  0  0  0  0  0
    6.2287   10.5201   -0.6845 H   0  0  0  0  0  0  0  0  0  0  0  0
    6.7721    9.3192   -1.8624 H   0  0  0  0  0  0  0  0  0  0  0  0
   10.2264    7.8314    2.1787 H   0  0  0  0  0  0  0  0  0  0  0  0
   12.2799    8.4750    3.6428 H   0  0  0  0  0  0  0  0  0  0  0  0
    0.9730   -1.6980   -6.6591 H   0  0  0  0  0  0  0  0  0  0  0  0
   -0.9373   -0.5316   -7.6906 H   0  0  0  0  0  0  0  0  0  0  0  0
   -0.6020    1.4889   -9.0138 H   0  0  0  0  0  0  0  0  0  0  0  0
    3.6069    1.2372   -8.3230 H   0  0  0  0  0  0  0  0  0  0  0  0
    0.1022    3.7049   -9.3419 H   0  0  0  0  0  0  0  0  0  0  0  0
    0.2809    2.7016  -10.8082 H   0  0  0  0  0  0  0  0  0  0  0  0
    1.9890    5.1436  -10.1121 H   0  0  0  0  0  0  0  0  0  0  0  0
    0.6884    5.1068  -11.3148 H   0  0  0  0  0  0  0  0  0  0  0  0
    2.1611    4.1537  -11.5619 H   0  0  0  0  0  0  0  0  0  0  0  0
    5.7323   -4.5906   -4.0890 H   0  0  0  0  0  0  0  0  0  0  0  0
    7.6390   -5.7178   -3.0184 H   0  0  0  0  0  0  0  0  0  0  0  0
    9.8959   -4.8112   -3.2054 H   0  0  0  0  0  0  0  0  0  0  0  0
    8.4058   -1.6164   -5.6189 H   0  0  0  0  0  0  0  0  0  0  0  0
   11.8393   -4.0850   -4.3163 H   0  0  0  0  0  0  0  0  0  0  0  0
   11.4671   -3.1124   -2.8651 H   0  0  0  0  0  0  0  0  0  0  0  0
   12.9758   -2.1060   -5.3298 H   0  0  0  0  0  0  0  0  0  0  0  0
   13.7129   -2.5354   -3.7769 H   0  0  0  0  0  0  0  0  0  0  0  0
   12.6106   -1.1532   -3.8901 H   0  0  0  0  0  0  0  0  0  0  0  0
   14.2574    7.9779    5.1133 H   0  0  0  0  0  0  0  0  0  0  0  0
   21.2649    6.6917    4.6459 H   0  0  0  0  0  0  0  0  0  0  0  0
   24.1390    7.8257    9.8055 H   0  0  0  0  0  0  0  0  0  0  0  0
   21.5867    7.9201    9.2653 H   0  0  0  0  0  0  0  0  0  0  0  0
   26.6595    7.5303   12.6348 H   0  0  0  0  0  0  0  0  0  0  0  0
   28.4362    7.3161   12.5808 H   0  0  0  0  0  0  0  0  0  0  0  0
   26.3617    5.0928   12.2028 H   0  0  0  0  0  0  0  0  0  0  0  0
   27.3180    5.3515   13.6672 H   0  0  0  0  0  0  0  0  0  0  0  0
   28.1169    4.8772   12.1637 H   0  0  0  0  0  0  0  0  0  0  0  0
   30.7593    6.6259    9.6148 H   0  0  0  0  0  0  0  0  0  0  0  0
   33.2963    6.7057    9.0058 H   0  0  0  0  0  0  0  0  0  0  0  0
   17.4414   10.2173    7.2437 H   0  0  0  0  0  0  0  0  0  0  0  0
   16.1722   11.1354    9.1418 H   0  0  0  0  0  0  0  0  0  0  0  0
   14.2670    9.9312   10.0734 H   0  0  0  0  0  0  0  0  0  0  0  0
   14.8639    6.7996    7.2270 H   0  0  0  0  0  0  0  0  0  0  0  0
   12.1581    8.9216   10.0087 H   0  0  0  0  0  0  0  0  0  0  0  0
   13.2793    8.0791   11.1138 H   0  0  0  0  0  0  0  0  0  0  0  0
   10.9322    6.7803    9.6395 H   0  0  0  0  0  0  0  0  0  0  0  0
   10.9576    7.2094   11.3582 H   0  0  0  0  0  0  0  0  0  0  0  0
   12.0378    5.9509   10.7355 H   0  0  0  0  0  0  0  0  0  0  0  0
   18.0823    4.3954    2.5166 H   0  0  0  0  0  0  0  0  0  0  0  0
   19.3795    3.4862    0.6367 H   0  0  0  0  0  0  0  0  0  0  0  0
   21.3023    4.6917   -0.2598 H   0  0  0  0  0  0  0  0  0  0  0  0
   20.6459    7.8260    2.5673 H   0  0  0  0  0  0  0  0  0  0  0  0
   22.4195    6.5157   -1.2580 H   0  0  0  0  0  0  0  0  0  0  0  0
   23.4233    5.6626   -0.0521 H   0  0  0  0  0  0  0  0  0  0  0  0
   23.6758    8.6214   -0.7909 H   0  0  0  0  0  0  0  0  0  0  0  0
   24.7739    7.3331   -1.3140 H   0  0  0  0  0  0  0  0  0  0  0  0
   24.6656    7.7738    0.3986 H   0  0  0  0  0  0  0  0  0  0  0  0
   33.4281    8.4528    4.5245 H   0  0  0  0  0  0  0  0  0  0  0  0
   40.5224    7.6733    4.7925 H   0  0  0  0  0  0  0  0  0  0  0  0
   43.2510    9.9136   -0.0795 H   0  0  0  0  0  0  0  0  0  0  0  0
   40.7353    9.8911    0.5201 H   0  0  0  0  0  0  0  0  0  0  0  0
   45.5236    7.1184    6.6337 H   0  0  0  0  0  0  0  0  0  0  0  0
   46.9256    6.0684    6.2867 H   0  0  0  0  0  0  0  0  0  0  0  0
   44.0279    5.5344    5.4307 H   0  0  0  0  0  0  0  0  0  0  0  0
   44.8428    4.7386    6.7863 H   0  0  0  0  0  0  0  0  0  0  0  0
   45.3963    4.4537    5.1321 H   0  0  0  0  0  0  0  0  0  0  0  0
   49.5684    6.9242    3.9004 H   0  0  0  0  0  0  0  0  0  0  0  0
   52.1430    6.7659    3.4898 H   0  0  0  0  0  0  0  0  0  0  0  0
   52.8067    7.8556    1.2005 H   0  0  0  0  0  0  0  0  0  0  0  0
   36.1153    8.1475    0.9952 H   0  0  0  0  0  0  0  0  0  0  0  0
   34.7315    9.2534   -0.7122 H   0  0  0  0  0  0  0  0  0  0  0  0
   33.1684   11.0243   -0.1039 H   0  0  0  0  0  0  0  0  0  0  0  0
   34.3736   10.6754    3.9799 H   0  0  0  0  0  0  0  0  0  0  0  0
   31.3123   11.8609    1.0583 H   0  0  0  0  0  0  0  0  0  0  0  0
   32.5560   13.1130    0.7832 H   0  0  0  0  0  0  0  0  0  0  0  0
   30.5610   13.0647    3.1040 H   0  0  0  0  0  0  0  0  0  0  0  0
   30.4647   14.1197    1.6844 H   0  0  0  0  0  0  0  0  0  0  0  0
   31.7933   14.3003    2.8424 H   0  0  0  0  0  0  0  0  0  0  0  0
   37.8690    8.0065    8.3392 H   0  0  0  0  0  0  0  0  0  0  0  0
   39.2473    6.8732   10.0333 H   0  0  0  0  0  0  0  0  0  0  0  0
   40.7721    5.0745    9.4094 H   0  0  0  0  0  0  0  0  0  0  0  0
   39.5467    5.4603    5.3345 H   0  0  0  0  0  0  0  0  0  0  0  0
   41.1971    2.9701    8.5275 H   0  0  0  0  0  0  0  0  0  0  0  0
   42.5803    4.0630    8.2496 H   0  0  0  0  0  0  0  0  0  0  0  0
   41.8108    1.6605    6.5139 H   0  0  0  0  0  0  0  0  0  0  0  0
   43.1786    1.7318    7.6359 H   0  0  0  0  0  0  0  0  0  0  0  0
   43.1554    2.7529    6.1867 H   0  0  0  0  0  0  0  0  0  0  0  0
  1  6  1  0  0  0  0
  2  1  2  0  0  0  0
  2  3  1  0  0  0  0
  3  4  2  0  0  0  0
  4  5  1  0  0  0  0
  4 14  1  0  0  0  0
  5 10  1  0  0  0  0
  6 12  1  0  0  0  0
  6  5  2  0  0  0  0
  7  2  1  0  0  0  0
  8  7  2  0  0  0  0
  8  9  1  0  0  0  0
  9  3  1  0  0  0  0
 10 11  2  0  0  0  0
 10162  1  0  0  0  0
 11 15  1  0  0  0  0
 12 11  1  0  0  0  0
 13 38  1  0  0  0  0
 13  1  1  0  0  0  0
 14 46  1  0  0  0  0
 15 19  2  0  0  0  0
 15 16  1  0  0  0  0
 16 17  1  0  0  0  0
 17 20  1  0  0  0  0
 18163  1  0  0  0  0
 18 17  2  0  0  0  0
 19 18  1  0  0  0  0
 20 21  2  0  0  0  0
 20 25  1  0  0  0  0
 21 22  1  0  0  0  0
 22 37  1  0  0  0  0
 22 23  2  0  0  0  0
 23 29  1  0  0  0  0
 24 23  1  0  0  0  0
 24 26  2  0  0  0  0
 25 24  1  0  0  0  0
 27 30  1  0  0  0  0
 27 26  1  0  0  0  0
 28 25  2  0  0  0  0
 28 27  1  0  0  0  0
 29 35  1  0  0  0  0
 29 32  2  0  0  0  0
 30165  1  0  0  0  0
 31167  1  0  0  0  0
 31168  1  0  0  0  0
 31 30  1  0  0  0  0
 32170  1  0  0  0  0
 32 33  1  0  0  0  0
 33171  1  0  0  0  0
 34 33  2  0  0  0  0
 34 61  1  0  0  0  0
 35 34  1  0  0  0  0
 36 21  1  0  0  0  0
 38172  1  0  0  0  0
 39173  1  0  0  0  0
 39 38  2  0  0  0  0
 40 39  1  0  0  0  0
 41 40  2  0  0  0  0
 41 42  1  0  0  0  0
 42 13  2  0  0  0  0
 43 41  1  0  0  0  0
 44 43  1  0  0  0  0
 44176  1  0  0  0  0
 45178  1  0  0  0  0
 45 44  1  0  0  0  0
 46181  1  0  0  0  0
 46 47  2  0  0  0  0
 47182  1  0  0  0  0
 48 47  1  0  0  0  0
 48183  1  0  0  0  0
 49 48  2  0  0  0  0
 50 14  2  0  0  0  0
 50 49  1  0  0  0  0
 51 49  1  0  0  0  0
 51 52  1  0  0  0  0
 52186  1  0  0  0  0
 53 52  1  0  0  0  0
 53189  1  0  0  0  0
 53188  1  0  0  0  0
 54 59  1  0  0  0  0
 54 66  1  0  0  0  0
 55 54  2  0  0  0  0
 56 57  2  0  0  0  0
 56 55  1  0  0  0  0
 57 58  1  0  0  0  0
 58 63  1  0  0  0  0
 58 59  2  0  0  0  0
 59 65  1  0  0  0  0
 60 55  1  0  0  0  0
 60190  1  0  0  0  0
 61 60  2  0  0  0  0
 62 61  1  0  0  0  0
 62 56  1  0  0  0  0
 63 64  2  0  0  0  0
 64 68  1  0  0  0  0
 64 65  1  0  0  0  0
 66 95  2  0  0  0  0
 66 91  1  0  0  0  0
 67 57  1  0  0  0  0
 68 72  2  0  0  0  0
 69 68  1  0  0  0  0
 69 70  1  0  0  0  0
 70 71  2  0  0  0  0
 71192  1  0  0  0  0
 72 71  1  0  0  0  0
 72193  1  0  0  0  0
 73 70  1  0  0  0  0
 73 78  1  0  0  0  0
 74 73  2  0  0  0  0
 75 74  1  0  0  0  0
 75 76  2  0  0  0  0
 76 77  1  0  0  0  0
 77 78  1  0  0  0  0
 77 79  2  0  0  0  0
 78 81  2  0  0  0  0
 79 80  1  0  0  0  0
 80 83  1  0  0  0  0
 81 80  1  0  0  0  0
 82 76  1  0  0  0  0
 82 85  2  0  0  0  0
 83195  1  0  0  0  0
 83 84  1  0  0  0  0
 83194  1  0  0  0  0
 84197  1  0  0  0  0
 85199  1  0  0  0  0
 86 85  1  0  0  0  0
 86200  1  0  0  0  0
 87 86  2  0  0  0  0
 88 87  1  0  0  0  0
 88 82  1  0  0  0  0
 89 74  1  0  0  0  0
 90 75  1  0  0  0  0
 91 92  2  0  0  0  0
 92202  1  0  0  0  0
 92 93  1  0  0  0  0
 93203  1  0  0  0  0
 94 96  1  0  0  0  0
 94 93  2  0  0  0  0
 95 94  1  0  0  0  0
 96 97  1  0  0  0  0
 97 98  1  0  0  0  0
 97206  1  0  0  0  0
 98209  1  0  0  0  0
 98208  1  0  0  0  0
 99210  1  0  0  0  0
 99 67  2  0  0  0  0
100 99  1  0  0  0  0
101100  2  0  0  0  0
101102  1  0  0  0  0
102103  2  0  0  0  0
103213  1  0  0  0  0
103 67  1  0  0  0  0
104102  1  0  0  0  0
105215  1  0  0  0  0
105104  1  0  0  0  0
106105  1  0  0  0  0
106218  1  0  0  0  0
107108  1  0  0  0  0
108113  1  0  0  0  0
108109  2  0  0  0  0
109115  1  0  0  0  0
110109  1  0  0  0  0
110120  1  0  0  0  0
111110  2  0  0  0  0
112107  2  0  0  0  0
112111  1  0  0  0  0
113114  2  0  0  0  0
114 87  1  0  0  0  0
114115  1  0  0  0  0
116111  1  0  0  0  0
116220  1  0  0  0  0
117116  2  0  0  0  0
118117  1  0  0  0  0
118112  1  0  0  0  0
119148  1  0  0  0  0
119107  1  0  0  0  0
120152  1  0  0  0  0
121117  1  0  0  0  0
121122  1  0  0  0  0
123126  1  0  0  0  0
123122  1  0  0  0  0
124125  1  0  0  0  0
124123  2  0  0  0  0
125121  2  0  0  0  0
126131  1  0  0  0  0
127128  1  0  0  0  0
127126  2  0  0  0  0
128129  2  0  0  0  0
129135  1  0  0  0  0
129130  1  0  0  0  0
130132  2  0  0  0  0
131130  1  0  0  0  0
131134  2  0  0  0  0
132133  1  0  0  0  0
133136  1  0  0  0  0
134133  1  0  0  0  0
135138  2  0  0  0  0
136224  1  0  0  0  0
136223  1  0  0  0  0
137136  1  0  0  0  0
137226  1  0  0  0  0
138228  1  0  0  0  0
139138  1  0  0  0  0
139229  1  0  0  0  0
140139  2  0  0  0  0
141140  1  0  0  0  0
141135  1  0  0  0  0
142127  1  0  0  0  0
143128  1  0  0  0  0
144119  2  0  0  0  0
145146  2  0  0  0  0
145144  1  0  0  0  0
146147  1  0  0  0  0
147149  1  0  0  0  0
147148  2  0  0  0  0
148234  1  0  0  0  0
150151  1  0  0  0  0
150149  1  0  0  0  0
151239  1  0  0  0  0
151237  1  0  0  0  0
152240  1  0  0  0  0
152153  2  0  0  0  0
153241  1  0  0  0  0
154153  1  0  0  0  0
154242  1  0  0  0  0
155154  2  0  0  0  0
156120  2  0  0  0  0
156155  1  0  0  0  0
157155  1  0  0  0  0
157158  1  0  0  0  0
158245  1  0  0  0  0
158244  1  0  0  0  0
159247  1  0  0  0  0
159158  1  0  0  0  0
160  7  1  0  0  0  0
161  8  1  0  0  0  0
164 19  1  0  0  0  0
166 30  1  0  0  0  0
169 31  1  0  0  0  0
174 40  1  0  0  0  0
175 42  1  0  0  0  0
177 44  1  0  0  0  0
179 45  1  0  0  0  0
180 45  1  0  0  0  0
184 50  1  0  0  0  0
185 52  1  0  0  0  0
187 53  1  0  0  0  0
191 63  1  0  0  0  0
196 84  1  0  0  0  0
198 84  1  0  0  0  0
201 91  1  0  0  0  0
204 95  1  0  0  0  0
205 97  1  0  0  0  0
207 98  1  0  0  0  0
211100  1  0  0  0  0
212101  1  0  0  0  0
214105  1  0  0  0  0
216106  1  0  0  0  0
217106  1  0  0  0  0
219113  1  0  0  0  0
221124  1  0  0  0  0
222125  1  0  0  0  0
225137  1  0  0  0  0
227137  1  0  0  0  0
230140  1  0  0  0  0
231144  1  0  0  0  0
232145  1  0  0  0  0
233146  1  0  0  0  0
235150  1  0  0  0  0
236150  1  0  0  0  0
238151  1  0  0  0  0
243156  1  0  0  0  0
246159  1  0  0  0  0
248159  1  0  0  0  0
M  END
