SCF done       -487.127209946618          0.000836266558
 OpenBabel12282109573D

272304  0  0  0  0  0  0  0  0999 V2000
   -0.3505    5.2153   -0.0765 C   0  0  0  0  0  0  0  0  0  0  0  0
   -0.7420    4.0884   -0.8221 C   0  0  0  0  0  0  0  0  0  0  0  0
    0.1198    2.9734   -0.9395 C   0  0  0  0  0  0  0  0  0  0  0  0
    1.3795    2.9141   -0.3493 C   0  0  0  0  0  0  0  0  0  0  0  0
    1.7878    4.0627    0.3571 C   0  0  0  0  0  0  0  0  0  0  0  0
    0.9235    5.1785    0.4770 C   0  0  0  0  0  0  0  0  0  0  0  0
   -1.9611    3.8878   -1.5349 C   0  0  0  0  0  0  0  0  0  0  0  0
   -2.0311    2.6798   -2.1289 C   0  0  0  0  0  0  0  0  0  0  0  0
   -0.6247    1.7049   -1.8777 S   0  0  0  0  0  0  0  0  0  0  0  0
    3.0247    4.2904    1.0038 C   0  0  0  0  0  0  0  0  0  0  0  0
    3.1076    5.4983    1.6319 C   0  0  0  0  0  0  0  0  0  0  0  0
    1.6486    6.4459    1.4327 S   0  0  0  0  0  0  0  0  0  0  0  0
   -1.2451    6.3409    0.1144 C   0  0  0  0  0  0  0  0  0  0  0  0
    2.2164    1.7364   -0.4474 C   0  0  0  0  0  0  0  0  0  0  0  0
   -2.5721    6.3195    0.4365 C   0  0  0  0  0  0  0  0  0  0  0  0
   -3.1368    7.6054    0.5574 C   0  0  0  0  0  0  0  0  0  0  0  0
   -2.2510    8.6098    0.3177 C   0  0  0  0  0  0  0  0  0  0  0  0
   -0.6792    7.9787   -0.0501 S   0  0  0  0  0  0  0  0  0  0  0  0
    2.3992    0.9099   -1.5216 C   0  0  0  0  0  0  0  0  0  0  0  0
    3.2933   -0.1480   -1.2665 C   0  0  0  0  0  0  0  0  0  0  0  0
    3.7826   -0.1520    0.0042 C   0  0  0  0  0  0  0  0  0  0  0  0
    3.1418    1.1696    0.9173 S   0  0  0  0  0  0  0  0  0  0  0  0
   -2.4731   10.0816    0.3814 C   0  0  0  0  0  0  0  0  0  0  0  0
   -1.8040   10.6877    1.6167 C   0  0  0  0  0  0  0  0  0  0  0  0
    4.7880   -1.0632    0.6186 C   0  0  0  0  0  0  0  0  0  0  0  0
    6.1509   -0.3754    0.7406 C   0  0  0  0  0  0  0  0  0  0  0  0
    4.2199    5.9739    2.3804 C   0  0  0  0  0  0  0  0  0  0  0  0
    4.3731    7.1838    3.0280 C   0  0  0  0  0  0  0  0  0  0  0  0
    5.5969    7.2992    3.6793 C   0  0  0  0  0  0  0  0  0  0  0  0
    6.3956    6.1786    3.5402 C   0  0  0  0  0  0  0  0  0  0  0  0
    5.6115    4.9570    2.5800 S   0  0  0  0  0  0  0  0  0  0  0  0
   11.0274    6.6051    6.0294 C   0  0  0  0  0  0  0  0  0  0  0  0
   12.4670    5.6194    6.2135 S   0  0  0  0  0  0  0  0  0  0  0  0
   13.2431    6.8086    7.2452 C   0  0  0  0  0  0  0  0  0  0  0  0
   12.4082    7.8951    7.4242 C   0  0  0  0  0  0  0  0  0  0  0  0
   11.1796    7.7751    6.7363 C   0  0  0  0  0  0  0  0  0  0  0  0
   14.5417    6.5813    7.7631 C   0  0  0  0  0  0  0  0  0  0  0  0
   15.2426    7.3660    8.6601 C   0  0  0  0  0  0  0  0  0  0  0  0
   16.5010    6.8576    8.9625 C   0  0  0  0  0  0  0  0  0  0  0  0
   15.4732    5.1880    7.2891 S   0  0  0  0  0  0  0  0  0  0  0  0
   16.7939    5.6805    8.2986 C   0  0  0  0  0  0  0  0  0  0  0  0
   12.4015    9.1843    8.1247 C   0  0  0  0  0  0  0  0  0  0  0  0
   11.1710    9.7605    7.8106 N   0  0  0  0  0  0  0  0  0  0  0  0
   10.3843    8.9797    6.9793 C   0  0  0  0  0  0  0  0  0  0  0  0
   13.2234    9.7042    8.8424 O   0  0  0  0  0  0  0  0  0  0  0  0
    9.2821    9.2791    6.5781 O   0  0  0  0  0  0  0  0  0  0  0  0
   10.7749   11.0725    8.2741 C   0  0  0  0  0  0  0  0  0  0  0  0
   11.2087   12.1578    7.2948 C   0  0  0  0  0  0  0  0  0  0  0  0
    9.9176    6.1787    5.2624 C   0  0  0  0  0  0  0  0  0  0  0  0
    8.4922    7.1842    5.0456 S   0  0  0  0  0  0  0  0  0  0  0  0
    7.6882    5.9646    4.0707 C   0  0  0  0  0  0  0  0  0  0  0  0
    8.5017    4.8585    3.9433 C   0  0  0  0  0  0  0  0  0  0  0  0
    9.7429    4.9846    4.6031 C   0  0  0  0  0  0  0  0  0  0  0  0
    8.4488    3.5362    3.3203 C   0  0  0  0  0  0  0  0  0  0  0  0
    9.6691    2.9402    3.6405 N   0  0  0  0  0  0  0  0  0  0  0  0
   10.5031    3.7487    4.3994 C   0  0  0  0  0  0  0  0  0  0  0  0
    7.5774    3.0034    2.6731 O   0  0  0  0  0  0  0  0  0  0  0  0
   11.6069    3.4430    4.7892 O   0  0  0  0  0  0  0  0  0  0  0  0
   10.0361    1.6143    3.1929 C   0  0  0  0  0  0  0  0  0  0  0  0
   10.5286    1.6328    1.7502 C   0  0  0  0  0  0  0  0  0  0  0  0
   21.3788    4.2228    9.6707 C   0  0  0  0  0  0  0  0  0  0  0  0
   20.1480    4.2629    8.9848 C   0  0  0  0  0  0  0  0  0  0  0  0
   19.8824    3.3428    7.9401 C   0  0  0  0  0  0  0  0  0  0  0  0
   20.7900    2.3752    7.5210 C   0  0  0  0  0  0  0  0  0  0  0  0
   22.0439    2.3742    8.1672 C   0  0  0  0  0  0  0  0  0  0  0  0
   22.3030    3.2856    9.2213 C   0  0  0  0  0  0  0  0  0  0  0  0
   19.0726    5.1596    9.1847 C   0  0  0  0  0  0  0  0  0  0  0  0
   18.0035    4.9310    8.3648 C   0  0  0  0  0  0  0  0  0  0  0  0
   18.2818    3.5775    7.2904 S   0  0  0  0  0  0  0  0  0  0  0  0
   23.1681    1.5604    7.8890 C   0  0  0  0  0  0  0  0  0  0  0  0
   24.2368    1.7986    8.7071 C   0  0  0  0  0  0  0  0  0  0  0  0
   23.9004    3.0556    9.8765 S   0  0  0  0  0  0  0  0  0  0  0  0
   21.6769    5.0891   10.7926 C   0  0  0  0  0  0  0  0  0  0  0  0
   20.4416    1.4193    6.4901 C   0  0  0  0  0  0  0  0  0  0  0  0
   22.8626    5.6961   11.1002 C   0  0  0  0  0  0  0  0  0  0  0  0
   22.8196    6.4324   12.3000 C   0  0  0  0  0  0  0  0  0  0  0  0
   21.6136    6.3797   12.9279 C   0  0  0  0  0  0  0  0  0  0  0  0
   20.4882    5.4212   12.0245 S   0  0  0  0  0  0  0  0  0  0  0  0
   19.7048    1.6277    5.3575 C   0  0  0  0  0  0  0  0  0  0  0  0
   19.5062    0.4600    4.5956 C   0  0  0  0  0  0  0  0  0  0  0  0
   20.0709   -0.6500    5.1441 C   0  0  0  0  0  0  0  0  0  0  0  0
   20.8834   -0.2623    6.6243 S   0  0  0  0  0  0  0  0  0  0  0  0
   21.1909    7.0496   14.1895 C   0  0  0  0  0  0  0  0  0  0  0  0
   20.2275    8.2051   13.9106 C   0  0  0  0  0  0  0  0  0  0  0  0
   20.0937   -2.0415    4.6128 C   0  0  0  0  0  0  0  0  0  0  0  0
   21.4795   -2.4114    4.0792 C   0  0  0  0  0  0  0  0  0  0  0  0
   25.5282    1.1975    8.6626 C   0  0  0  0  0  0  0  0  0  0  0  0
   26.0152    0.3134    7.7163 C   0  0  0  0  0  0  0  0  0  0  0  0
   27.3425   -0.0354    7.9327 C   0  0  0  0  0  0  0  0  0  0  0  0
   27.8890    0.5664    9.0523 C   0  0  0  0  0  0  0  0  0  0  0  0
   26.7256    1.5802    9.8561 S   0  0  0  0  0  0  0  0  0  0  0  0
   33.0292   -0.4779    9.6240 C   0  0  0  0  0  0  0  0  0  0  0  0
   34.2705   -0.0804   10.7969 S   0  0  0  0  0  0  0  0  0  0  0  0
   35.5264   -0.8518    9.8441 C   0  0  0  0  0  0  0  0  0  0  0  0
   34.9842   -1.3852    8.6920 C   0  0  0  0  0  0  0  0  0  0  0  0
   33.5911   -1.1750    8.5801 C   0  0  0  0  0  0  0  0  0  0  0  0
   36.8676   -0.8368   10.2985 C   0  0  0  0  0  0  0  0  0  0  0  0
   37.9991   -1.3164    9.6669 C   0  0  0  0  0  0  0  0  0  0  0  0
   39.1640   -1.1024   10.4006 C   0  0  0  0  0  0  0  0  0  0  0  0
   37.2606   -0.1186   11.8358 S   0  0  0  0  0  0  0  0  0  0  0  0
   38.9458   -0.4646   11.6049 C   0  0  0  0  0  0  0  0  0  0  0  0
   35.4218   -2.1210    7.5008 C   0  0  0  0  0  0  0  0  0  0  0  0
   34.2629   -2.3085    6.7466 N   0  0  0  0  0  0  0  0  0  0  0  0
   33.1246   -1.7725    7.3279 C   0  0  0  0  0  0  0  0  0  0  0  0
   36.5169   -2.5044    7.1636 O   0  0  0  0  0  0  0  0  0  0  0  0
   32.0119   -1.8117    6.8528 O   0  0  0  0  0  0  0  0  0  0  0  0
   34.2472   -3.0296    5.4925 C   0  0  0  0  0  0  0  0  0  0  0  0
   33.9930   -4.5167    5.7133 C   0  0  0  0  0  0  0  0  0  0  0  0
   31.6866   -0.0653    9.7936 C   0  0  0  0  0  0  0  0  0  0  0  0
   30.4350   -0.4363    8.6182 S   0  0  0  0  0  0  0  0  0  0  0  0
   29.2165    0.4485    9.5254 C   0  0  0  0  0  0  0  0  0  0  0  0
   29.7798    0.9769   10.6665 C   0  0  0  0  0  0  0  0  0  0  0  0
   31.1519    0.6840   10.8155 C   0  0  0  0  0  0  0  0  0  0  0  0
   29.3586    1.7876   11.8091 C   0  0  0  0  0  0  0  0  0  0  0  0
   30.5082    1.9315   12.5883 N   0  0  0  0  0  0  0  0  0  0  0  0
   31.6230    1.2987   12.0594 C   0  0  0  0  0  0  0  0  0  0  0  0
   28.2834    2.2691   12.0766 O   0  0  0  0  0  0  0  0  0  0  0  0
   32.7253    1.2942   12.5590 O   0  0  0  0  0  0  0  0  0  0  0  0
   30.5290    2.6473   13.8455 C   0  0  0  0  0  0  0  0  0  0  0  0
   30.4702    1.6879   15.0291 C   0  0  0  0  0  0  0  0  0  0  0  0
   40.8079    1.2399   15.9155 C   0  0  0  0  0  0  0  0  0  0  0  0
   40.7567    0.7152   14.6078 C   0  0  0  0  0  0  0  0  0  0  0  0
   41.9511    0.3819   13.9220 C   0  0  0  0  0  0  0  0  0  0  0  0
   43.2194    0.5575   14.4636 C   0  0  0  0  0  0  0  0  0  0  0  0
   43.2735    1.1173   15.7572 C   0  0  0  0  0  0  0  0  0  0  0  0
   42.0779    1.4382   16.4479 C   0  0  0  0  0  0  0  0  0  0  0  0
   39.6117    0.4577   13.8195 C   0  0  0  0  0  0  0  0  0  0  0  0
   39.8893   -0.0943   12.6024 C   0  0  0  0  0  0  0  0  0  0  0  0
   41.6099   -0.3034   12.3531 S   0  0  0  0  0  0  0  0  0  0  0  0
   44.4220    1.4351   16.5197 C   0  0  0  0  0  0  0  0  0  0  0  0
   44.1399    1.9408   17.7579 C   0  0  0  0  0  0  0  0  0  0  0  0
   42.4176    2.0659   18.0375 S   0  0  0  0  0  0  0  0  0  0  0  0
   39.6138    1.5417   16.6771 C   0  0  0  0  0  0  0  0  0  0  0  0
   44.4056    0.1680   13.7283 C   0  0  0  0  0  0  0  0  0  0  0  0
   39.3975    2.5877   17.5314 C   0  0  0  0  0  0  0  0  0  0  0  0
   38.1226    2.5675   18.1290 C   0  0  0  0  0  0  0  0  0  0  0  0
   37.3637    1.5004   17.7569 C   0  0  0  0  0  0  0  0  0  0  0  0
   38.2189    0.4960   16.6363 S   0  0  0  0  0  0  0  0  0  0  0  0
   44.6517    0.3170   12.3920 C   0  0  0  0  0  0  0  0  0  0  0  0
   45.8950   -0.2087   11.9895 C   0  0  0  0  0  0  0  0  0  0  0  0
   46.5985   -0.7786   13.0052 C   0  0  0  0  0  0  0  0  0  0  0  0
   45.7315   -0.6586   14.5006 S   0  0  0  0  0  0  0  0  0  0  0  0
   35.9642    1.1689   18.1444 C   0  0  0  0  0  0  0  0  0  0  0  0
   34.9917    1.4361   16.9927 C   0  0  0  0  0  0  0  0  0  0  0  0
   47.9515   -1.4007   12.9664 C   0  0  0  0  0  0  0  0  0  0  0  0
   48.9904   -0.5142   13.6564 C   0  0  0  0  0  0  0  0  0  0  0  0
   45.0650    2.3599   18.7578 C   0  0  0  0  0  0  0  0  0  0  0  0
   46.4437    2.4179   18.6525 C   0  0  0  0  0  0  0  0  0  0  0  0
   47.0570    2.8812   19.8093 C   0  0  0  0  0  0  0  0  0  0  0  0
   46.1604    3.1785   20.8203 C   0  0  0  0  0  0  0  0  0  0  0  0
   44.5209    2.8784   20.3198 S   0  0  0  0  0  0  0  0  0  0  0  0
   48.5589    4.9585   25.1716 C   0  0  0  0  0  0  0  0  0  0  0  0
   48.0640    5.4379   26.7844 S   0  0  0  0  0  0  0  0  0  0  0  0
   49.7093    5.8128   27.2623 C   0  0  0  0  0  0  0  0  0  0  0  0
   50.5719    5.5735   26.2127 C   0  0  0  0  0  0  0  0  0  0  0  0
   49.9216    5.0955   25.0513 C   0  0  0  0  0  0  0  0  0  0  0  0
   49.9911    6.2876   28.5718 C   0  0  0  0  0  0  0  0  0  0  0  0
   51.2138    6.6299   29.1054 C   0  0  0  0  0  0  0  0  0  0  0  0
   51.1227    7.0574   30.4379 C   0  0  0  0  0  0  0  0  0  0  0  0
   48.7167    6.5027   29.7419 S   0  0  0  0  0  0  0  0  0  0  0  0
   49.8443    7.0428   30.9116 C   0  0  0  0  0  0  0  0  0  0  0  0
   52.0058    5.6689   25.9111 C   0  0  0  0  0  0  0  0  0  0  0  0
   52.1259    5.2466   24.5878 N   0  0  0  0  0  0  0  0  0  0  0  0
   50.9226    4.8794   24.0059 C   0  0  0  0  0  0  0  0  0  0  0  0
   52.9379    6.0299   26.5896 O   0  0  0  0  0  0  0  0  0  0  0  0
   50.7887    4.4811   22.8708 O   0  0  0  0  0  0  0  0  0  0  0  0
   53.3968    5.1607   23.9017 C   0  0  0  0  0  0  0  0  0  0  0  0
   54.0194    3.7781   24.0616 C   0  0  0  0  0  0  0  0  0  0  0  0
   47.6273    4.5150   24.2025 C   0  0  0  0  0  0  0  0  0  0  0  0
   48.1187    4.0194   22.5898 S   0  0  0  0  0  0  0  0  0  0  0  0
   46.4646    3.6632   22.1134 C   0  0  0  0  0  0  0  0  0  0  0  0
   45.6123    3.9301   23.1625 C   0  0  0  0  0  0  0  0  0  0  0  0
   46.2626    4.3999   24.3230 C   0  0  0  0  0  0  0  0  0  0  0  0
   44.1775    3.8606   23.4384 C   0  0  0  0  0  0  0  0  0  0  0  0
   44.0460    4.2958   24.7585 N   0  0  0  0  0  0  0  0  0  0  0  0
   45.2504    4.6323   25.3575 C   0  0  0  0  0  0  0  0  0  0  0  0
   43.2579    3.5229   22.7316 O   0  0  0  0  0  0  0  0  0  0  0  0
   45.3799    5.0326   26.4920 O   0  0  0  0  0  0  0  0  0  0  0  0
   42.7769    4.3379   25.4519 C   0  0  0  0  0  0  0  0  0  0  0  0
   42.4973    3.0221   26.1699 C   0  0  0  0  0  0  0  0  0  0  0  0
   -2.7322    4.6326   -1.6063 H   0  0  0  0  0  0  0  0  0  0  0  0
   -2.8295    2.2822   -2.7244 H   0  0  0  0  0  0  0  0  0  0  0  0
    3.8461    3.5978    1.0048 H   0  0  0  0  0  0  0  0  0  0  0  0
   -3.1169    5.4108    0.6224 H   0  0  0  0  0  0  0  0  0  0  0  0
   -4.1678    7.7769    0.8127 H   0  0  0  0  0  0  0  0  0  0  0  0
    1.9406    1.0769   -2.4794 H   0  0  0  0  0  0  0  0  0  0  0  0
    3.5649   -0.8824   -2.0043 H   0  0  0  0  0  0  0  0  0  0  0  0
   -3.5477   10.2746    0.4110 H   0  0  0  0  0  0  0  0  0  0  0  0
   -2.0642   10.5548   -0.5148 H   0  0  0  0  0  0  0  0  0  0  0  0
   -2.2053   10.2387    2.5225 H   0  0  0  0  0  0  0  0  0  0  0  0
   -1.9780   11.7602    1.6526 H   0  0  0  0  0  0  0  0  0  0  0  0
   -0.7317   10.5082    1.5886 H   0  0  0  0  0  0  0  0  0  0  0  0
    4.8799   -1.9575   -0.0019 H   0  0  0  0  0  0  0  0  0  0  0  0
    4.4507   -1.3676    1.6124 H   0  0  0  0  0  0  0  0  0  0  0  0
    6.5115   -0.0766   -0.2411 H   0  0  0  0  0  0  0  0  0  0  0  0
    6.8748   -1.0547    1.1843 H   0  0  0  0  0  0  0  0  0  0  0  0
    6.0785    0.5124    1.3651 H   0  0  0  0  0  0  0  0  0  0  0  0
    3.6142    7.9459    3.0195 H   0  0  0  0  0  0  0  0  0  0  0  0
    5.9111    8.1615    4.2406 H   0  0  0  0  0  0  0  0  0  0  0  0
   14.8414    8.2766    9.0671 H   0  0  0  0  0  0  0  0  0  0  0  0
   17.1880    7.3345    9.6368 H   0  0  0  0  0  0  0  0  0  0  0  0
   11.2440   11.2295    9.2484 H   0  0  0  0  0  0  0  0  0  0  0  0
    9.6874   11.0673    8.3798 H   0  0  0  0  0  0  0  0  0  0  0  0
   12.2905   12.1506    7.1820 H   0  0  0  0  0  0  0  0  0  0  0  0
   10.9016   13.1320    7.6647 H   0  0  0  0  0  0  0  0  0  0  0  0
   10.7496   11.9908    6.3230 H   0  0  0  0  0  0  0  0  0  0  0  0
    9.1519    0.9771    3.2796 H   0  0  0  0  0  0  0  0  0  0  0  0
   10.8205    1.2563    3.8637 H   0  0  0  0  0  0  0  0  0  0  0  0
    9.7438    2.0009    1.0937 H   0  0  0  0  0  0  0  0  0  0  0  0
   10.8007    0.6274    1.4413 H   0  0  0  0  0  0  0  0  0  0  0  0
   11.4006    2.2763    1.6577 H   0  0  0  0  0  0  0  0  0  0  0  0
   19.0924    5.9555    9.9046 H   0  0  0  0  0  0  0  0  0  0  0  0
   23.1919    0.8323    7.1006 H   0  0  0  0  0  0  0  0  0  0  0  0
   23.7314    5.6495   10.4693 H   0  0  0  0  0  0  0  0  0  0  0  0
   23.6614    6.9786   12.6872 H   0  0  0  0  0  0  0  0  0  0  0  0
   19.3445    2.5946    5.0565 H   0  0  0  0  0  0  0  0  0  0  0  0
   18.9558    0.4449    3.6716 H   0  0  0  0  0  0  0  0  0  0  0  0
   22.0799    7.4256   14.7001 H   0  0  0  0  0  0  0  0  0  0  0  0
   20.6999    6.3256   14.8448 H   0  0  0  0  0  0  0  0  0  0  0  0
   20.6980    8.9425   13.2639 H   0  0  0  0  0  0  0  0  0  0  0  0
   19.9407    8.6900   14.8402 H   0  0  0  0  0  0  0  0  0  0  0  0
   19.3296    7.8363   13.4197 H   0  0  0  0  0  0  0  0  0  0  0  0
   19.3575   -2.1212    3.8103 H   0  0  0  0  0  0  0  0  0  0  0  0
   19.8158   -2.7426    5.4040 H   0  0  0  0  0  0  0  0  0  0  0  0
   21.7764   -1.7266    3.2875 H   0  0  0  0  0  0  0  0  0  0  0  0
   21.4728   -3.4228    3.6805 H   0  0  0  0  0  0  0  0  0  0  0  0
   22.2158   -2.3576    4.8783 H   0  0  0  0  0  0  0  0  0  0  0  0
   25.4273   -0.0510    6.8941 H   0  0  0  0  0  0  0  0  0  0  0  0
   27.9093   -0.7002    7.3047 H   0  0  0  0  0  0  0  0  0  0  0  0
   37.9622   -1.8002    8.7073 H   0  0  0  0  0  0  0  0  0  0  0  0
   40.1456   -1.4008   10.0778 H   0  0  0  0  0  0  0  0  0  0  0  0
   35.2183   -2.8759    5.0157 H   0  0  0  0  0  0  0  0  0  0  0  0
   33.4561   -2.5957    4.8761 H   0  0  0  0  0  0  0  0  0  0  0  0
   34.7760   -4.9423    6.3367 H   0  0  0  0  0  0  0  0  0  0  0  0
   33.9852   -5.0348    4.7586 H   0  0  0  0  0  0  0  0  0  0  0  0
   33.0320   -4.6647    6.2007 H   0  0  0  0  0  0  0  0  0  0  0  0
   29.6635    3.3139   13.8452 H   0  0  0  0  0  0  0  0  0  0  0  0
   31.4510    3.2337   13.8831 H   0  0  0  0  0  0  0  0  0  0  0  0
   29.5602    1.0933   14.9883 H   0  0  0  0  0  0  0  0  0  0  0  0
   30.4798    2.2499   15.9586 H   0  0  0  0  0  0  0  0  0  0  0  0
   31.3305    1.0229   15.0121 H   0  0  0  0  0  0  0  0  0  0  0  0
   38.6053    0.6766   14.1257 H   0  0  0  0  0  0  0  0  0  0  0  0
   45.4254    1.2988   16.1635 H   0  0  0  0  0  0  0  0  0  0  0  0
   40.1129    3.3724   17.6982 H   0  0  0  0  0  0  0  0  0  0  0  0
   37.7822    3.3205   18.8175 H   0  0  0  0  0  0  0  0  0  0  0  0
   43.9801    0.8221   11.7218 H   0  0  0  0  0  0  0  0  0  0  0  0
   46.2531   -0.1680   10.9761 H   0  0  0  0  0  0  0  0  0  0  0  0
   35.6868    1.7755   19.0092 H   0  0  0  0  0  0  0  0  0  0  0  0
   35.9002    0.1157   18.4295 H   0  0  0  0  0  0  0  0  0  0  0  0
   35.0290    2.4829   16.7000 H   0  0  0  0  0  0  0  0  0  0  0  0
   33.9757    1.1953   17.2952 H   0  0  0  0  0  0  0  0  0  0  0  0
   35.2499    0.8279   16.1288 H   0  0  0  0  0  0  0  0  0  0  0  0
   48.2349   -1.5571   11.9235 H   0  0  0  0  0  0  0  0  0  0  0  0
   47.9250   -2.3734   13.4640 H   0  0  0  0  0  0  0  0  0  0  0  0
   49.0390    0.4589   13.1726 H   0  0  0  0  0  0  0  0  0  0  0  0
   49.9730   -0.9765   13.6080 H   0  0  0  0  0  0  0  0  0  0  0  0
   48.7257   -0.3688   14.7014 H   0  0  0  0  0  0  0  0  0  0  0  0
   46.9783    2.1381   17.7635 H   0  0  0  0  0  0  0  0  0  0  0  0
   48.1191    3.0034   19.9305 H   0  0  0  0  0  0  0  0  0  0  0  0
   52.1300    6.5690   28.5469 H   0  0  0  0  0  0  0  0  0  0  0  0
   51.9693    7.3655   31.0244 H   0  0  0  0  0  0  0  0  0  0  0  0
   49.4977    7.3192   31.8879 H   0  0  0  0  0  0  0  0  0  0  0  0
   54.0495    5.9247   24.3307 H   0  0  0  0  0  0  0  0  0  0  0  0
   53.2147    5.3758   22.8460 H   0  0  0  0  0  0  0  0  0  0  0  0
   54.1879    3.5620   25.1141 H   0  0  0  0  0  0  0  0  0  0  0  0
   54.9714    3.7404   23.5398 H   0  0  0  0  0  0  0  0  0  0  0  0
   53.3604    3.0200   23.6448 H   0  0  0  0  0  0  0  0  0  0  0  0
   42.0049    4.5358   24.7045 H   0  0  0  0  0  0  0  0  0  0  0  0
   42.8223    5.1608   26.1693 H   0  0  0  0  0  0  0  0  0  0  0  0
   42.4615    2.2046   25.4534 H   0  0  0  0  0  0  0  0  0  0  0  0
   41.5424    3.0786   26.6847 H   0  0  0  0  0  0  0  0  0  0  0  0
   43.2778    2.8206   26.9001 H   0  0  0  0  0  0  0  0  0  0  0  0
  1 13  1  0  0  0  0
  1  6  2  0  0  0  0
  2  1  1  0  0  0  0
  3  2  2  0  0  0  0
  3  4  1  0  0  0  0
  4  5  2  0  0  0  0
  5  6  1  0  0  0  0
  5 10  1  0  0  0  0
  6 12  1  0  0  0  0
  7  2  1  0  0  0  0
  8  9  1  0  0  0  0
  8  7  2  0  0  0  0
  9  3  1  0  0  0  0
 10183  1  0  0  0  0
 10 11  2  0  0  0  0
 11 27  1  0  0  0  0
 12 11  1  0  0  0  0
 13 15  2  0  0  0  0
 14  4  1  0  0  0  0
 14 22  1  0  0  0  0
 15 16  1  0  0  0  0
 15184  1  0  0  0  0
 16185  1  0  0  0  0
 17 23  1  0  0  0  0
 17 16  2  0  0  0  0
 18 13  1  0  0  0  0
 18 17  1  0  0  0  0
 19 20  1  0  0  0  0
 19 14  2  0  0  0  0
 20 21  2  0  0  0  0
 21 25  1  0  0  0  0
 21 22  1  0  0  0  0
 23188  1  0  0  0  0
 23 24  1  0  0  0  0
 24191  1  0  0  0  0
 24190  1  0  0  0  0
 25 26  1  0  0  0  0
 25194  1  0  0  0  0
 26196  1  0  0  0  0
 26197  1  0  0  0  0
 27 31  1  0  0  0  0
 27 28  2  0  0  0  0
 28 29  1  0  0  0  0
 29199  1  0  0  0  0
 30 29  2  0  0  0  0
 30 51  1  0  0  0  0
 31 30  1  0  0  0  0
 32 33  1  0  0  0  0
 32 36  2  0  0  0  0
 33 34  1  0  0  0  0
 34 35  2  0  0  0  0
 34 37  1  0  0  0  0
 35 42  1  0  0  0  0
 36 44  1  0  0  0  0
 36 35  1  0  0  0  0
 37 38  2  0  0  0  0
 38 39  1  0  0  0  0
 38200  1  0  0  0  0
 39201  1  0  0  0  0
 40 37  1  0  0  0  0
 40 41  1  0  0  0  0
 41 68  1  0  0  0  0
 41 39  2  0  0  0  0
 42 45  2  0  0  0  0
 43 42  1  0  0  0  0
 43 47  1  0  0  0  0
 44 43  1  0  0  0  0
 46 44  2  0  0  0  0
 47203  1  0  0  0  0
 47202  1  0  0  0  0
 48205  1  0  0  0  0
 48 47  1  0  0  0  0
 49 32  1  0  0  0  0
 50 49  1  0  0  0  0
 51 50  1  0  0  0  0
 52 51  2  0  0  0  0
 52 53  1  0  0  0  0
 53 49  2  0  0  0  0
 54 55  1  0  0  0  0
 54 52  1  0  0  0  0
 55 56  1  0  0  0  0
 56 53  1  0  0  0  0
 56 58  2  0  0  0  0
 57 54  2  0  0  0  0
 59207  1  0  0  0  0
 59 55  1  0  0  0  0
 59208  1  0  0  0  0
 60 59  1  0  0  0  0
 61 73  1  0  0  0  0
 62 67  1  0  0  0  0
 62 61  2  0  0  0  0
 63 62  1  0  0  0  0
 64 63  2  0  0  0  0
 64 65  1  0  0  0  0
 65 66  2  0  0  0  0
 66 61  1  0  0  0  0
 66 72  1  0  0  0  0
 67212  1  0  0  0  0
 68 67  2  0  0  0  0
 69 63  1  0  0  0  0
 69 68  1  0  0  0  0
 70 65  1  0  0  0  0
 70 71  2  0  0  0  0
 71 72  1  0  0  0  0
 73 75  2  0  0  0  0
 73 78  1  0  0  0  0
 74 82  1  0  0  0  0
 74 64  1  0  0  0  0
 75 76  1  0  0  0  0
 76215  1  0  0  0  0
 76 77  2  0  0  0  0
 77 83  1  0  0  0  0
 78 77  1  0  0  0  0
 79 74  2  0  0  0  0
 80 81  2  0  0  0  0
 80 79  1  0  0  0  0
 81 82  1  0  0  0  0
 83218  1  0  0  0  0
 83219  1  0  0  0  0
 84 83  1  0  0  0  0
 84221  1  0  0  0  0
 85 81  1  0  0  0  0
 85224  1  0  0  0  0
 86 85  1  0  0  0  0
 86227  1  0  0  0  0
 87 71  1  0  0  0  0
 87 91  1  0  0  0  0
 88 89  1  0  0  0  0
 88 87  2  0  0  0  0
 89 90  2  0  0  0  0
 90111  1  0  0  0  0
 90 91  1  0  0  0  0
 92109  1  0  0  0  0
 92 93  1  0  0  0  0
 94 97  1  0  0  0  0
 94 93  1  0  0  0  0
 95 94  2  0  0  0  0
 96 95  1  0  0  0  0
 96 92  2  0  0  0  0
 97100  1  0  0  0  0
 98 97  2  0  0  0  0
 98 99  1  0  0  0  0
 99101  2  0  0  0  0
101100  1  0  0  0  0
101128  1  0  0  0  0
102 95  1  0  0  0  0
103104  1  0  0  0  0
103102  1  0  0  0  0
104 96  1  0  0  0  0
105102  2  0  0  0  0
106104  2  0  0  0  0
107108  1  0  0  0  0
107103  1  0  0  0  0
108236  1  0  0  0  0
108234  1  0  0  0  0
109113  2  0  0  0  0
110111  1  0  0  0  0
110109  1  0  0  0  0
111112  2  0  0  0  0
112113  1  0  0  0  0
112114  1  0  0  0  0
113116  1  0  0  0  0
114117  2  0  0  0  0
114115  1  0  0  0  0
115119  1  0  0  0  0
116118  2  0  0  0  0
116115  1  0  0  0  0
119238  1  0  0  0  0
119120  1  0  0  0  0
120240  1  0  0  0  0
121126  1  0  0  0  0
121133  1  0  0  0  0
122121  2  0  0  0  0
123124  2  0  0  0  0
123122  1  0  0  0  0
124125  1  0  0  0  0
125126  2  0  0  0  0
125130  1  0  0  0  0
126132  1  0  0  0  0
127242  1  0  0  0  0
127122  1  0  0  0  0
128127  2  0  0  0  0
129128  1  0  0  0  0
129123  1  0  0  0  0
130131  2  0  0  0  0
131132  1  0  0  0  0
131147  1  0  0  0  0
133135  2  0  0  0  0
134124  1  0  0  0  0
134142  1  0  0  0  0
135244  1  0  0  0  0
135136  1  0  0  0  0
136245  1  0  0  0  0
137136  2  0  0  0  0
137143  1  0  0  0  0
138133  1  0  0  0  0
138137  1  0  0  0  0
139134  2  0  0  0  0
140139  1  0  0  0  0
140141  2  0  0  0  0
141142  1  0  0  0  0
143249  1  0  0  0  0
143248  1  0  0  0  0
144251  1  0  0  0  0
144143  1  0  0  0  0
145141  1  0  0  0  0
145254  1  0  0  0  0
145146  1  0  0  0  0
146257  1  0  0  0  0
147151  1  0  0  0  0
148147  2  0  0  0  0
148149  1  0  0  0  0
149259  1  0  0  0  0
149150  2  0  0  0  0
150171  1  0  0  0  0
151150  1  0  0  0  0
152153  1  0  0  0  0
153154  1  0  0  0  0
154157  1  0  0  0  0
155154  2  0  0  0  0
156152  2  0  0  0  0
156155  1  0  0  0  0
157158  2  0  0  0  0
157160  1  0  0  0  0
158159  1  0  0  0  0
159161  2  0  0  0  0
159261  1  0  0  0  0
160161  1  0  0  0  0
161262  1  0  0  0  0
162155  1  0  0  0  0
162165  2  0  0  0  0
163162  1  0  0  0  0
164163  1  0  0  0  0
164156  1  0  0  0  0
166164  2  0  0  0  0
167168  1  0  0  0  0
167263  1  0  0  0  0
167163  1  0  0  0  0
168265  1  0  0  0  0
169173  2  0  0  0  0
169152  1  0  0  0  0
170169  1  0  0  0  0
171170  1  0  0  0  0
171172  2  0  0  0  0
172174  1  0  0  0  0
172173  1  0  0  0  0
173176  1  0  0  0  0
174175  1  0  0  0  0
175176  1  0  0  0  0
175179  1  0  0  0  0
176178  2  0  0  0  0
177174  2  0  0  0  0
179269  1  0  0  0  0
179180  1  0  0  0  0
180271  1  0  0  0  0
180272  1  0  0  0  0
181  7  1  0  0  0  0
182  8  1  0  0  0  0
186 19  1  0  0  0  0
187 20  1  0  0  0  0
189 23  1  0  0  0  0
192 24  1  0  0  0  0
193 25  1  0  0  0  0
195 26  1  0  0  0  0
198 28  1  0  0  0  0
204 48  1  0  0  0  0
206 48  1  0  0  0  0
209 60  1  0  0  0  0
210 60  1  0  0  0  0
211 60  1  0  0  0  0
213 70  1  0  0  0  0
214 75  1  0  0  0  0
216 79  1  0  0  0  0
217 80  1  0  0  0  0
220 84  1  0  0  0  0
222 84  1  0  0  0  0
223 85  1  0  0  0  0
225 86  1  0  0  0  0
226 86  1  0  0  0  0
228 88  1  0  0  0  0
229 89  1  0  0  0  0
230 98  1  0  0  0  0
231 99  1  0  0  0  0
232107  1  0  0  0  0
233107  1  0  0  0  0
235108  1  0  0  0  0
237119  1  0  0  0  0
239120  1  0  0  0  0
241120  1  0  0  0  0
243130  1  0  0  0  0
246139  1  0  0  0  0
247140  1  0  0  0  0
250144  1  0  0  0  0
252144  1  0  0  0  0
253145  1  0  0  0  0
255146  1  0  0  0  0
256146  1  0  0  0  0
258148  1  0  0  0  0
260158  1  0  0  0  0
264167  1  0  0  0  0
266168  1  0  0  0  0
267168  1  0  0  0  0
268179  1  0  0  0  0
270180  1  0  0  0  0
M  END
