SCF done       -468.859916426778          0.000443333057
 OpenBabel12282109573D

278307  0  0  0  0  0  0  0  0999 V2000
    1.8128    8.4439   -4.6451 C   0  0  0  0  0  0  0  0  0  0  0  0
    0.5678    9.0456   -4.4150 C   0  0  0  0  0  0  0  0  0  0  0  0
    0.2222    9.4992   -3.1190 C   0  0  0  0  0  0  0  0  0  0  0  0
    1.0694    9.3921   -2.0265 C   0  0  0  0  0  0  0  0  0  0  0  0
    2.3066    8.7684   -2.2522 C   0  0  0  0  0  0  0  0  0  0  0  0
    2.6494    8.3094   -3.5488 C   0  0  0  0  0  0  0  0  0  0  0  0
   -0.4842    9.2767   -5.3511 C   0  0  0  0  0  0  0  0  0  0  0  0
   -1.5492    9.8932   -4.8010 C   0  0  0  0  0  0  0  0  0  0  0  0
   -1.3634   10.2300   -3.1124 S   0  0  0  0  0  0  0  0  0  0  0  0
    3.3303    8.5000   -1.3104 C   0  0  0  0  0  0  0  0  0  0  0  0
    4.4309    7.9014   -1.8506 C   0  0  0  0  0  0  0  0  0  0  0  0
    4.2492    7.6131   -3.5739 S   0  0  0  0  0  0  0  0  0  0  0  0
    2.2139    7.9897   -5.9858 C   0  0  0  0  0  0  0  0  0  0  0  0
    0.7141    9.9223   -0.7023 C   0  0  0  0  0  0  0  0  0  0  0  0
    5.6215    7.5321   -1.1653 C   0  0  0  0  0  0  0  0  0  0  0  0
    6.7788    7.0048   -1.7040 C   0  0  0  0  0  0  0  0  0  0  0  0
    7.7556    6.7830   -0.7454 C   0  0  0  0  0  0  0  0  0  0  0  0
    7.3697    7.1225    0.5451 C   0  0  0  0  0  0  0  0  0  0  0  0
    5.7391    7.7353    0.5537 S   0  0  0  0  0  0  0  0  0  0  0  0
    8.2063    6.9911    1.6804 C   0  0  0  0  0  0  0  0  0  0  0  0
    9.8481    6.4639    1.3959 S   0  0  0  0  0  0  0  0  0  0  0  0
   10.2525    6.5009    3.0959 C   0  0  0  0  0  0  0  0  0  0  0  0
    9.1491    6.9026    3.8408 C   0  0  0  0  0  0  0  0  0  0  0  0
    7.9979    7.1915    3.0407 C   0  0  0  0  0  0  0  0  0  0  0  0
    9.1444    7.0121    5.2874 C   0  0  0  0  0  0  0  0  0  0  0  0
    7.8865    7.4758    5.8648 C   0  0  0  0  0  0  0  0  0  0  0  0
    6.7394    7.7764    5.0640 C   0  0  0  0  0  0  0  0  0  0  0  0
    6.7477    7.6591    3.6091 C   0  0  0  0  0  0  0  0  0  0  0  0
    7.6706    7.6738    7.2062 C   0  0  0  0  0  0  0  0  0  0  0  0
    6.0498    8.2078    7.4921 S   0  0  0  0  0  0  0  0  0  0  0  0
    5.6563    8.1755    5.8074 C   0  0  0  0  0  0  0  0  0  0  0  0
   11.5769    6.1423    3.4473 C   0  0  0  0  0  0  0  0  0  0  0  0
   12.5711    5.8498    2.5221 C   0  0  0  0  0  0  0  0  0  0  0  0
   13.7886    5.5088    3.0902 C   0  0  0  0  0  0  0  0  0  0  0  0
   12.1876    5.9855    5.0711 S   0  0  0  0  0  0  0  0  0  0  0  0
   10.1127    6.7221    5.9874 O   0  0  0  0  0  0  0  0  0  0  0  0
    5.7672    7.9535    2.9282 O   0  0  0  0  0  0  0  0  0  0  0  0
    8.5990    7.4594    8.3469 C   0  0  0  0  0  0  0  0  0  0  0  0
    8.6588    5.9799    8.7376 C   0  0  0  0  0  0  0  0  0  0  0  0
    4.3038    8.5859    5.3477 C   0  0  0  0  0  0  0  0  0  0  0  0
    4.3039   10.0391    4.8641 C   0  0  0  0  0  0  0  0  0  0  0  0
   13.7486    5.5225    4.4710 C   0  0  0  0  0  0  0  0  0  0  0  0
    1.5849   10.7832   -0.0338 C   0  0  0  0  0  0  0  0  0  0  0  0
    1.2405   11.2786    1.2064 C   0  0  0  0  0  0  0  0  0  0  0  0
    0.0382   10.9360    1.8049 C   0  0  0  0  0  0  0  0  0  0  0  0
   -0.8398   10.0842    1.1433 C   0  0  0  0  0  0  0  0  0  0  0  0
   -0.4916    9.5827   -0.1106 C   0  0  0  0  0  0  0  0  0  0  0  0
    2.1879    8.8690   -7.0675 C   0  0  0  0  0  0  0  0  0  0  0  0
    2.5775    8.4289   -8.3157 C   0  0  0  0  0  0  0  0  0  0  0  0
    2.9898    7.1210   -8.5169 C   0  0  0  0  0  0  0  0  0  0  0  0
    3.0192    6.2371   -7.4436 C   0  0  0  0  0  0  0  0  0  0  0  0
    2.6324    6.6838   -6.1804 C   0  0  0  0  0  0  0  0  0  0  0  0
   -2.0446    9.6773    1.6223 O   0  0  0  0  0  0  0  0  0  0  0  0
   -2.4846   10.1611    2.8749 C   0  0  0  0  0  0  0  0  0  0  0  0
   -3.8643    9.5775    3.1357 C   0  0  0  0  0  0  0  0  0  0  0  0
    3.3973    4.9341   -7.5130 O   0  0  0  0  0  0  0  0  0  0  0  0
    3.8128    4.4036   -8.7552 C   0  0  0  0  0  0  0  0  0  0  0  0
    4.1746    2.9431   -8.5344 C   0  0  0  0  0  0  0  0  0  0  0  0
   16.1666    4.5562    8.7309 C   0  0  0  0  0  0  0  0  0  0  0  0
   15.9288    4.7528    7.3602 C   0  0  0  0  0  0  0  0  0  0  0  0
   16.9783    4.5808    6.4218 C   0  0  0  0  0  0  0  0  0  0  0  0
   18.2677    4.2257    6.7814 C   0  0  0  0  0  0  0  0  0  0  0  0
   18.5098    4.0445    8.1539 C   0  0  0  0  0  0  0  0  0  0  0  0
   17.4578    4.2107    9.0918 C   0  0  0  0  0  0  0  0  0  0  0  0
   14.7165    5.1290    6.7342 C   0  0  0  0  0  0  0  0  0  0  0  0
   14.7994    5.2023    5.3735 C   0  0  0  0  0  0  0  0  0  0  0  0
   16.4131    4.8304    4.7890 S   0  0  0  0  0  0  0  0  0  0  0  0
   19.7304    3.7060    8.7859 C   0  0  0  0  0  0  0  0  0  0  0  0
   19.6296    3.5714   10.1409 C   0  0  0  0  0  0  0  0  0  0  0  0
   18.0002    3.8845   10.7174 S   0  0  0  0  0  0  0  0  0  0  0  0
   15.0861    4.7070    9.7168 C   0  0  0  0  0  0  0  0  0  0  0  0
   19.3276    4.0445    5.7785 C   0  0  0  0  0  0  0  0  0  0  0  0
   20.6673    3.2212   11.0482 C   0  0  0  0  0  0  0  0  0  0  0  0
   20.5514    2.9774   12.4032 C   0  0  0  0  0  0  0  0  0  0  0  0
   21.7635    2.6447   12.9873 C   0  0  0  0  0  0  0  0  0  0  0  0
   22.8348    2.6370   12.1028 C   0  0  0  0  0  0  0  0  0  0  0  0
   22.3036    3.0524   10.4962 S   0  0  0  0  0  0  0  0  0  0  0  0
   24.1659    2.3326   12.4794 C   0  0  0  0  0  0  0  0  0  0  0  0
   24.4289    1.8413   14.1366 S   0  0  0  0  0  0  0  0  0  0  0  0
   26.1555    1.6841   13.9132 C   0  0  0  0  0  0  0  0  0  0  0  0
   26.4982    2.0068   12.6054 C   0  0  0  0  0  0  0  0  0  0  0  0
   25.3739    2.3534   11.7908 C   0  0  0  0  0  0  0  0  0  0  0  0
   27.8598    2.0085   12.1043 C   0  0  0  0  0  0  0  0  0  0  0  0
   27.9887    2.3054   10.6811 C   0  0  0  0  0  0  0  0  0  0  0  0
   26.8618    2.6267    9.8598 C   0  0  0  0  0  0  0  0  0  0  0  0
   25.4987    2.6696   10.3805 C   0  0  0  0  0  0  0  0  0  0  0  0
   29.1744    2.3066    9.9893 C   0  0  0  0  0  0  0  0  0  0  0  0
   28.9137    2.7220    8.3299 S   0  0  0  0  0  0  0  0  0  0  0  0
   27.2069    2.8917    8.5576 C   0  0  0  0  0  0  0  0  0  0  0  0
   26.9138    1.2548   15.0300 C   0  0  0  0  0  0  0  0  0  0  0  0
   26.3515    0.8346   16.2291 C   0  0  0  0  0  0  0  0  0  0  0  0
   27.2795    0.4664   17.1899 C   0  0  0  0  0  0  0  0  0  0  0  0
   28.6516    1.1901   15.1159 S   0  0  0  0  0  0  0  0  0  0  0  0
   28.8377    1.7953   12.8177 O   0  0  0  0  0  0  0  0  0  0  0  0
   24.5362    2.9328    9.6624 O   0  0  0  0  0  0  0  0  0  0  0  0
   30.5503    2.0525   10.4890 C   0  0  0  0  0  0  0  0  0  0  0  0
   31.1351    3.3107   11.1374 C   0  0  0  0  0  0  0  0  0  0  0  0
   26.3307    3.2408    7.4091 C   0  0  0  0  0  0  0  0  0  0  0  0
   25.6652    1.9914    6.8252 C   0  0  0  0  0  0  0  0  0  0  0  0
   28.5821    0.6173   16.7494 C   0  0  0  0  0  0  0  0  0  0  0  0
   19.5789    5.0420    4.8372 C   0  0  0  0  0  0  0  0  0  0  0  0
   20.5689    4.8604    3.8941 C   0  0  0  0  0  0  0  0  0  0  0  0
   21.3218    3.6975    3.8623 C   0  0  0  0  0  0  0  0  0  0  0  0
   21.0793    2.6967    4.7973 C   0  0  0  0  0  0  0  0  0  0  0  0
   20.0791    2.8801    5.7514 C   0  0  0  0  0  0  0  0  0  0  0  0
   13.8818    4.0219    9.5570 C   0  0  0  0  0  0  0  0  0  0  0  0
   12.8726    4.1866   10.4827 C   0  0  0  0  0  0  0  0  0  0  0  0
   13.0327    5.0262   11.5739 C   0  0  0  0  0  0  0  0  0  0  0  0
   14.2330    5.7071   11.7462 C   0  0  0  0  0  0  0  0  0  0  0  0
   15.2548    5.5380   10.8124 C   0  0  0  0  0  0  0  0  0  0  0  0
   21.7489    1.5157    4.8691 O   0  0  0  0  0  0  0  0  0  0  0  0
   22.7662    1.2456    3.9272 C   0  0  0  0  0  0  0  0  0  0  0  0
   23.3539   -0.1167    4.2602 C   0  0  0  0  0  0  0  0  0  0  0  0
   14.5107    6.5562   12.7702 O   0  0  0  0  0  0  0  0  0  0  0  0
   13.5266    6.7872   13.7574 C   0  0  0  0  0  0  0  0  0  0  0  0
   14.1058    7.7677   14.7652 C   0  0  0  0  0  0  0  0  0  0  0  0
   31.7081   -0.9957   20.3135 C   0  0  0  0  0  0  0  0  0  0  0  0
   31.2378   -0.3812   19.1406 C   0  0  0  0  0  0  0  0  0  0  0  0
   32.1418    0.2802   18.2704 C   0  0  0  0  0  0  0  0  0  0  0  0
   33.5021    0.3705   18.5166 C   0  0  0  0  0  0  0  0  0  0  0  0
   33.9654   -0.2046   19.7118 C   0  0  0  0  0  0  0  0  0  0  0  0
   33.0624   -0.8728   20.5784 C   0  0  0  0  0  0  0  0  0  0  0  0
   29.9026   -0.3009   18.6749 C   0  0  0  0  0  0  0  0  0  0  0  0
   29.7754    0.3527   17.4819 C   0  0  0  0  0  0  0  0  0  0  0  0
   31.3190    0.9142   16.8687 S   0  0  0  0  0  0  0  0  0  0  0  0
   35.2854   -0.2014   20.2247 C   0  0  0  0  0  0  0  0  0  0  0  0
   35.4143   -0.8613   21.4146 C   0  0  0  0  0  0  0  0  0  0  0  0
   33.8894   -1.5265   21.9683 S   0  0  0  0  0  0  0  0  0  0  0  0
   30.8078   -1.7477   21.1996 C   0  0  0  0  0  0  0  0  0  0  0  0
   34.4171    1.0288   17.5724 C   0  0  0  0  0  0  0  0  0  0  0  0
   36.5888   -1.0322   22.2021 C   0  0  0  0  0  0  0  0  0  0  0  0
   37.8424   -0.4964   21.9656 C   0  0  0  0  0  0  0  0  0  0  0  0
   38.7598   -0.8492   22.9418 C   0  0  0  0  0  0  0  0  0  0  0  0
   38.2413   -1.6662   23.9393 C   0  0  0  0  0  0  0  0  0  0  0  0
   36.5577   -1.9956   23.6421 S   0  0  0  0  0  0  0  0  0  0  0  0
   38.9981   -2.1410   25.0388 C   0  0  0  0  0  0  0  0  0  0  0  0
   40.6480   -1.5804   25.1683 S   0  0  0  0  0  0  0  0  0  0  0  0
   40.9460   -2.5022   26.6224 C   0  0  0  0  0  0  0  0  0  0  0  0
   39.8099   -3.2170   26.9760 C   0  0  0  0  0  0  0  0  0  0  0  0
   38.7069   -3.0063   26.0868 C   0  0  0  0  0  0  0  0  0  0  0  0
   39.7326   -4.1130   28.1185 C   0  0  0  0  0  0  0  0  0  0  0  0
   38.4442   -4.7798   28.2886 C   0  0  0  0  0  0  0  0  0  0  0  0
   37.3372   -4.5503   27.4110 C   0  0  0  0  0  0  0  0  0  0  0  0
   37.4132   -3.6335   26.2783 C   0  0  0  0  0  0  0  0  0  0  0  0
   38.1539   -5.6702   29.2927 C   0  0  0  0  0  0  0  0  0  0  0  0
   36.5289   -6.2474   29.1497 S   0  0  0  0  0  0  0  0  0  0  0  0
   36.2263   -5.2845   27.7445 C   0  0  0  0  0  0  0  0  0  0  0  0
   42.2401   -2.3815   27.1984 C   0  0  0  0  0  0  0  0  0  0  0  0
   43.2391   -1.5734   26.6840 C   0  0  0  0  0  0  0  0  0  0  0  0
   44.4242   -1.6089   27.4210 C   0  0  0  0  0  0  0  0  0  0  0  0
   42.8003   -3.2008   28.6308 S   0  0  0  0  0  0  0  0  0  0  0  0
   40.6756   -4.3125   28.8792 O   0  0  0  0  0  0  0  0  0  0  0  0
   36.4457   -3.4104   25.5535 O   0  0  0  0  0  0  0  0  0  0  0  0
   39.0361   -6.1911   30.3689 C   0  0  0  0  0  0  0  0  0  0  0  0
   39.9039   -7.3408   29.8484 C   0  0  0  0  0  0  0  0  0  0  0  0
   34.8869   -5.3014   27.1016 C   0  0  0  0  0  0  0  0  0  0  0  0
   34.0400   -4.1170   27.5762 C   0  0  0  0  0  0  0  0  0  0  0  0
   44.3290   -2.4444   28.4960 C   0  0  0  0  0  0  0  0  0  0  0  0
   34.1551    2.3200   17.1171 C   0  0  0  0  0  0  0  0  0  0  0  0
   35.0186    2.9195   16.2238 C   0  0  0  0  0  0  0  0  0  0  0  0
   36.1465    2.2582   15.7646 C   0  0  0  0  0  0  0  0  0  0  0  0
   36.4153    0.9685   16.2109 C   0  0  0  0  0  0  0  0  0  0  0  0
   35.5447    0.3635   17.1164 C   0  0  0  0  0  0  0  0  0  0  0  0
   30.7749   -1.4907   22.5692 C   0  0  0  0  0  0  0  0  0  0  0  0
   29.9295   -2.2177   23.3819 C   0  0  0  0  0  0  0  0  0  0  0  0
   29.1087   -3.2055   22.8613 C   0  0  0  0  0  0  0  0  0  0  0  0
   29.1359   -3.4711   21.4962 C   0  0  0  0  0  0  0  0  0  0  0  0
   29.9893   -2.7362   20.6746 C   0  0  0  0  0  0  0  0  0  0  0  0
   37.4854    0.2175   15.8353 O   0  0  0  0  0  0  0  0  0  0  0  0
   38.3978    0.7463   14.8943 C   0  0  0  0  0  0  0  0  0  0  0  0
   39.4595   -0.3112   14.6355 C   0  0  0  0  0  0  0  0  0  0  0  0
   28.3815   -4.4103   20.8650 O   0  0  0  0  0  0  0  0  0  0  0  0
   27.5058   -5.2150   21.6285 C   0  0  0  0  0  0  0  0  0  0  0  0
   26.8163   -6.1786   20.6753 C   0  0  0  0  0  0  0  0  0  0  0  0
   -0.4292    8.9782   -6.3824 H   0  0  0  0  0  0  0  0  0  0  0  0
   -2.4654   10.1790   -5.2803 H   0  0  0  0  0  0  0  0  0  0  0  0
    3.2558    8.7333   -0.2633 H   0  0  0  0  0  0  0  0  0  0  0  0
    6.8987    6.7983   -2.7531 H   0  0  0  0  0  0  0  0  0  0  0  0
    8.7294    6.3802   -0.9650 H   0  0  0  0  0  0  0  0  0  0  0  0
   12.3965    5.8922    1.4608 H   0  0  0  0  0  0  0  0  0  0  0  0
   14.6708    5.2535    2.5297 H   0  0  0  0  0  0  0  0  0  0  0  0
    8.2674    8.0532    9.2011 H   0  0  0  0  0  0  0  0  0  0  0  0
    9.6004    7.7787    8.0513 H   0  0  0  0  0  0  0  0  0  0  0  0
    7.6688    5.6102    8.9969 H   0  0  0  0  0  0  0  0  0  0  0  0
    9.3181    5.8520    9.5919 H   0  0  0  0  0  0  0  0  0  0  0  0
    9.0516    5.3971    7.9091 H   0  0  0  0  0  0  0  0  0  0  0  0
    3.5913    8.4702    6.1670 H   0  0  0  0  0  0  0  0  0  0  0  0
    4.0050    7.9457    4.5153 H   0  0  0  0  0  0  0  0  0  0  0  0
    4.6394   10.7074    5.6545 H   0  0  0  0  0  0  0  0  0  0  0  0
    3.3003   10.3258    4.5620 H   0  0  0  0  0  0  0  0  0  0  0  0
    4.9638   10.1406    4.0070 H   0  0  0  0  0  0  0  0  0  0  0  0
    2.5140   11.0747   -0.4991 H   0  0  0  0  0  0  0  0  0  0  0  0
    1.9149   11.9458    1.7231 H   0  0  0  0  0  0  0  0  0  0  0  0
   -0.2006   11.3386    2.7767 H   0  0  0  0  0  0  0  0  0  0  0  0
   -1.1786    8.9092   -0.5981 H   0  0  0  0  0  0  0  0  0  0  0  0
    1.8835    9.8939   -6.9183 H   0  0  0  0  0  0  0  0  0  0  0  0
    2.5629    9.1104   -9.1539 H   0  0  0  0  0  0  0  0  0  0  0  0
    3.2843    6.8079   -9.5061 H   0  0  0  0  0  0  0  0  0  0  0  0
    2.6516    5.9810   -5.3624 H   0  0  0  0  0  0  0  0  0  0  0  0
   -2.5349   11.2591    2.8596 H   0  0  0  0  0  0  0  0  0  0  0  0
   -1.7864    9.8525    3.6661 H   0  0  0  0  0  0  0  0  0  0  0  0
   -4.5486    9.8811    2.3483 H   0  0  0  0  0  0  0  0  0  0  0  0
   -4.2407    9.9284    4.0924 H   0  0  0  0  0  0  0  0  0  0  0  0
   -3.8110    8.4924    3.1478 H   0  0  0  0  0  0  0  0  0  0  0  0
    4.6849    4.9578   -9.1301 H   0  0  0  0  0  0  0  0  0  0  0  0
    3.0013    4.4854   -9.4923 H   0  0  0  0  0  0  0  0  0  0  0  0
    4.9710    2.8668   -7.7993 H   0  0  0  0  0  0  0  0  0  0  0  0
    4.5049    2.4975   -9.4683 H   0  0  0  0  0  0  0  0  0  0  0  0
    3.3098    2.3993   -8.1643 H   0  0  0  0  0  0  0  0  0  0  0  0
   13.8087    5.3444    7.2686 H   0  0  0  0  0  0  0  0  0  0  0  0
   20.6582    3.5683    8.2602 H   0  0  0  0  0  0  0  0  0  0  0  0
   19.6173    3.0376   12.9339 H   0  0  0  0  0  0  0  0  0  0  0  0
   21.8820    2.4167   14.0326 H   0  0  0  0  0  0  0  0  0  0  0  0
   25.2863    0.7976   16.3805 H   0  0  0  0  0  0  0  0  0  0  0  0
   27.0177    0.1188   18.1729 H   0  0  0  0  0  0  0  0  0  0  0  0
   31.1862    1.7352    9.6600 H   0  0  0  0  0  0  0  0  0  0  0  0
   30.5136    1.2619   11.2410 H   0  0  0  0  0  0  0  0  0  0  0  0
   31.1435    4.1384   10.4311 H   0  0  0  0  0  0  0  0  0  0  0  0
   32.1526    3.1169   11.4653 H   0  0  0  0  0  0  0  0  0  0  0  0
   30.5409    3.5869   12.0040 H   0  0  0  0  0  0  0  0  0  0  0  0
   26.9235    3.7378    6.6384 H   0  0  0  0  0  0  0  0  0  0  0  0
   25.5477    3.9182    7.7561 H   0  0  0  0  0  0  0  0  0  0  0  0
   26.4142    1.2675    6.5100 H   0  0  0  0  0  0  0  0  0  0  0  0
   25.0586    2.2673    5.9676 H   0  0  0  0  0  0  0  0  0  0  0  0
   25.0193    1.5365    7.5711 H   0  0  0  0  0  0  0  0  0  0  0  0
   19.0117    5.9595    4.8607 H   0  0  0  0  0  0  0  0  0  0  0  0
   20.7652    5.6345    3.1669 H   0  0  0  0  0  0  0  0  0  0  0  0
   22.0854    3.5847    3.1090 H   0  0  0  0  0  0  0  0  0  0  0  0
   19.8903    2.0831    6.4535 H   0  0  0  0  0  0  0  0  0  0  0  0
   13.7518    3.3517    8.7211 H   0  0  0  0  0  0  0  0  0  0  0  0
   11.9398    3.6561   10.3587 H   0  0  0  0  0  0  0  0  0  0  0  0
   12.2222    5.1373   12.2769 H   0  0  0  0  0  0  0  0  0  0  0  0
   16.1716    6.0880   10.9548 H   0  0  0  0  0  0  0  0  0  0  0  0
   23.5473    2.0177    3.9801 H   0  0  0  0  0  0  0  0  0  0  0  0
   22.3484    1.2421    2.9103 H   0  0  0  0  0  0  0  0  0  0  0  0
   23.7594   -0.1076    5.2681 H   0  0  0  0  0  0  0  0  0  0  0  0
   24.1454   -0.3606    3.5573 H   0  0  0  0  0  0  0  0  0  0  0  0
   22.5796   -0.8767    4.2050 H   0  0  0  0  0  0  0  0  0  0  0  0
   13.2618    5.8438   14.2557 H   0  0  0  0  0  0  0  0  0  0  0  0
   12.6209    7.2077   13.2974 H   0  0  0  0  0  0  0  0  0  0  0  0
   15.0023    7.3497   15.2145 H   0  0  0  0  0  0  0  0  0  0  0  0
   13.3769    7.9731   15.5440 H   0  0  0  0  0  0  0  0  0  0  0  0
   14.3699    8.6968   14.2676 H   0  0  0  0  0  0  0  0  0  0  0  0
   29.0692   -0.7143   19.2124 H   0  0  0  0  0  0  0  0  0  0  0  0
   36.1043    0.2842   19.7268 H   0  0  0  0  0  0  0  0  0  0  0  0
   38.0766    0.1293   21.1234 H   0  0  0  0  0  0  0  0  0  0  0  0
   39.7877   -0.5295   22.9398 H   0  0  0  0  0  0  0  0  0  0  0  0
   43.1016   -0.9760   25.7995 H   0  0  0  0  0  0  0  0  0  0  0  0
   45.3031   -1.0430   27.1678 H   0  0  0  0  0  0  0  0  0  0  0  0
   38.4250   -6.5405   31.2035 H   0  0  0  0  0  0  0  0  0  0  0  0
   39.6907   -5.3871   30.7103 H   0  0  0  0  0  0  0  0  0  0  0  0
   39.2827   -8.1420   29.4531 H   0  0  0  0  0  0  0  0  0  0  0  0
   40.5152   -7.7364   30.6547 H   0  0  0  0  0  0  0  0  0  0  0  0
   40.5606   -6.9796   29.0616 H   0  0  0  0  0  0  0  0  0  0  0  0
   34.3796   -6.2377   27.3426 H   0  0  0  0  0  0  0  0  0  0  0  0
   35.0120   -5.2248   26.0198 H   0  0  0  0  0  0  0  0  0  0  0  0
   33.9320   -4.1309   28.6589 H   0  0  0  0  0  0  0  0  0  0  0  0
   33.0538   -4.1653   27.1231 H   0  0  0  0  0  0  0  0  0  0  0  0
   34.5113   -3.1851   27.2766 H   0  0  0  0  0  0  0  0  0  0  0  0
   45.0886   -2.6557   29.2232 H   0  0  0  0  0  0  0  0  0  0  0  0
   33.2889    2.8524   17.4775 H   0  0  0  0  0  0  0  0  0  0  0  0
   34.8175    3.9213   15.8741 H   0  0  0  0  0  0  0  0  0  0  0  0
   36.8006    2.7540   15.0649 H   0  0  0  0  0  0  0  0  0  0  0  0
   35.7571   -0.6452   17.4355 H   0  0  0  0  0  0  0  0  0  0  0  0
   31.3960   -0.7139   22.9868 H   0  0  0  0  0  0  0  0  0  0  0  0
   29.9022   -2.0163   24.4426 H   0  0  0  0  0  0  0  0  0  0  0  0
   28.4603   -3.7568   23.5239 H   0  0  0  0  0  0  0  0  0  0  0  0
   30.0143   -2.9719   19.6220 H   0  0  0  0  0  0  0  0  0  0  0  0
   38.8624    1.6606   15.2905 H   0  0  0  0  0  0  0  0  0  0  0  0
   37.8751    0.9949   13.9600 H   0  0  0  0  0  0  0  0  0  0  0  0
   39.9697   -0.5590   15.5622 H   0  0  0  0  0  0  0  0  0  0  0  0
   40.1840    0.0599   13.9162 H   0  0  0  0  0  0  0  0  0  0  0  0
   38.9961   -1.2128   14.2445 H   0  0  0  0  0  0  0  0  0  0  0  0
   26.7604   -4.5863   22.1364 H   0  0  0  0  0  0  0  0  0  0  0  0
   28.0710   -5.7726   22.3884 H   0  0  0  0  0  0  0  0  0  0  0  0
   26.2632   -5.6233   19.9228 H   0  0  0  0  0  0  0  0  0  0  0  0
   26.1306   -6.8169   21.2252 H   0  0  0  0  0  0  0  0  0  0  0  0
   27.5565   -6.7961   20.1740 H   0  0  0  0  0  0  0  0  0  0  0  0
  1  2  2  0  0  0  0
  1  6  1  0  0  0  0
  2  3  1  0  0  0  0
  3  9  1  0  0  0  0
  3  4  2  0  0  0  0
  4 14  1  0  0  0  0
  5  4  1  0  0  0  0
  5 10  1  0  0  0  0
  6  5  2  0  0  0  0
  7  8  2  0  0  0  0
  7  2  1  0  0  0  0
  8  9  1  0  0  0  0
 10177  1  0  0  0  0
 11 10  2  0  0  0  0
 11 15  1  0  0  0  0
 12  6  1  0  0  0  0
 12 11  1  0  0  0  0
 13  1  1  0  0  0  0
 14 47  2  0  0  0  0
 14 43  1  0  0  0  0
 15 19  1  0  0  0  0
 16 15  2  0  0  0  0
 16 17  1  0  0  0  0
 17 18  2  0  0  0  0
 18 19  1  0  0  0  0
 18 20  1  0  0  0  0
 20 24  2  0  0  0  0
 21 20  1  0  0  0  0
 21 22  1  0  0  0  0
 22 32  1  0  0  0  0
 22 23  2  0  0  0  0
 23 25  1  0  0  0  0
 24 28  1  0  0  0  0
 24 23  1  0  0  0  0
 25 26  1  0  0  0  0
 25 36  2  0  0  0  0
 26 29  2  0  0  0  0
 27 31  2  0  0  0  0
 27 26  1  0  0  0  0
 28 27  1  0  0  0  0
 29 30  1  0  0  0  0
 29 38  1  0  0  0  0
 31 30  1  0  0  0  0
 32 35  1  0  0  0  0
 33 34  1  0  0  0  0
 33 32  2  0  0  0  0
 34 42  2  0  0  0  0
 37 28  2  0  0  0  0
 38 39  1  0  0  0  0
 38182  1  0  0  0  0
 39184  1  0  0  0  0
 39185  1  0  0  0  0
 40 31  1  0  0  0  0
 40187  1  0  0  0  0
 41 40  1  0  0  0  0
 41189  1  0  0  0  0
 42 35  1  0  0  0  0
 42 66  1  0  0  0  0
 43 44  2  0  0  0  0
 44193  1  0  0  0  0
 44 45  1  0  0  0  0
 45194  1  0  0  0  0
 46 53  1  0  0  0  0
 46 45  2  0  0  0  0
 47 46  1  0  0  0  0
 48196  1  0  0  0  0
 48 13  2  0  0  0  0
 49 48  1  0  0  0  0
 50 49  2  0  0  0  0
 50 51  1  0  0  0  0
 51 52  2  0  0  0  0
 52 13  1  0  0  0  0
 52199  1  0  0  0  0
 53 54  1  0  0  0  0
 54 55  1  0  0  0  0
 54201  1  0  0  0  0
 55204  1  0  0  0  0
 55203  1  0  0  0  0
 56 51  1  0  0  0  0
 57 58  1  0  0  0  0
 57 56  1  0  0  0  0
 58209  1  0  0  0  0
 58207  1  0  0  0  0
 59 64  1  0  0  0  0
 59 71  1  0  0  0  0
 60 59  2  0  0  0  0
 61 62  2  0  0  0  0
 61 60  1  0  0  0  0
 62 63  1  0  0  0  0
 63 68  1  0  0  0  0
 63 64  2  0  0  0  0
 64 70  1  0  0  0  0
 65210  1  0  0  0  0
 65 60  1  0  0  0  0
 66 65  2  0  0  0  0
 67 66  1  0  0  0  0
 67 61  1  0  0  0  0
 68 69  2  0  0  0  0
 69 70  1  0  0  0  0
 69 73  1  0  0  0  0
 71110  1  0  0  0  0
 72 62  1  0  0  0  0
 73 74  2  0  0  0  0
 74212  1  0  0  0  0
 74 75  1  0  0  0  0
 75213  1  0  0  0  0
 76 78  1  0  0  0  0
 76 75  2  0  0  0  0
 77 73  1  0  0  0  0
 77 76  1  0  0  0  0
 78 79  1  0  0  0  0
 80 79  1  0  0  0  0
 80 90  1  0  0  0  0
 81 80  2  0  0  0  0
 82 78  2  0  0  0  0
 82 81  1  0  0  0  0
 83 81  1  0  0  0  0
 83 94  2  0  0  0  0
 84 83  1  0  0  0  0
 85 86  1  0  0  0  0
 85 84  1  0  0  0  0
 86 82  1  0  0  0  0
 87 96  1  0  0  0  0
 87 84  2  0  0  0  0
 88 89  1  0  0  0  0
 88 87  1  0  0  0  0
 89 85  2  0  0  0  0
 90 93  1  0  0  0  0
 90 91  2  0  0  0  0
 91214  1  0  0  0  0
 91 92  1  0  0  0  0
 92215  1  0  0  0  0
 93100  1  0  0  0  0
 95 86  2  0  0  0  0
 96 97  1  0  0  0  0
 96217  1  0  0  0  0
 97219  1  0  0  0  0
 97220  1  0  0  0  0
 98222  1  0  0  0  0
 98 89  1  0  0  0  0
 99 98  1  0  0  0  0
 99225  1  0  0  0  0
100 92  2  0  0  0  0
100124  1  0  0  0  0
101226  1  0  0  0  0
101 72  2  0  0  0  0
102101  1  0  0  0  0
103102  2  0  0  0  0
103104  1  0  0  0  0
104111  1  0  0  0  0
104105  2  0  0  0  0
105 72  1  0  0  0  0
105229  1  0  0  0  0
106 71  2  0  0  0  0
106107  1  0  0  0  0
107108  2  0  0  0  0
108109  1  0  0  0  0
108232  1  0  0  0  0
109114  1  0  0  0  0
110233  1  0  0  0  0
110109  2  0  0  0  0
112234  1  0  0  0  0
112113  1  0  0  0  0
112111  1  0  0  0  0
113236  1  0  0  0  0
114115  1  0  0  0  0
115239  1  0  0  0  0
115116  1  0  0  0  0
116241  1  0  0  0  0
116242  1  0  0  0  0
117122  1  0  0  0  0
117129  1  0  0  0  0
118117  2  0  0  0  0
119120  2  0  0  0  0
119118  1  0  0  0  0
120121  1  0  0  0  0
121126  1  0  0  0  0
121122  2  0  0  0  0
122128  1  0  0  0  0
123118  1  0  0  0  0
123244  1  0  0  0  0
124123  2  0  0  0  0
125124  1  0  0  0  0
125119  1  0  0  0  0
126127  2  0  0  0  0
127128  1  0  0  0  0
127131  1  0  0  0  0
129164  1  0  0  0  0
130120  1  0  0  0  0
131135  1  0  0  0  0
132131  2  0  0  0  0
132133  1  0  0  0  0
133134  2  0  0  0  0
134136  1  0  0  0  0
135134  1  0  0  0  0
136137  1  0  0  0  0
136140  2  0  0  0  0
137138  1  0  0  0  0
138139  2  0  0  0  0
138148  1  0  0  0  0
139141  1  0  0  0  0
140144  1  0  0  0  0
140139  1  0  0  0  0
141142  1  0  0  0  0
141152  2  0  0  0  0
142145  2  0  0  0  0
143147  2  0  0  0  0
143142  1  0  0  0  0
144143  1  0  0  0  0
145154  1  0  0  0  0
146145  1  0  0  0  0
147146  1  0  0  0  0
148151  1  0  0  0  0
149148  2  0  0  0  0
149150  1  0  0  0  0
150158  2  0  0  0  0
153144  2  0  0  0  0
154251  1  0  0  0  0
154250  1  0  0  0  0
155154  1  0  0  0  0
155253  1  0  0  0  0
156255  1  0  0  0  0
156157  1  0  0  0  0
156147  1  0  0  0  0
157257  1  0  0  0  0
158151  1  0  0  0  0
158260  1  0  0  0  0
159261  1  0  0  0  0
159130  1  0  0  0  0
160159  2  0  0  0  0
161162  2  0  0  0  0
161160  1  0  0  0  0
162163  1  0  0  0  0
163264  1  0  0  0  0
163130  2  0  0  0  0
164265  1  0  0  0  0
164165  2  0  0  0  0
165266  1  0  0  0  0
166165  1  0  0  0  0
166267  1  0  0  0  0
167166  2  0  0  0  0
168129  2  0  0  0  0
168167  1  0  0  0  0
169162  1  0  0  0  0
170269  1  0  0  0  0
170169  1  0  0  0  0
171170  1  0  0  0  0
171271  1  0  0  0  0
172167  1  0  0  0  0
172173  1  0  0  0  0
173274  1  0  0  0  0
173275  1  0  0  0  0
174277  1  0  0  0  0
174173  1  0  0  0  0
175  7  1  0  0  0  0
176  8  1  0  0  0  0
178 16  1  0  0  0  0
179 17  1  0  0  0  0
180 33  1  0  0  0  0
181 34  1  0  0  0  0
183 38  1  0  0  0  0
186 39  1  0  0  0  0
188 40  1  0  0  0  0
190 41  1  0  0  0  0
191 41  1  0  0  0  0
192 43  1  0  0  0  0
195 47  1  0  0  0  0
197 49  1  0  0  0  0
198 50  1  0  0  0  0
200 54  1  0  0  0  0
202 55  1  0  0  0  0
205 57  1  0  0  0  0
206 57  1  0  0  0  0
208 58  1  0  0  0  0
211 68  1  0  0  0  0
216 96  1  0  0  0  0
218 97  1  0  0  0  0
221 98  1  0  0  0  0
223 99  1  0  0  0  0
224 99  1  0  0  0  0
227102  1  0  0  0  0
228103  1  0  0  0  0
230106  1  0  0  0  0
231107  1  0  0  0  0
235112  1  0  0  0  0
237113  1  0  0  0  0
238113  1  0  0  0  0
240115  1  0  0  0  0
243116  1  0  0  0  0
245126  1  0  0  0  0
246132  1  0  0  0  0
247133  1  0  0  0  0
248149  1  0  0  0  0
249150  1  0  0  0  0
252155  1  0  0  0  0
254155  1  0  0  0  0
256156  1  0  0  0  0
258157  1  0  0  0  0
259157  1  0  0  0  0
262160  1  0  0  0  0
263161  1  0  0  0  0
268168  1  0  0  0  0
270170  1  0  0  0  0
272171  1  0  0  0  0
273171  1  0  0  0  0
276174  1  0  0  0  0
278174  1  0  0  0  0
M  END
