SCF done       -509.698544047426          0.000628441909
 OpenBabel12282109573D

314346  0  0  0  0  0  0  0  0999 V2000
    2.5389   -4.3711    2.6929 C   0  0  0  0  0  0  0  0  0  0  0  0
    1.6543   -4.0120    3.7256 C   0  0  0  0  0  0  0  0  0  0  0  0
    2.1494   -3.4391    4.9186 C   0  0  0  0  0  0  0  0  0  0  0  0
    3.5009   -3.1941    5.1487 C   0  0  0  0  0  0  0  0  0  0  0  0
    4.3891   -3.5899    4.1309 C   0  0  0  0  0  0  0  0  0  0  0  0
    3.8920   -4.1748    2.9407 C   0  0  0  0  0  0  0  0  0  0  0  0
    0.2356   -4.1572    3.7598 C   0  0  0  0  0  0  0  0  0  0  0  0
   -0.3137   -3.6912    4.8988 C   0  0  0  0  0  0  0  0  0  0  0  0
    0.8462   -3.0553    6.0140 S   0  0  0  0  0  0  0  0  0  0  0  0
    5.8032   -3.5000    4.1194 C   0  0  0  0  0  0  0  0  0  0  0  0
    6.3758   -3.9678    2.9742 C   0  0  0  0  0  0  0  0  0  0  0  0
    5.1836   -4.5608    1.8351 S   0  0  0  0  0  0  0  0  0  0  0  0
    2.0491   -4.8900    1.4302 C   0  0  0  0  0  0  0  0  0  0  0  0
    3.9492   -2.5541    6.3689 C   0  0  0  0  0  0  0  0  0  0  0  0
    1.0038   -4.4296    0.6813 C   0  0  0  0  0  0  0  0  0  0  0  0
    0.8072   -5.1584   -0.5091 C   0  0  0  0  0  0  0  0  0  0  0  0
    1.6902   -6.1809   -0.6689 C   0  0  0  0  0  0  0  0  0  0  0  0
    2.8045   -6.2539    0.6570 S   0  0  0  0  0  0  0  0  0  0  0  0
    3.4933   -2.7521    7.6418 C   0  0  0  0  0  0  0  0  0  0  0  0
    4.1275   -1.9330    8.5969 C   0  0  0  0  0  0  0  0  0  0  0  0
    5.0536   -1.0920    8.0620 C   0  0  0  0  0  0  0  0  0  0  0  0
    5.1721   -1.3126    6.3476 S   0  0  0  0  0  0  0  0  0  0  0  0
    1.8128   -7.1350   -1.8066 C   0  0  0  0  0  0  0  0  0  0  0  0
    3.0315   -6.8067   -2.6715 C   0  0  0  0  0  0  0  0  0  0  0  0
    5.9360   -0.1129    8.7565 C   0  0  0  0  0  0  0  0  0  0  0  0
    7.3951   -0.5730    8.7415 C   0  0  0  0  0  0  0  0  0  0  0  0
    7.7607   -4.0124    2.6494 C   0  0  0  0  0  0  0  0  0  0  0  0
    8.9450   -3.3071    3.7060 S   0  0  0  0  0  0  0  0  0  0  0  0
   10.2468   -3.7675    2.6344 C   0  0  0  0  0  0  0  0  0  0  0  0
    9.7502   -4.4274    1.5342 C   0  0  0  0  0  0  0  0  0  0  0  0
    8.3598   -4.5597    1.5388 C   0  0  0  0  0  0  0  0  0  0  0  0
   11.6026   -3.4184    2.9620 C   0  0  0  0  0  0  0  0  0  0  0  0
   11.8715   -2.4925    3.9602 C   0  0  0  0  0  0  0  0  0  0  0  0
   13.1608   -2.0944    4.2801 C   0  0  0  0  0  0  0  0  0  0  0  0
   14.2745   -2.6338    3.6560 C   0  0  0  0  0  0  0  0  0  0  0  0
   14.0461   -3.6204    2.6530 C   0  0  0  0  0  0  0  0  0  0  0  0
   12.7206   -3.9782    2.2748 C   0  0  0  0  0  0  0  0  0  0  0  0
   15.0851   -4.2290    2.0647 N   0  0  0  0  0  0  0  0  0  0  0  0
   14.8916   -5.1009    1.1034 C   0  0  0  0  0  0  0  0  0  0  0  0
   13.5697   -5.3361    0.6182 C   0  0  0  0  0  0  0  0  0  0  0  0
   12.5398   -4.8117    1.2388 N   0  0  0  0  0  0  0  0  0  0  0  0
   15.6028   -2.1916    3.9884 C   0  0  0  0  0  0  0  0  0  0  0  0
   13.2793   -6.1152   -0.5909 C   0  0  0  0  0  0  0  0  0  0  0  0
   16.0913   -5.7939    0.6221 C   0  0  0  0  0  0  0  0  0  0  0  0
   12.1719   -6.9625   -0.6162 C   0  0  0  0  0  0  0  0  0  0  0  0
   11.8917   -7.6841   -1.7578 C   0  0  0  0  0  0  0  0  0  0  0  0
   12.6882   -7.5722   -2.8868 C   0  0  0  0  0  0  0  0  0  0  0  0
   13.7843   -6.7143   -2.8758 C   0  0  0  0  0  0  0  0  0  0  0  0
   14.0714   -5.9870   -1.7219 C   0  0  0  0  0  0  0  0  0  0  0  0
   17.2856   -5.0757    0.5878 C   0  0  0  0  0  0  0  0  0  0  0  0
   18.4648   -5.6918    0.1939 C   0  0  0  0  0  0  0  0  0  0  0  0
   18.4356   -7.0380   -0.1800 C   0  0  0  0  0  0  0  0  0  0  0  0
   17.2532   -7.7476   -0.1323 C   0  0  0  0  0  0  0  0  0  0  0  0
   16.0773   -7.1396    0.2731 C   0  0  0  0  0  0  0  0  0  0  0  0
   15.8377   -0.6344    4.7427 S   0  0  0  0  0  0  0  0  0  0  0  0
   17.9095   -2.0577    4.2000 C   0  0  0  0  0  0  0  0  0  0  0  0
   16.8116   -2.8131    3.7811 C   0  0  0  0  0  0  0  0  0  0  0  0
   19.6768   -5.0827    0.1460 O   0  0  0  0  0  0  0  0  0  0  0  0
   19.7851   -3.7459    0.5988 C   0  0  0  0  0  0  0  0  0  0  0  0
   21.2533   -3.3546    0.5462 C   0  0  0  0  0  0  0  0  0  0  0  0
   14.6288   -6.5106   -3.9193 O   0  0  0  0  0  0  0  0  0  0  0  0
   14.4190   -7.2201   -5.1242 C   0  0  0  0  0  0  0  0  0  0  0  0
   15.5141   -6.8096   -6.0959 C   0  0  0  0  0  0  0  0  0  0  0  0
   17.5638   -0.8382    4.7343 C   0  0  0  0  0  0  0  0  0  0  0  0
   19.1803    3.5319    6.5660 C   0  0  0  0  0  0  0  0  0  0  0  0
   19.1933    2.2267    6.0352 C   0  0  0  0  0  0  0  0  0  0  0  0
   20.4235    1.5924    5.7384 C   0  0  0  0  0  0  0  0  0  0  0  0
   21.6625    2.1913    5.9374 C   0  0  0  0  0  0  0  0  0  0  0  0
   21.6457    3.5193    6.4090 C   0  0  0  0  0  0  0  0  0  0  0  0
   20.4145    4.1548    6.7033 C   0  0  0  0  0  0  0  0  0  0  0  0
   18.0833    1.4116    5.7046 C   0  0  0  0  0  0  0  0  0  0  0  0
   18.4266    0.1903    5.2047 C   0  0  0  0  0  0  0  0  0  0  0  0
   20.1661   -0.0180    5.1187 S   0  0  0  0  0  0  0  0  0  0  0  0
   22.7459    4.3863    6.6130 C   0  0  0  0  0  0  0  0  0  0  0  0
   22.3951    5.6256    7.0618 C   0  0  0  0  0  0  0  0  0  0  0  0
   20.6627    5.7847    7.2701 S   0  0  0  0  0  0  0  0  0  0  0  0
   17.9370    4.1662    6.9538 C   0  0  0  0  0  0  0  0  0  0  0  0
   22.8949    1.4751    5.6770 C   0  0  0  0  0  0  0  0  0  0  0  0
   16.8843    3.6105    7.6252 C   0  0  0  0  0  0  0  0  0  0  0  0
   15.8284    4.5150    7.8536 C   0  0  0  0  0  0  0  0  0  0  0  0
   16.0622    5.7576    7.3508 C   0  0  0  0  0  0  0  0  0  0  0  0
   17.6181    5.8387    6.5911 S   0  0  0  0  0  0  0  0  0  0  0  0
   23.1745    0.6147    4.6529 C   0  0  0  0  0  0  0  0  0  0  0  0
   24.4651    0.0549    4.7290 C   0  0  0  0  0  0  0  0  0  0  0  0
   25.1722    0.4664    5.8161 C   0  0  0  0  0  0  0  0  0  0  0  0
   24.2486    1.5795    6.7696 S   0  0  0  0  0  0  0  0  0  0  0  0
   15.1978    6.9688    7.4240 C   0  0  0  0  0  0  0  0  0  0  0  0
   15.7738    8.0013    8.3951 C   0  0  0  0  0  0  0  0  0  0  0  0
   26.5668    0.1184    6.2079 C   0  0  0  0  0  0  0  0  0  0  0  0
   27.5136    1.3017    5.9970 C   0  0  0  0  0  0  0  0  0  0  0  0
   23.2489    6.7359    7.3105 C   0  0  0  0  0  0  0  0  0  0  0  0
   24.9717    6.5941    7.1357 S   0  0  0  0  0  0  0  0  0  0  0  0
   25.1960    8.2856    7.5106 C   0  0  0  0  0  0  0  0  0  0  0  0
   23.9859    8.8861    7.7674 C   0  0  0  0  0  0  0  0  0  0  0  0
   22.8964    8.0185    7.6615 C   0  0  0  0  0  0  0  0  0  0  0  0
   26.5177    8.8531    7.4936 C   0  0  0  0  0  0  0  0  0  0  0  0
   27.6408    8.0424    7.5644 C   0  0  0  0  0  0  0  0  0  0  0  0
   28.9315    8.5522    7.5236 C   0  0  0  0  0  0  0  0  0  0  0  0
   29.1796    9.9028    7.3446 C   0  0  0  0  0  0  0  0  0  0  0  0
   28.0534   10.7703    7.2560 C   0  0  0  0  0  0  0  0  0  0  0  0
   26.7317   10.2591    7.3867 C   0  0  0  0  0  0  0  0  0  0  0  0
   28.2342   12.0785    7.0307 N   0  0  0  0  0  0  0  0  0  0  0  0
   27.2101   12.8989    7.0026 C   0  0  0  0  0  0  0  0  0  0  0  0
   25.9053   12.4079    7.3140 C   0  0  0  0  0  0  0  0  0  0  0  0
   25.7028   11.1182    7.4434 N   0  0  0  0  0  0  0  0  0  0  0  0
   30.5223   10.4140    7.2439 C   0  0  0  0  0  0  0  0  0  0  0  0
   24.7465   13.2762    7.5520 C   0  0  0  0  0  0  0  0  0  0  0  0
   27.5146   14.2786    6.6110 C   0  0  0  0  0  0  0  0  0  0  0  0
   23.4919   12.8963    7.0760 C   0  0  0  0  0  0  0  0  0  0  0  0
   22.3994   13.7036    7.3151 C   0  0  0  0  0  0  0  0  0  0  0  0
   22.5264   14.8825    8.0333 C   0  0  0  0  0  0  0  0  0  0  0  0
   23.7718   15.2587    8.5283 C   0  0  0  0  0  0  0  0  0  0  0  0
   24.8784   14.4474    8.2829 C   0  0  0  0  0  0  0  0  0  0  0  0
   28.7652   14.7875    6.9600 C   0  0  0  0  0  0  0  0  0  0  0  0
   29.1386   16.0648    6.5683 C   0  0  0  0  0  0  0  0  0  0  0  0
   28.2376   16.8410    5.8342 C   0  0  0  0  0  0  0  0  0  0  0  0
   27.0066   16.3280    5.4800 C   0  0  0  0  0  0  0  0  0  0  0  0
   26.6373   15.0472    5.8540 C   0  0  0  0  0  0  0  0  0  0  0  0
   31.8488    9.5587    7.9866 S   0  0  0  0  0  0  0  0  0  0  0  0
   32.3558   11.7211    6.6900 C   0  0  0  0  0  0  0  0  0  0  0  0
   30.9731   11.5404    6.5988 C   0  0  0  0  0  0  0  0  0  0  0  0
   30.3398   16.6360    6.8395 O   0  0  0  0  0  0  0  0  0  0  0  0
   31.3291   15.8616    7.4916 C   0  0  0  0  0  0  0  0  0  0  0  0
   32.6034   16.6888    7.5501 C   0  0  0  0  0  0  0  0  0  0  0  0
   24.0185   16.3794    9.2542 O   0  0  0  0  0  0  0  0  0  0  0  0
   22.9525   17.2633    9.5396 C   0  0  0  0  0  0  0  0  0  0  0  0
   23.5180   18.4209   10.3473 C   0  0  0  0  0  0  0  0  0  0  0  0
   32.9885   10.7435    7.4212 C   0  0  0  0  0  0  0  0  0  0  0  0
   37.3065    9.2537    9.4795 C   0  0  0  0  0  0  0  0  0  0  0  0
   36.3899    9.9607    8.6767 C   0  0  0  0  0  0  0  0  0  0  0  0
   36.8430   11.0022    7.8320 C   0  0  0  0  0  0  0  0  0  0  0  0
   38.1793   11.3680    7.7140 C   0  0  0  0  0  0  0  0  0  0  0  0
   39.0898   10.6836    8.5429 C   0  0  0  0  0  0  0  0  0  0  0  0
   38.6321    9.6647    9.4139 C   0  0  0  0  0  0  0  0  0  0  0  0
   34.9857    9.7876    8.5977 C   0  0  0  0  0  0  0  0  0  0  0  0
   34.3751   10.6392    7.7258 C   0  0  0  0  0  0  0  0  0  0  0  0
   35.5200   11.7176    6.9493 S   0  0  0  0  0  0  0  0  0  0  0  0
   40.4845   10.8921    8.6656 C   0  0  0  0  0  0  0  0  0  0  0  0
   41.0867   10.0717    9.5733 C   0  0  0  0  0  0  0  0  0  0  0  0
   39.9459    8.9818   10.3351 S   0  0  0  0  0  0  0  0  0  0  0  0
   36.8750    8.1487   10.3123 C   0  0  0  0  0  0  0  0  0  0  0  0
   38.5982   12.3832    6.7685 C   0  0  0  0  0  0  0  0  0  0  0  0
   36.0185    7.1340    9.9914 C   0  0  0  0  0  0  0  0  0  0  0  0
   35.8246    6.2150   11.0422 C   0  0  0  0  0  0  0  0  0  0  0  0
   36.5191    6.5273   12.1696 C   0  0  0  0  0  0  0  0  0  0  0  0
   37.4507    7.9720   11.9458 S   0  0  0  0  0  0  0  0  0  0  0  0
   37.9736   13.5571    6.4542 C   0  0  0  0  0  0  0  0  0  0  0  0
   38.6311   14.2876    5.4445 C   0  0  0  0  0  0  0  0  0  0  0  0
   39.7466   13.6717    4.9676 C   0  0  0  0  0  0  0  0  0  0  0  0
   40.0173   12.1660    5.7805 S   0  0  0  0  0  0  0  0  0  0  0  0
   36.5821    5.7858   13.4601 C   0  0  0  0  0  0  0  0  0  0  0  0
   37.9552    5.1426   13.6626 C   0  0  0  0  0  0  0  0  0  0  0  0
   40.7048   14.1485    3.9313 C   0  0  0  0  0  0  0  0  0  0  0  0
   42.0366   14.5668    4.5578 C   0  0  0  0  0  0  0  0  0  0  0  0
   42.4625   10.0418    9.9356 C   0  0  0  0  0  0  0  0  0  0  0  0
   43.6329   10.9735    9.0518 S   0  0  0  0  0  0  0  0  0  0  0  0
   44.9265   10.4162   10.0837 C   0  0  0  0  0  0  0  0  0  0  0  0
   44.4411    9.5590   11.0431 C   0  0  0  0  0  0  0  0  0  0  0  0
   43.0635    9.3423   10.9557 C   0  0  0  0  0  0  0  0  0  0  0  0
   46.2763   10.8510    9.8390 C   0  0  0  0  0  0  0  0  0  0  0  0
   46.6403   11.3810    8.6112 C   0  0  0  0  0  0  0  0  0  0  0  0
   47.9398   11.7795    8.3323 C   0  0  0  0  0  0  0  0  0  0  0  0
   48.9564   11.7087    9.2714 C   0  0  0  0  0  0  0  0  0  0  0  0
   48.6147   11.2083   10.5621 C   0  0  0  0  0  0  0  0  0  0  0  0
   47.2924   10.7533   10.8338 C   0  0  0  0  0  0  0  0  0  0  0  0
   49.5275   11.1935   11.5457 N   0  0  0  0  0  0  0  0  0  0  0  0
   49.2185   10.7314   12.7337 C   0  0  0  0  0  0  0  0  0  0  0  0
   47.9316   10.1586   12.9644 C   0  0  0  0  0  0  0  0  0  0  0  0
   47.0119   10.2174   12.0314 N   0  0  0  0  0  0  0  0  0  0  0  0
   50.2943   12.1335    8.9417 C   0  0  0  0  0  0  0  0  0  0  0  0
   47.5594    9.4714   14.2064 C   0  0  0  0  0  0  0  0  0  0  0  0
   50.2471   10.8805   13.7704 C   0  0  0  0  0  0  0  0  0  0  0  0
   46.2701    9.6359   14.7134 C   0  0  0  0  0  0  0  0  0  0  0  0
   45.9098    8.9977   15.8816 C   0  0  0  0  0  0  0  0  0  0  0  0
   46.8080    8.1868   16.5578 C   0  0  0  0  0  0  0  0  0  0  0  0
   48.0892    8.0003   16.0470 C   0  0  0  0  0  0  0  0  0  0  0  0
   48.4554    8.6437   14.8658 C   0  0  0  0  0  0  0  0  0  0  0  0
   51.5759   10.6542   13.4178 C   0  0  0  0  0  0  0  0  0  0  0  0
   52.5860   10.8175   14.3557 C   0  0  0  0  0  0  0  0  0  0  0  0
   52.2524   11.2129   15.6535 C   0  0  0  0  0  0  0  0  0  0  0  0
   50.9366   11.4540   15.9911 C   0  0  0  0  0  0  0  0  0  0  0  0
   49.9266   11.2936   15.0584 C   0  0  0  0  0  0  0  0  0  0  0  0
   50.7327   12.4182    7.2728 S   0  0  0  0  0  0  0  0  0  0  0  0
   52.5201   12.7864    9.0647 C   0  0  0  0  0  0  0  0  0  0  0  0
   51.3663   12.3806    9.7600 C   0  0  0  0  0  0  0  0  0  0  0  0
   53.9079   10.6245   14.1132 O   0  0  0  0  0  0  0  0  0  0  0  0
   54.3186   10.2697   12.8067 C   0  0  0  0  0  0  0  0  0  0  0  0
   55.8359   10.1728   12.8099 C   0  0  0  0  0  0  0  0  0  0  0  0
   49.0500    7.2234   16.6109 O   0  0  0  0  0  0  0  0  0  0  0  0
   48.7751    6.5699   17.8343 C   0  0  0  0  0  0  0  0  0  0  0  0
   50.0310    5.8190   18.2477 C   0  0  0  0  0  0  0  0  0  0  0  0
   52.3316   12.8465    7.7199 C   0  0  0  0  0  0  0  0  0  0  0  0
   -0.3306   -4.6110    2.9673 H   0  0  0  0  0  0  0  0  0  0  0  0
   -1.3491   -3.6840    5.1784 H   0  0  0  0  0  0  0  0  0  0  0  0
    6.3905   -3.1164    4.9335 H   0  0  0  0  0  0  0  0  0  0  0  0
    0.4202   -3.5683    0.9545 H   0  0  0  0  0  0  0  0  0  0  0  0
    0.0343   -4.9297   -1.2218 H   0  0  0  0  0  0  0  0  0  0  0  0
    2.7525   -3.4888    7.8947 H   0  0  0  0  0  0  0  0  0  0  0  0
    3.8986   -1.9655    9.6475 H   0  0  0  0  0  0  0  0  0  0  0  0
    0.9051   -7.0806   -2.4116 H   0  0  0  0  0  0  0  0  0  0  0  0
    1.9096   -8.1541   -1.4239 H   0  0  0  0  0  0  0  0  0  0  0  0
    2.9475   -5.8007   -3.0765 H   0  0  0  0  0  0  0  0  0  0  0  0
    3.1097   -7.5097   -3.4971 H   0  0  0  0  0  0  0  0  0  0  0  0
    3.9400   -6.8639   -2.0763 H   0  0  0  0  0  0  0  0  0  0  0  0
    5.5935   -0.0029    9.7877 H   0  0  0  0  0  0  0  0  0  0  0  0
    5.8634    0.8614    8.2660 H   0  0  0  0  0  0  0  0  0  0  0  0
    7.4930   -1.5376    9.2348 H   0  0  0  0  0  0  0  0  0  0  0  0
    8.0237    0.1479    9.2582 H   0  0  0  0  0  0  0  0  0  0  0  0
    7.7475   -0.6718    7.7171 H   0  0  0  0  0  0  0  0  0  0  0  0
   10.3894   -4.7866    0.7499 H   0  0  0  0  0  0  0  0  0  0  0  0
    7.7959   -5.0409    0.7588 H   0  0  0  0  0  0  0  0  0  0  0  0
   11.0429   -2.0494    4.4939 H   0  0  0  0  0  0  0  0  0  0  0  0
   13.3035   -1.3470    5.0475 H   0  0  0  0  0  0  0  0  0  0  0  0
   11.5553   -7.0526    0.2644 H   0  0  0  0  0  0  0  0  0  0  0  0
   11.0395   -8.3474   -1.7789 H   0  0  0  0  0  0  0  0  0  0  0  0
   12.4431   -8.1503   -3.7637 H   0  0  0  0  0  0  0  0  0  0  0  0
   14.9170   -5.3177   -1.7385 H   0  0  0  0  0  0  0  0  0  0  0  0
   17.2559   -4.0360    0.8711 H   0  0  0  0  0  0  0  0  0  0  0  0
   19.3566   -7.5040   -0.4928 H   0  0  0  0  0  0  0  0  0  0  0  0
   17.2474   -8.7919   -0.4068 H   0  0  0  0  0  0  0  0  0  0  0  0
   15.1630   -7.7091    0.3354 H   0  0  0  0  0  0  0  0  0  0  0  0
   18.9338   -2.3784    4.1192 H   0  0  0  0  0  0  0  0  0  0  0  0
   16.8810   -3.7911    3.3437 H   0  0  0  0  0  0  0  0  0  0  0  0
   19.4078   -3.6656    1.6273 H   0  0  0  0  0  0  0  0  0  0  0  0
   19.1920   -3.0805   -0.0438 H   0  0  0  0  0  0  0  0  0  0  0  0
   21.8367   -4.0174    1.1796 H   0  0  0  0  0  0  0  0  0  0  0  0
   21.3739   -2.3320    0.8924 H   0  0  0  0  0  0  0  0  0  0  0  0
   21.6240   -3.4341   -0.4721 H   0  0  0  0  0  0  0  0  0  0  0  0
   13.4311   -6.9758   -5.5398 H   0  0  0  0  0  0  0  0  0  0  0  0
   14.4643   -8.3023   -4.9377 H   0  0  0  0  0  0  0  0  0  0  0  0
   15.4667   -5.7393   -6.2764 H   0  0  0  0  0  0  0  0  0  0  0  0
   15.3911   -7.3372   -7.0374 H   0  0  0  0  0  0  0  0  0  0  0  0
   16.4881   -7.0464   -5.6766 H   0  0  0  0  0  0  0  0  0  0  0  0
   17.0601    1.7272    5.8003 H   0  0  0  0  0  0  0  0  0  0  0  0
   23.7681    4.1223    6.4119 H   0  0  0  0  0  0  0  0  0  0  0  0
   16.8848    2.5961    7.9826 H   0  0  0  0  0  0  0  0  0  0  0  0
   14.9245    4.2494    8.3731 H   0  0  0  0  0  0  0  0  0  0  0  0
   22.4913    0.4154    3.8472 H   0  0  0  0  0  0  0  0  0  0  0  0
   24.8537   -0.6347    4.0004 H   0  0  0  0  0  0  0  0  0  0  0  0
   14.2000    6.6694    7.7518 H   0  0  0  0  0  0  0  0  0  0  0  0
   15.1117    7.4199    6.4323 H   0  0  0  0  0  0  0  0  0  0  0  0
   15.8526    7.5783    9.3941 H   0  0  0  0  0  0  0  0  0  0  0  0
   15.1334    8.8789    8.4374 H   0  0  0  0  0  0  0  0  0  0  0  0
   16.7660    8.3077    8.0713 H   0  0  0  0  0  0  0  0  0  0  0  0
   26.8981   -0.7315    5.6075 H   0  0  0  0  0  0  0  0  0  0  0  0
   26.5913   -0.1754    7.2605 H   0  0  0  0  0  0  0  0  0  0  0  0
   27.5128    1.6051    4.9524 H   0  0  0  0  0  0  0  0  0  0  0  0
   28.5274    1.0296    6.2800 H   0  0  0  0  0  0  0  0  0  0  0  0
   27.1979    2.1484    6.6026 H   0  0  0  0  0  0  0  0  0  0  0  0
   23.9095    9.9250    8.0271 H   0  0  0  0  0  0  0  0  0  0  0  0
   21.8734    8.3098    7.8243 H   0  0  0  0  0  0  0  0  0  0  0  0
   27.5046    6.9749    7.6633 H   0  0  0  0  0  0  0  0  0  0  0  0
   29.7682    7.8730    7.6033 H   0  0  0  0  0  0  0  0  0  0  0  0
   23.3950   11.9804    6.5146 H   0  0  0  0  0  0  0  0  0  0  0  0
   21.4274   13.4176    6.9409 H   0  0  0  0  0  0  0  0  0  0  0  0
   21.6530   15.4920    8.2035 H   0  0  0  0  0  0  0  0  0  0  0  0
   25.8325   14.7499    8.6846 H   0  0  0  0  0  0  0  0  0  0  0  0
   29.4201   14.1564    7.5385 H   0  0  0  0  0  0  0  0  0  0  0  0
   28.5343   17.8367    5.5448 H   0  0  0  0  0  0  0  0  0  0  0  0
   26.3266   16.9307    4.8966 H   0  0  0  0  0  0  0  0  0  0  0  0
   25.6858   14.6437    5.5447 H   0  0  0  0  0  0  0  0  0  0  0  0
   32.8919   12.5394    6.2413 H   0  0  0  0  0  0  0  0  0  0  0  0
   30.3111   12.1983    6.0679 H   0  0  0  0  0  0  0  0  0  0  0  0
   31.5062   14.9315    6.9348 H   0  0  0  0  0  0  0  0  0  0  0  0
   30.9975   15.6027    8.5068 H   0  0  0  0  0  0  0  0  0  0  0  0
   32.9260   16.9451    6.5446 H   0  0  0  0  0  0  0  0  0  0  0  0
   33.3878   16.1218    8.0435 H   0  0  0  0  0  0  0  0  0  0  0  0
   32.4256   17.6082    8.1012 H   0  0  0  0  0  0  0  0  0  0  0  0
   22.1740   16.7433   10.1156 H   0  0  0  0  0  0  0  0  0  0  0  0
   22.5094   17.6346    8.6048 H   0  0  0  0  0  0  0  0  0  0  0  0
   23.9551   18.0498   11.2701 H   0  0  0  0  0  0  0  0  0  0  0  0
   22.7284   19.1282   10.5842 H   0  0  0  0  0  0  0  0  0  0  0  0
   24.2926   18.9258    9.7768 H   0  0  0  0  0  0  0  0  0  0  0  0
   34.4364    9.0770    9.1884 H   0  0  0  0  0  0  0  0  0  0  0  0
   41.0339   11.6374    8.1200 H   0  0  0  0  0  0  0  0  0  0  0  0
   35.5742    7.0250    9.0180 H   0  0  0  0  0  0  0  0  0  0  0  0
   35.1879    5.3514   10.9620 H   0  0  0  0  0  0  0  0  0  0  0  0
   37.0894   13.9070    6.9556 H   0  0  0  0  0  0  0  0  0  0  0  0
   38.2825   15.2382    5.0810 H   0  0  0  0  0  0  0  0  0  0  0  0
   35.8080    5.0153   13.4606 H   0  0  0  0  0  0  0  0  0  0  0  0
   36.3830    6.4710   14.2882 H   0  0  0  0  0  0  0  0  0  0  0  0
   38.1691    4.4455   12.8555 H   0  0  0  0  0  0  0  0  0  0  0  0
   37.9842    4.6031   14.6060 H   0  0  0  0  0  0  0  0  0  0  0  0
   38.7297    5.9062   13.6726 H   0  0  0  0  0  0  0  0  0  0  0  0
   40.2604   14.9969    3.4066 H   0  0  0  0  0  0  0  0  0  0  0  0
   40.8866   13.3530    3.2040 H   0  0  0  0  0  0  0  0  0  0  0  0
   41.8807   15.3658    5.2793 H   0  0  0  0  0  0  0  0  0  0  0  0
   42.7208   14.9193    3.7900 H   0  0  0  0  0  0  0  0  0  0  0  0
   42.4928   13.7228    5.0704 H   0  0  0  0  0  0  0  0  0  0  0  0
   45.0784    9.1030   11.7770 H   0  0  0  0  0  0  0  0  0  0  0  0
   42.5097    8.6993   11.6173 H   0  0  0  0  0  0  0  0  0  0  0  0
   45.8898   11.4705    7.8389 H   0  0  0  0  0  0  0  0  0  0  0  0
   48.1644   12.1657    7.3483 H   0  0  0  0  0  0  0  0  0  0  0  0
   45.5747   10.2708   14.1873 H   0  0  0  0  0  0  0  0  0  0  0  0
   44.9148    9.1283   16.2810 H   0  0  0  0  0  0  0  0  0  0  0  0
   46.4976    7.7045   17.4712 H   0  0  0  0  0  0  0  0  0  0  0  0
   49.4475    8.4717   14.4795 H   0  0  0  0  0  0  0  0  0  0  0  0
   51.7849   10.3431   12.4067 H   0  0  0  0  0  0  0  0  0  0  0  0
   53.0467   11.3308   16.3733 H   0  0  0  0  0  0  0  0  0  0  0  0
   50.6934   11.7740   16.9932 H   0  0  0  0  0  0  0  0  0  0  0  0
   48.9013   11.5027   15.3222 H   0  0  0  0  0  0  0  0  0  0  0  0
   53.4529   13.0265    9.5442 H   0  0  0  0  0  0  0  0  0  0  0  0
   51.3054   12.2825   10.8272 H   0  0  0  0  0  0  0  0  0  0  0  0
   53.9880   11.0318   12.0876 H   0  0  0  0  0  0  0  0  0  0  0  0
   53.8777    9.3045   12.5211 H   0  0  0  0  0  0  0  0  0  0  0  0
   56.2686   11.1284   13.0929 H   0  0  0  0  0  0  0  0  0  0  0  0
   56.1908    9.8980   11.8208 H   0  0  0  0  0  0  0  0  0  0  0  0
   56.1576    9.4222   13.5266 H   0  0  0  0  0  0  0  0  0  0  0  0
   47.9376    5.8691   17.7091 H   0  0  0  0  0  0  0  0  0  0  0  0
   48.5048    7.3074   18.6030 H   0  0  0  0  0  0  0  0  0  0  0  0
   50.2955    5.0915   17.4854 H   0  0  0  0  0  0  0  0  0  0  0  0
   49.8620    5.3053   19.1897 H   0  0  0  0  0  0  0  0  0  0  0  0
   50.8571    6.5155   18.3621 H   0  0  0  0  0  0  0  0  0  0  0  0
   53.0333   13.1216    6.9575 H   0  0  0  0  0  0  0  0  0  0  0  0
  1  6  2  0  0  0  0
  1  2  1  0  0  0  0
  2  7  1  0  0  0  0
  2  3  2  0  0  0  0
  3  4  1  0  0  0  0
  3  9  1  0  0  0  0
  4 14  1  0  0  0  0
  5  4  2  0  0  0  0
  6  5  1  0  0  0  0
  7  8  2  0  0  0  0
  8194  1  0  0  0  0
  8  9  1  0  0  0  0
 10  5  1  0  0  0  0
 10195  1  0  0  0  0
 11 10  2  0  0  0  0
 12  6  1  0  0  0  0
 12 11  1  0  0  0  0
 13  1  1  0  0  0  0
 14 19  2  0  0  0  0
 15196  1  0  0  0  0
 15 13  2  0  0  0  0
 16 15  1  0  0  0  0
 17 16  2  0  0  0  0
 17 18  1  0  0  0  0
 18 13  1  0  0  0  0
 19198  1  0  0  0  0
 19 20  1  0  0  0  0
 20199  1  0  0  0  0
 21 20  2  0  0  0  0
 21 25  1  0  0  0  0
 22 14  1  0  0  0  0
 22 21  1  0  0  0  0
 23201  1  0  0  0  0
 23 17  1  0  0  0  0
 24204  1  0  0  0  0
 24 23  1  0  0  0  0
 25205  1  0  0  0  0
 26 25  1  0  0  0  0
 26207  1  0  0  0  0
 26208  1  0  0  0  0
 27 11  1  0  0  0  0
 27 28  1  0  0  0  0
 29 32  1  0  0  0  0
 29 28  1  0  0  0  0
 30 31  1  0  0  0  0
 30 29  2  0  0  0  0
 31 27  2  0  0  0  0
 32 33  2  0  0  0  0
 33 34  1  0  0  0  0
 33212  1  0  0  0  0
 34213  1  0  0  0  0
 35 42  1  0  0  0  0
 35 34  2  0  0  0  0
 36 35  1  0  0  0  0
 37 36  1  0  0  0  0
 37 32  1  0  0  0  0
 38 36  2  0  0  0  0
 39 38  1  0  0  0  0
 40 39  2  0  0  0  0
 40 41  1  0  0  0  0
 41 37  2  0  0  0  0
 42 55  1  0  0  0  0
 43 40  1  0  0  0  0
 44 39  1  0  0  0  0
 45 43  1  0  0  0  0
 45214  1  0  0  0  0
 46 45  2  0  0  0  0
 47 48  2  0  0  0  0
 47 46  1  0  0  0  0
 48 49  1  0  0  0  0
 49 43  2  0  0  0  0
 50 44  1  0  0  0  0
 50218  1  0  0  0  0
 51 50  2  0  0  0  0
 52 53  2  0  0  0  0
 52 51  1  0  0  0  0
 53 54  1  0  0  0  0
 54221  1  0  0  0  0
 54 44  2  0  0  0  0
 56 64  2  0  0  0  0
 57 42  2  0  0  0  0
 57 56  1  0  0  0  0
 58 51  1  0  0  0  0
 58 59  1  0  0  0  0
 59224  1  0  0  0  0
 60 59  1  0  0  0  0
 60227  1  0  0  0  0
 60226  1  0  0  0  0
 61 48  1  0  0  0  0
 62230  1  0  0  0  0
 62 61  1  0  0  0  0
 63233  1  0  0  0  0
 63 62  1  0  0  0  0
 64 55  1  0  0  0  0
 64 72  1  0  0  0  0
 65 70  1  0  0  0  0
 65 77  1  0  0  0  0
 66 65  2  0  0  0  0
 67 68  2  0  0  0  0
 67 66  1  0  0  0  0
 68 69  1  0  0  0  0
 69 74  1  0  0  0  0
 69 70  2  0  0  0  0
 70 76  1  0  0  0  0
 71234  1  0  0  0  0
 71 66  1  0  0  0  0
 72 71  2  0  0  0  0
 73 72  1  0  0  0  0
 73 67  1  0  0  0  0
 74 75  2  0  0  0  0
 75 76  1  0  0  0  0
 75 91  1  0  0  0  0
 77 79  2  0  0  0  0
 78 68  1  0  0  0  0
 78 86  1  0  0  0  0
 79 80  1  0  0  0  0
 79236  1  0  0  0  0
 80237  1  0  0  0  0
 81 87  1  0  0  0  0
 81 80  2  0  0  0  0
 82 77  1  0  0  0  0
 82 81  1  0  0  0  0
 83 84  1  0  0  0  0
 83 78  2  0  0  0  0
 84 85  2  0  0  0  0
 85 89  1  0  0  0  0
 85 86  1  0  0  0  0
 87240  1  0  0  0  0
 87 88  1  0  0  0  0
 88243  1  0  0  0  0
 88242  1  0  0  0  0
 89246  1  0  0  0  0
 90 89  1  0  0  0  0
 90248  1  0  0  0  0
 90249  1  0  0  0  0
 91 95  2  0  0  0  0
 92 91  1  0  0  0  0
 92 93  1  0  0  0  0
 93 94  2  0  0  0  0
 94250  1  0  0  0  0
 95 94  1  0  0  0  0
 95251  1  0  0  0  0
 96 93  1  0  0  0  0
 96 97  1  0  0  0  0
 97252  1  0  0  0  0
 98 97  2  0  0  0  0
 98253  1  0  0  0  0
 99 98  1  0  0  0  0
100 99  2  0  0  0  0
100101  1  0  0  0  0
101105  1  0  0  0  0
101 96  2  0  0  0  0
102100  1  0  0  0  0
103102  2  0  0  0  0
103104  1  0  0  0  0
104105  2  0  0  0  0
104107  1  0  0  0  0
106 99  1  0  0  0  0
106119  1  0  0  0  0
107113  2  0  0  0  0
108114  1  0  0  0  0
108103  1  0  0  0  0
109110  2  0  0  0  0
109107  1  0  0  0  0
110111  1  0  0  0  0
111256  1  0  0  0  0
111112  2  0  0  0  0
112125  1  0  0  0  0
113112  1  0  0  0  0
113257  1  0  0  0  0
114258  1  0  0  0  0
115122  1  0  0  0  0
115114  2  0  0  0  0
116115  1  0  0  0  0
117116  2  0  0  0  0
117118  1  0  0  0  0
118108  2  0  0  0  0
120128  2  0  0  0  0
121120  1  0  0  0  0
121106  2  0  0  0  0
122123  1  0  0  0  0
123124  1  0  0  0  0
123265  1  0  0  0  0
124267  1  0  0  0  0
124268  1  0  0  0  0
125126  1  0  0  0  0
126269  1  0  0  0  0
126127  1  0  0  0  0
127272  1  0  0  0  0
127271  1  0  0  0  0
128136  1  0  0  0  0
128119  1  0  0  0  0
129141  1  0  0  0  0
130129  2  0  0  0  0
131130  1  0  0  0  0
132131  2  0  0  0  0
132133  1  0  0  0  0
133138  1  0  0  0  0
133134  2  0  0  0  0
134129  1  0  0  0  0
134140  1  0  0  0  0
135130  1  0  0  0  0
135274  1  0  0  0  0
136135  2  0  0  0  0
137136  1  0  0  0  0
137131  1  0  0  0  0
138139  2  0  0  0  0
139155  1  0  0  0  0
139140  1  0  0  0  0
141146  1  0  0  0  0
142132  1  0  0  0  0
143141  2  0  0  0  0
143144  1  0  0  0  0
144145  2  0  0  0  0
145151  1  0  0  0  0
146145  1  0  0  0  0
147142  2  0  0  0  0
147278  1  0  0  0  0
148147  1  0  0  0  0
149148  2  0  0  0  0
149150  1  0  0  0  0
150142  1  0  0  0  0
151280  1  0  0  0  0
151152  1  0  0  0  0
151281  1  0  0  0  0
152284  1  0  0  0  0
152283  1  0  0  0  0
153154  1  0  0  0  0
153149  1  0  0  0  0
154289  1  0  0  0  0
154287  1  0  0  0  0
155159  2  0  0  0  0
156155  1  0  0  0  0
156157  1  0  0  0  0
157158  2  0  0  0  0
158290  1  0  0  0  0
159158  1  0  0  0  0
159291  1  0  0  0  0
160157  1  0  0  0  0
160165  2  0  0  0  0
161160  1  0  0  0  0
162161  2  0  0  0  0
162163  1  0  0  0  0
163164  2  0  0  0  0
164165  1  0  0  0  0
164166  1  0  0  0  0
165169  1  0  0  0  0
166167  2  0  0  0  0
167168  1  0  0  0  0
167172  1  0  0  0  0
168171  1  0  0  0  0
169168  2  0  0  0  0
170163  1  0  0  0  0
170185  2  0  0  0  0
171173  2  0  0  0  0
171177  1  0  0  0  0
172182  1  0  0  0  0
173174  1  0  0  0  0
174295  1  0  0  0  0
174175  2  0  0  0  0
175296  1  0  0  0  0
176175  1  0  0  0  0
176189  1  0  0  0  0
177176  2  0  0  0  0
178172  2  0  0  0  0
178179  1  0  0  0  0
179180  2  0  0  0  0
180181  1  0  0  0  0
180299  1  0  0  0  0
181300  1  0  0  0  0
182301  1  0  0  0  0
182181  2  0  0  0  0
183192  1  0  0  0  0
183170  1  0  0  0  0
184302  1  0  0  0  0
184185  1  0  0  0  0
185303  1  0  0  0  0
186179  1  0  0  0  0
187188  1  0  0  0  0
187186  1  0  0  0  0
188306  1  0  0  0  0
188308  1  0  0  0  0
189190  1  0  0  0  0
190191  1  0  0  0  0
190310  1  0  0  0  0
191313  1  0  0  0  0
191312  1  0  0  0  0
192184  2  0  0  0  0
193  7  1  0  0  0  0
197 16  1  0  0  0  0
200 23  1  0  0  0  0
202 24  1  0  0  0  0
203 24  1  0  0  0  0
206 25  1  0  0  0  0
209 26  1  0  0  0  0
210 30  1  0  0  0  0
211 31  1  0  0  0  0
215 46  1  0  0  0  0
216 47  1  0  0  0  0
217 49  1  0  0  0  0
219 52  1  0  0  0  0
220 53  1  0  0  0  0
222 56  1  0  0  0  0
223 57  1  0  0  0  0
225 59  1  0  0  0  0
228 60  1  0  0  0  0
229 62  1  0  0  0  0
231 63  1  0  0  0  0
232 63  1  0  0  0  0
235 74  1  0  0  0  0
238 83  1  0  0  0  0
239 84  1  0  0  0  0
241 87  1  0  0  0  0
244 88  1  0  0  0  0
245 89  1  0  0  0  0
247 90  1  0  0  0  0
254109  1  0  0  0  0
255110  1  0  0  0  0
259116  1  0  0  0  0
260117  1  0  0  0  0
261118  1  0  0  0  0
262120  1  0  0  0  0
263121  1  0  0  0  0
264123  1  0  0  0  0
266124  1  0  0  0  0
270126  1  0  0  0  0
273127  1  0  0  0  0
275138  1  0  0  0  0
276143  1  0  0  0  0
277144  1  0  0  0  0
279148  1  0  0  0  0
282152  1  0  0  0  0
285153  1  0  0  0  0
286153  1  0  0  0  0
288154  1  0  0  0  0
292161  1  0  0  0  0
293162  1  0  0  0  0
294173  1  0  0  0  0
297177  1  0  0  0  0
298178  1  0  0  0  0
304187  1  0  0  0  0
305187  1  0  0  0  0
307188  1  0  0  0  0
309190  1  0  0  0  0
311191  1  0  0  0  0
314192  1  0  0  0  0
M  END
