SCF done       -560.381470601252          0.000325751726
 OpenBabel12282109573D

314346  0  0  0  0  0  0  0  0999 V2000
   25.0571  -12.3772    1.6891 C   0  0  0  0  0  0  0  0  0  0  0  0
   25.9448  -11.9667    2.7004 C   0  0  0  0  0  0  0  0  0  0  0  0
   26.3805  -10.6222    2.7591 C   0  0  0  0  0  0  0  0  0  0  0  0
   25.9684   -9.6409    1.8602 C   0  0  0  0  0  0  0  0  0  0  0  0
   25.1000  -10.0575    0.8336 C   0  0  0  0  0  0  0  0  0  0  0  0
   24.6704  -11.4059    0.7708 C   0  0  0  0  0  0  0  0  0  0  0  0
   26.5216  -12.7495    3.7437 C   0  0  0  0  0  0  0  0  0  0  0  0
   27.3208  -12.0334    4.5595 C   0  0  0  0  0  0  0  0  0  0  0  0
   27.4437  -10.3677    4.1170 S   0  0  0  0  0  0  0  0  0  0  0  0
   24.5615   -9.2849   -0.2249 C   0  0  0  0  0  0  0  0  0  0  0  0
   23.7264   -9.9815   -1.0470 C   0  0  0  0  0  0  0  0  0  0  0  0
   23.5739  -11.6580   -0.5607 S   0  0  0  0  0  0  0  0  0  0  0  0
   24.5433  -13.7302    1.5965 C   0  0  0  0  0  0  0  0  0  0  0  0
   26.4006   -8.2655    2.0020 C   0  0  0  0  0  0  0  0  0  0  0  0
   24.3407  -14.4713    0.4671 C   0  0  0  0  0  0  0  0  0  0  0  0
   23.7775  -15.7299    0.7531 C   0  0  0  0  0  0  0  0  0  0  0  0
   23.5229  -15.9726    2.0696 C   0  0  0  0  0  0  0  0  0  0  0  0
   24.0094  -14.6032    3.0079 S   0  0  0  0  0  0  0  0  0  0  0  0
   27.6328   -7.8058    2.3743 C   0  0  0  0  0  0  0  0  0  0  0  0
   27.6739   -6.4004    2.4446 C   0  0  0  0  0  0  0  0  0  0  0  0
   26.5030   -5.7641    2.1570 C   0  0  0  0  0  0  0  0  0  0  0  0
   25.2953   -6.9372    1.7662 S   0  0  0  0  0  0  0  0  0  0  0  0
   22.9645  -17.2035    2.6956 C   0  0  0  0  0  0  0  0  0  0  0  0
   24.0242  -17.9448    3.5124 C   0  0  0  0  0  0  0  0  0  0  0  0
   26.2264   -4.3017    2.1058 C   0  0  0  0  0  0  0  0  0  0  0  0
   25.9778   -3.8328    0.6710 C   0  0  0  0  0  0  0  0  0  0  0  0
   23.5063  -16.6277   -0.2127 F   0  0  0  0  0  0  0  0  0  0  0  0
   28.7954   -5.7348    2.7780 F   0  0  0  0  0  0  0  0  0  0  0  0
   23.0345   -9.4952   -2.1914 C   0  0  0  0  0  0  0  0  0  0  0  0
   23.2319   -7.8557   -2.7120 S   0  0  0  0  0  0  0  0  0  0  0  0
   22.1481   -8.1012   -4.0585 C   0  0  0  0  0  0  0  0  0  0  0  0
   21.6677   -9.3952   -4.0569 C   0  0  0  0  0  0  0  0  0  0  0  0
   22.1618  -10.1746   -3.0131 C   0  0  0  0  0  0  0  0  0  0  0  0
   21.8727   -7.0464   -4.9955 C   0  0  0  0  0  0  0  0  0  0  0  0
   22.2553   -5.7314   -4.7623 C   0  0  0  0  0  0  0  0  0  0  0  0
   22.0088   -4.6870   -5.6553 C   0  0  0  0  0  0  0  0  0  0  0  0
   21.4072   -4.8800   -6.8870 C   0  0  0  0  0  0  0  0  0  0  0  0
   21.0027   -6.2190   -7.1714 C   0  0  0  0  0  0  0  0  0  0  0  0
   21.1883   -7.2723   -6.2330 C   0  0  0  0  0  0  0  0  0  0  0  0
   20.4410   -6.4834   -8.3565 N   0  0  0  0  0  0  0  0  0  0  0  0
   20.0034   -7.6879   -8.6430 C   0  0  0  0  0  0  0  0  0  0  0  0
   20.0502   -8.7039   -7.6416 C   0  0  0  0  0  0  0  0  0  0  0  0
   20.6715   -8.4782   -6.5075 N   0  0  0  0  0  0  0  0  0  0  0  0
   22.8909   -5.4004   -3.6219 F   0  0  0  0  0  0  0  0  0  0  0  0
   22.4224   -3.4603   -5.2881 F   0  0  0  0  0  0  0  0  0  0  0  0
   21.1914   -3.8124   -7.8289 C   0  0  0  0  0  0  0  0  0  0  0  0
   19.3925  -10.0087   -7.7749 C   0  0  0  0  0  0  0  0  0  0  0  0
   19.5200   -7.8725  -10.0139 C   0  0  0  0  0  0  0  0  0  0  0  0
   20.0399  -11.1582   -7.3228 C   0  0  0  0  0  0  0  0  0  0  0  0
   19.4118  -12.3815   -7.4332 C   0  0  0  0  0  0  0  0  0  0  0  0
   18.1401  -12.4846   -7.9745 C   0  0  0  0  0  0  0  0  0  0  0  0
   17.4798  -11.3393   -8.4119 C   0  0  0  0  0  0  0  0  0  0  0  0
   18.1157  -10.1029   -8.3081 C   0  0  0  0  0  0  0  0  0  0  0  0
   18.9351   -6.7729  -10.6424 C   0  0  0  0  0  0  0  0  0  0  0  0
   18.5112   -6.8588  -11.9608 C   0  0  0  0  0  0  0  0  0  0  0  0
   18.6613   -8.0695  -12.6437 C   0  0  0  0  0  0  0  0  0  0  0  0
   19.2517   -9.1503  -12.0218 C   0  0  0  0  0  0  0  0  0  0  0  0
   19.6930   -9.0627  -10.7123 C   0  0  0  0  0  0  0  0  0  0  0  0
   21.0104   -2.1629   -7.3020 S   0  0  0  0  0  0  0  0  0  0  0  0
   20.8505   -2.6749   -9.8190 C   0  0  0  0  0  0  0  0  0  0  0  0
   21.0839   -3.9023   -9.1994 C   0  0  0  0  0  0  0  0  0  0  0  0
   17.9571   -5.8394  -12.6613 O   0  0  0  0  0  0  0  0  0  0  0  0
   17.8796   -4.5604  -12.0575 C   0  0  0  0  0  0  0  0  0  0  0  0
   17.3690   -3.5806  -13.1017 C   0  0  0  0  0  0  0  0  0  0  0  0
   16.2339  -11.3121   -8.9471 O   0  0  0  0  0  0  0  0  0  0  0  0
   15.5186  -12.5240   -9.0919 C   0  0  0  0  0  0  0  0  0  0  0  0
   14.1728  -12.1919   -9.7167 C   0  0  0  0  0  0  0  0  0  0  0  0
   20.0495    3.3015   -8.3817 C   0  0  0  0  0  0  0  0  0  0  0  0
   20.1679    2.0340   -8.9855 C   0  0  0  0  0  0  0  0  0  0  0  0
   20.0909    1.9107  -10.3939 C   0  0  0  0  0  0  0  0  0  0  0  0
   19.9487    2.9961  -11.2523 C   0  0  0  0  0  0  0  0  0  0  0  0
   19.8651    4.2670  -10.6488 C   0  0  0  0  0  0  0  0  0  0  0  0
   19.9104    4.3872   -9.2372 C   0  0  0  0  0  0  0  0  0  0  0  0
   20.4250    0.7907   -8.3579 C   0  0  0  0  0  0  0  0  0  0  0  0
   20.5208   -0.2546   -9.2287 C   0  0  0  0  0  0  0  0  0  0  0  0
   20.2852    0.2514  -10.8908 S   0  0  0  0  0  0  0  0  0  0  0  0
   19.6921    5.5239  -11.2752 C   0  0  0  0  0  0  0  0  0  0  0  0
   19.6087    6.5688  -10.4023 C   0  0  0  0  0  0  0  0  0  0  0  0
   19.7292    6.0461   -8.7349 S   0  0  0  0  0  0  0  0  0  0  0  0
   20.0733    3.4433   -6.9397 C   0  0  0  0  0  0  0  0  0  0  0  0
   19.9111    2.8073  -12.6882 C   0  0  0  0  0  0  0  0  0  0  0  0
   19.4436    2.6650   -6.0102 C   0  0  0  0  0  0  0  0  0  0  0  0
   19.6983    3.1035   -4.6964 C   0  0  0  0  0  0  0  0  0  0  0  0
   20.5177    4.1876   -4.5911 C   0  0  0  0  0  0  0  0  0  0  0  0
   20.9867    4.7119   -6.1717 S   0  0  0  0  0  0  0  0  0  0  0  0
   19.3072    1.7949  -13.3804 C   0  0  0  0  0  0  0  0  0  0  0  0
   19.5132    1.9065  -14.7684 C   0  0  0  0  0  0  0  0  0  0  0  0
   20.2748    2.9655  -15.1643 C   0  0  0  0  0  0  0  0  0  0  0  0
   20.7536    3.8774  -13.7758 S   0  0  0  0  0  0  0  0  0  0  0  0
   20.9598    4.9009   -3.3607 C   0  0  0  0  0  0  0  0  0  0  0  0
   20.3617    6.3065   -3.2880 C   0  0  0  0  0  0  0  0  0  0  0  0
   20.6474    3.3806  -16.5451 C   0  0  0  0  0  0  0  0  0  0  0  0
   20.0090    4.7201  -16.9159 C   0  0  0  0  0  0  0  0  0  0  0  0
   19.1682    2.4887   -3.6225 F   0  0  0  0  0  0  0  0  0  0  0  0
   18.9923    1.0221  -15.6401 F   0  0  0  0  0  0  0  0  0  0  0  0
   20.7676   -1.6241   -8.9325 C   0  0  0  0  0  0  0  0  0  0  0  0
   19.4715    7.9490  -10.7207 C   0  0  0  0  0  0  0  0  0  0  0  0
   19.6339    8.4948  -12.3571 S   0  0  0  0  0  0  0  0  0  0  0  0
   19.3871   10.1526  -11.8782 C   0  0  0  0  0  0  0  0  0  0  0  0
   19.1914   10.2378  -10.5152 C   0  0  0  0  0  0  0  0  0  0  0  0
   19.2484    9.0057   -9.8658 C   0  0  0  0  0  0  0  0  0  0  0  0
   19.4458   11.2259  -12.8345 C   0  0  0  0  0  0  0  0  0  0  0  0
   20.0561   11.0823  -14.0731 C   0  0  0  0  0  0  0  0  0  0  0  0
   20.2220   12.1403  -14.9697 C   0  0  0  0  0  0  0  0  0  0  0  0
   19.7294   13.4113  -14.7301 C   0  0  0  0  0  0  0  0  0  0  0  0
   19.0178   13.5796  -13.5045 C   0  0  0  0  0  0  0  0  0  0  0  0
   18.9179   12.5252  -12.5552 C   0  0  0  0  0  0  0  0  0  0  0  0
   18.4294   14.7541  -13.2490 N   0  0  0  0  0  0  0  0  0  0  0  0
   17.8077   14.9620  -12.1110 C   0  0  0  0  0  0  0  0  0  0  0  0
   17.8414   13.9548  -11.0990 C   0  0  0  0  0  0  0  0  0  0  0  0
   18.3484   12.7740  -11.3680 N   0  0  0  0  0  0  0  0  0  0  0  0
   20.5659    9.8937  -14.4466 F   0  0  0  0  0  0  0  0  0  0  0  0
   20.8813   11.8771  -16.1128 F   0  0  0  0  0  0  0  0  0  0  0  0
   19.9606   14.5200  -15.6204 C   0  0  0  0  0  0  0  0  0  0  0  0
   17.3703   14.1544   -9.7246 C   0  0  0  0  0  0  0  0  0  0  0  0
   17.0913   16.2367  -12.0094 C   0  0  0  0  0  0  0  0  0  0  0  0
   16.7232   13.1075   -9.0673 C   0  0  0  0  0  0  0  0  0  0  0  0
   16.2914   13.2816   -7.7691 C   0  0  0  0  0  0  0  0  0  0  0  0
   16.5019   14.4780   -7.1014 C   0  0  0  0  0  0  0  0  0  0  0  0
   17.1661   15.5201   -7.7430 C   0  0  0  0  0  0  0  0  0  0  0  0
   17.5995   15.3483   -9.0570 C   0  0  0  0  0  0  0  0  0  0  0  0
   17.6360   17.3382  -12.6692 C   0  0  0  0  0  0  0  0  0  0  0  0
   16.9752   18.5587  -12.6646 C   0  0  0  0  0  0  0  0  0  0  0  0
   15.7650   18.6715  -11.9734 C   0  0  0  0  0  0  0  0  0  0  0  0
   15.2239   17.5755  -11.3336 C   0  0  0  0  0  0  0  0  0  0  0  0
   15.8715   16.3518  -11.3514 C   0  0  0  0  0  0  0  0  0  0  0  0
   21.4044   14.5934  -16.5910 S   0  0  0  0  0  0  0  0  0  0  0  0
   19.7805   16.5891  -16.6466 C   0  0  0  0  0  0  0  0  0  0  0  0
   19.2032   15.6581  -15.7821 C   0  0  0  0  0  0  0  0  0  0  0  0
   17.4114   19.6755  -13.2959 O   0  0  0  0  0  0  0  0  0  0  0  0
   18.5677   19.5916  -14.1102 C   0  0  0  0  0  0  0  0  0  0  0  0
   18.7358   20.9230  -14.8243 C   0  0  0  0  0  0  0  0  0  0  0  0
   17.4414   16.7279   -7.1906 O   0  0  0  0  0  0  0  0  0  0  0  0
   17.0217   16.9919   -5.8656 C   0  0  0  0  0  0  0  0  0  0  0  0
   17.4458   18.4112   -5.5229 C   0  0  0  0  0  0  0  0  0  0  0  0
   24.9710   17.3953  -19.9426 C   0  0  0  0  0  0  0  0  0  0  0  0
   23.7504   17.5048  -19.2480 C   0  0  0  0  0  0  0  0  0  0  0  0
   23.0507   18.7359  -19.2352 C   0  0  0  0  0  0  0  0  0  0  0  0
   23.4956   19.8784  -19.8928 C   0  0  0  0  0  0  0  0  0  0  0  0
   24.7201   19.7689  -20.5827 C   0  0  0  0  0  0  0  0  0  0  0  0
   25.4151   18.5339  -20.6027 C   0  0  0  0  0  0  0  0  0  0  0  0
   23.0565   16.4929  -18.5407 C   0  0  0  0  0  0  0  0  0  0  0  0
   21.8828   16.9145  -17.9892 C   0  0  0  0  0  0  0  0  0  0  0  0
   21.5643   18.6034  -18.3341 S   0  0  0  0  0  0  0  0  0  0  0  0
   25.4424   20.7865  -21.2501 C   0  0  0  0  0  0  0  0  0  0  0  0
   26.6286   20.3654  -21.7769 C   0  0  0  0  0  0  0  0  0  0  0  0
   26.9154   18.6634  -21.4786 S   0  0  0  0  0  0  0  0  0  0  0  0
   25.7294   16.1597  -19.9351 C   0  0  0  0  0  0  0  0  0  0  0  0
   22.7230   21.1033  -19.8662 C   0  0  0  0  0  0  0  0  0  0  0  0
   25.9874   15.3404  -18.8733 C   0  0  0  0  0  0  0  0  0  0  0  0
   26.7678   14.2280  -19.2436 C   0  0  0  0  0  0  0  0  0  0  0  0
   27.1129   14.1687  -20.5608 C   0  0  0  0  0  0  0  0  0  0  0  0
   26.4574   15.5384  -21.3905 S   0  0  0  0  0  0  0  0  0  0  0  0
   21.9977   21.6146  -18.8264 C   0  0  0  0  0  0  0  0  0  0  0  0
   21.3299   22.8021  -19.1799 C   0  0  0  0  0  0  0  0  0  0  0  0
   21.5051   23.2115  -20.4683 C   0  0  0  0  0  0  0  0  0  0  0  0
   22.5475   22.1005  -21.2854 S   0  0  0  0  0  0  0  0  0  0  0  0
   27.8942   13.1152  -21.2666 C   0  0  0  0  0  0  0  0  0  0  0  0
   27.0161   12.3230  -22.2365 C   0  0  0  0  0  0  0  0  0  0  0  0
   20.9742   24.4313  -21.1376 C   0  0  0  0  0  0  0  0  0  0  0  0
   22.0919   25.4326  -21.4350 C   0  0  0  0  0  0  0  0  0  0  0  0
   27.1546   13.2977  -18.3511 F   0  0  0  0  0  0  0  0  0  0  0  0
   20.5663   23.4788  -18.3010 F   0  0  0  0  0  0  0  0  0  0  0  0
   20.9913   16.1794  -17.1584 C   0  0  0  0  0  0  0  0  0  0  0  0
   27.5944   21.1447  -22.4722 C   0  0  0  0  0  0  0  0  0  0  0  0
   27.3704   22.8483  -22.6922 S   0  0  0  0  0  0  0  0  0  0  0  0
   28.9070   22.9935  -23.5059 C   0  0  0  0  0  0  0  0  0  0  0  0
   29.5174   21.7604  -23.6048 C   0  0  0  0  0  0  0  0  0  0  0  0
   28.7836   20.7259  -23.0274 C   0  0  0  0  0  0  0  0  0  0  0  0
   29.3955   24.2718  -23.9501 C   0  0  0  0  0  0  0  0  0  0  0  0
   28.5732   25.3832  -24.0599 C   0  0  0  0  0  0  0  0  0  0  0  0
   29.0258   26.6343  -24.4856 C   0  0  0  0  0  0  0  0  0  0  0  0
   30.3518   26.8964  -24.7869 C   0  0  0  0  0  0  0  0  0  0  0  0
   31.2386   25.7832  -24.6634 C   0  0  0  0  0  0  0  0  0  0  0  0
   30.7660   24.4908  -24.2970 C   0  0  0  0  0  0  0  0  0  0  0  0
   32.5491   25.9653  -24.8718 N   0  0  0  0  0  0  0  0  0  0  0  0
   33.3893   24.9596  -24.7970 C   0  0  0  0  0  0  0  0  0  0  0  0
   32.8894   23.6390  -24.5898 C   0  0  0  0  0  0  0  0  0  0  0  0
   31.6209   23.4591  -24.3076 N   0  0  0  0  0  0  0  0  0  0  0  0
   27.2619   25.2908  -23.7669 F   0  0  0  0  0  0  0  0  0  0  0  0
   28.1034   27.6116  -24.5621 F   0  0  0  0  0  0  0  0  0  0  0  0
   30.8121   28.2022  -25.1917 C   0  0  0  0  0  0  0  0  0  0  0  0
   33.7099   22.4289  -24.7079 C   0  0  0  0  0  0  0  0  0  0  0  0
   34.8112   25.2993  -24.9027 C   0  0  0  0  0  0  0  0  0  0  0  0
   33.5157   21.3775  -23.8120 C   0  0  0  0  0  0  0  0  0  0  0  0
   34.2783   20.2341  -23.9281 C   0  0  0  0  0  0  0  0  0  0  0  0
   35.2277   20.1079  -24.9300 C   0  0  0  0  0  0  0  0  0  0  0  0
   35.4141   21.1449  -25.8402 C   0  0  0  0  0  0  0  0  0  0  0  0
   34.6483   22.3039  -25.7214 C   0  0  0  0  0  0  0  0  0  0  0  0
   35.1738   26.3428  -25.7531 C   0  0  0  0  0  0  0  0  0  0  0  0
   36.5014   26.7344  -25.8546 C   0  0  0  0  0  0  0  0  0  0  0  0
   37.4679   26.0647  -25.0989 C   0  0  0  0  0  0  0  0  0  0  0  0
   37.1008   25.0440  -24.2464 C   0  0  0  0  0  0  0  0  0  0  0  0
   35.7767   24.6559  -24.1358 C   0  0  0  0  0  0  0  0  0  0  0  0
   29.7169   29.3754  -25.8760 S   0  0  0  0  0  0  0  0  0  0  0  0
   30.9848   30.5063  -26.0694 C   0  0  0  0  0  0  0  0  0  0  0  0
   32.1781   30.0277  -25.6218 C   0  0  0  0  0  0  0  0  0  0  0  0
   32.0841   28.7177  -25.1249 C   0  0  0  0  0  0  0  0  0  0  0  0
   36.9529   27.7425  -26.6414 O   0  0  0  0  0  0  0  0  0  0  0  0
   36.0161   28.5080  -27.3763 C   0  0  0  0  0  0  0  0  0  0  0  0
   36.7792   29.6155  -28.0852 C   0  0  0  0  0  0  0  0  0  0  0  0
   36.3001   21.1330  -26.8673 O   0  0  0  0  0  0  0  0  0  0  0  0
   37.1304   20.0020  -27.0486 C   0  0  0  0  0  0  0  0  0  0  0  0
   38.0191   20.2717  -28.2525 C   0  0  0  0  0  0  0  0  0  0  0  0
   26.3474  -13.8021    3.8657 H   0  0  0  0  0  0  0  0  0  0  0  0
   27.8723  -12.3794    5.4116 H   0  0  0  0  0  0  0  0  0  0  0  0
   24.7849   -8.2470   -0.3901 H   0  0  0  0  0  0  0  0  0  0  0  0
   24.6087  -14.1612   -0.5253 H   0  0  0  0  0  0  0  0  0  0  0  0
   28.4904   -8.4260    2.5549 H   0  0  0  0  0  0  0  0  0  0  0  0
   22.5888  -17.8515    1.9009 H   0  0  0  0  0  0  0  0  0  0  0  0
   22.1289  -16.9366    3.3476 H   0  0  0  0  0  0  0  0  0  0  0  0
   24.8595  -18.2318    2.8778 H   0  0  0  0  0  0  0  0  0  0  0  0
   23.5978  -18.8426    3.9521 H   0  0  0  0  0  0  0  0  0  0  0  0
   24.3974  -17.3080    4.3116 H   0  0  0  0  0  0  0  0  0  0  0  0
   27.0860   -3.7749    2.5257 H   0  0  0  0  0  0  0  0  0  0  0  0
   25.3492   -4.0727    2.7164 H   0  0  0  0  0  0  0  0  0  0  0  0
   26.8471   -4.0360    0.0497 H   0  0  0  0  0  0  0  0  0  0  0  0
   25.7827   -2.7639    0.6553 H   0  0  0  0  0  0  0  0  0  0  0  0
   25.1201   -4.3496    0.2463 H   0  0  0  0  0  0  0  0  0  0  0  0
   20.9710   -9.7440   -4.7946 H   0  0  0  0  0  0  0  0  0  0  0  0
   21.8971  -11.2047   -2.8516 H   0  0  0  0  0  0  0  0  0  0  0  0
   21.0323  -11.0790   -6.9075 H   0  0  0  0  0  0  0  0  0  0  0  0
   19.9129  -13.2754   -7.0926 H   0  0  0  0  0  0  0  0  0  0  0  0
   17.6757  -13.4552   -8.0459 H   0  0  0  0  0  0  0  0  0  0  0  0
   17.5845   -9.2257   -8.6418 H   0  0  0  0  0  0  0  0  0  0  0  0
   18.8262   -5.8667  -10.0693 H   0  0  0  0  0  0  0  0  0  0  0  0
   18.3178   -8.1290  -13.6642 H   0  0  0  0  0  0  0  0  0  0  0  0
   19.3792  -10.0736  -12.5668 H   0  0  0  0  0  0  0  0  0  0  0  0
   20.1844   -9.9026  -10.2470 H   0  0  0  0  0  0  0  0  0  0  0  0
   20.7478   -2.5409  -10.8818 H   0  0  0  0  0  0  0  0  0  0  0  0
   21.1866   -4.8335   -9.7229 H   0  0  0  0  0  0  0  0  0  0  0  0
   18.8721   -4.2528  -11.7025 H   0  0  0  0  0  0  0  0  0  0  0  0
   17.1955   -4.5911  -11.1980 H   0  0  0  0  0  0  0  0  0  0  0  0
   18.0482   -3.5511  -13.9492 H   0  0  0  0  0  0  0  0  0  0  0  0
   17.2972   -2.5870  -12.6686 H   0  0  0  0  0  0  0  0  0  0  0  0
   16.3888   -3.8886  -13.4547 H   0  0  0  0  0  0  0  0  0  0  0  0
   15.3753  -12.9972   -8.1104 H   0  0  0  0  0  0  0  0  0  0  0  0
   16.0761  -13.2160   -9.7385 H   0  0  0  0  0  0  0  0  0  0  0  0
   13.6248  -11.5079   -9.0746 H   0  0  0  0  0  0  0  0  0  0  0  0
   13.5924  -13.1003   -9.8499 H   0  0  0  0  0  0  0  0  0  0  0  0
   14.3207  -11.7161  -10.6821 H   0  0  0  0  0  0  0  0  0  0  0  0
   20.5679    0.6715   -7.2994 H   0  0  0  0  0  0  0  0  0  0  0  0
   19.6194    5.6659  -12.3375 H   0  0  0  0  0  0  0  0  0  0  0  0
   18.7931    1.8422   -6.2416 H   0  0  0  0  0  0  0  0  0  0  0  0
   18.7075    1.0220  -12.9379 H   0  0  0  0  0  0  0  0  0  0  0  0
   22.0505    4.9729   -3.3518 H   0  0  0  0  0  0  0  0  0  0  0  0
   20.6463    4.3166   -2.4930 H   0  0  0  0  0  0  0  0  0  0  0  0
   20.6708    6.8915   -4.1515 H   0  0  0  0  0  0  0  0  0  0  0  0
   20.6972    6.8103   -2.3853 H   0  0  0  0  0  0  0  0  0  0  0  0
   19.2754    6.2555   -3.2747 H   0  0  0  0  0  0  0  0  0  0  0  0
   20.3153    2.6042  -17.2378 H   0  0  0  0  0  0  0  0  0  0  0  0
   21.7345    3.4677  -16.6210 H   0  0  0  0  0  0  0  0  0  0  0  0
   18.9249    4.6523  -16.8593 H   0  0  0  0  0  0  0  0  0  0  0  0
   20.2868    4.9993  -17.9287 H   0  0  0  0  0  0  0  0  0  0  0  0
   20.3441    5.5001  -16.2356 H   0  0  0  0  0  0  0  0  0  0  0  0
   19.0279   11.1748  -10.0182 H   0  0  0  0  0  0  0  0  0  0  0  0
   19.1329    8.8770   -8.8040 H   0  0  0  0  0  0  0  0  0  0  0  0
   16.5593   12.1784   -9.5898 H   0  0  0  0  0  0  0  0  0  0  0  0
   15.7824   12.4770   -7.2595 H   0  0  0  0  0  0  0  0  0  0  0  0
   16.1516   14.5833   -6.0870 H   0  0  0  0  0  0  0  0  0  0  0  0
   18.1243   16.1623   -9.5312 H   0  0  0  0  0  0  0  0  0  0  0  0
   18.5798   17.2062  -13.1729 H   0  0  0  0  0  0  0  0  0  0  0  0
   15.2657   19.6273  -11.9665 H   0  0  0  0  0  0  0  0  0  0  0  0
   14.2791   17.6716  -10.8201 H   0  0  0  0  0  0  0  0  0  0  0  0
   15.4245   15.4924  -10.8766 H   0  0  0  0  0  0  0  0  0  0  0  0
   19.3424   17.5392  -16.8983 H   0  0  0  0  0  0  0  0  0  0  0  0
   18.2618   15.7947  -15.2850 H   0  0  0  0  0  0  0  0  0  0  0  0
   18.4501   18.7813  -14.8418 H   0  0  0  0  0  0  0  0  0  0  0  0
   19.4496   19.3774  -13.4907 H   0  0  0  0  0  0  0  0  0  0  0  0
   17.8584   21.1347  -15.4291 H   0  0  0  0  0  0  0  0  0  0  0  0
   19.6100   20.8884  -15.4679 H   0  0  0  0  0  0  0  0  0  0  0  0
   18.8570   21.7236  -14.1002 H   0  0  0  0  0  0  0  0  0  0  0  0
   17.4885   16.2782   -5.1724 H   0  0  0  0  0  0  0  0  0  0  0  0
   15.9298   16.8938   -5.7897 H   0  0  0  0  0  0  0  0  0  0  0  0
   18.5253   18.5046   -5.6021 H   0  0  0  0  0  0  0  0  0  0  0  0
   17.1389   18.6546   -4.5098 H   0  0  0  0  0  0  0  0  0  0  0  0
   16.9866   19.1117   -6.2148 H   0  0  0  0  0  0  0  0  0  0  0  0
   23.3988   15.4780  -18.4552 H   0  0  0  0  0  0  0  0  0  0  0  0
   25.1175   21.8076  -21.3280 H   0  0  0  0  0  0  0  0  0  0  0  0
   25.6765   15.5319  -17.8631 H   0  0  0  0  0  0  0  0  0  0  0  0
   21.9653   21.1971  -17.8378 H   0  0  0  0  0  0  0  0  0  0  0  0
   28.3187   12.4436  -20.5173 H   0  0  0  0  0  0  0  0  0  0  0  0
   28.7150   13.5786  -21.8200 H   0  0  0  0  0  0  0  0  0  0  0  0
   26.2039   11.8368  -21.7013 H   0  0  0  0  0  0  0  0  0  0  0  0
   27.6062   11.5610  -22.7389 H   0  0  0  0  0  0  0  0  0  0  0  0
   26.5901   12.9865  -22.9858 H   0  0  0  0  0  0  0  0  0  0  0  0
   20.2310   24.8877  -20.4802 H   0  0  0  0  0  0  0  0  0  0  0  0
   20.4827   24.1519  -22.0730 H   0  0  0  0  0  0  0  0  0  0  0  0
   22.5865   25.7332  -20.5142 H   0  0  0  0  0  0  0  0  0  0  0  0
   21.6830   26.3182  -21.9140 H   0  0  0  0  0  0  0  0  0  0  0  0
   22.8322   24.9889  -22.0969 H   0  0  0  0  0  0  0  0  0  0  0  0
   30.4661   21.6305  -24.0888 H   0  0  0  0  0  0  0  0  0  0  0  0
   29.1012   19.6982  -23.0075 H   0  0  0  0  0  0  0  0  0  0  0  0
   32.7808   21.4791  -23.0290 H   0  0  0  0  0  0  0  0  0  0  0  0
   34.1376   19.4213  -23.2311 H   0  0  0  0  0  0  0  0  0  0  0  0
   35.8084   19.2014  -24.9938 H   0  0  0  0  0  0  0  0  0  0  0  0
   34.7984   23.0905  -26.4438 H   0  0  0  0  0  0  0  0  0  0  0  0
   34.3945   26.8216  -26.3237 H   0  0  0  0  0  0  0  0  0  0  0  0
   38.4968   26.3736  -25.1931 H   0  0  0  0  0  0  0  0  0  0  0  0
   37.8546   24.5465  -23.6549 H   0  0  0  0  0  0  0  0  0  0  0  0
   35.4938   23.8756  -23.4468 H   0  0  0  0  0  0  0  0  0  0  0  0
   30.7725   31.4660  -26.4976 H   0  0  0  0  0  0  0  0  0  0  0  0
   33.0921   30.5946  -25.6435 H   0  0  0  0  0  0  0  0  0  0  0  0
   32.9083   28.1654  -24.7161 H   0  0  0  0  0  0  0  0  0  0  0  0
   35.2658   28.9364  -26.6979 H   0  0  0  0  0  0  0  0  0  0  0  0
   35.5013   27.8718  -28.1095 H   0  0  0  0  0  0  0  0  0  0  0  0
   37.2896   30.2398  -27.3568 H   0  0  0  0  0  0  0  0  0  0  0  0
   36.0911   30.2275  -28.6614 H   0  0  0  0  0  0  0  0  0  0  0  0
   37.5214   29.1868  -28.7529 H   0  0  0  0  0  0  0  0  0  0  0  0
   36.5168   19.1071  -27.2229 H   0  0  0  0  0  0  0  0  0  0  0  0
   37.7451   19.8387  -26.1525 H   0  0  0  0  0  0  0  0  0  0  0  0
   37.4073   20.4354  -29.1352 H   0  0  0  0  0  0  0  0  0  0  0  0
   38.6761   19.4242  -28.4247 H   0  0  0  0  0  0  0  0  0  0  0  0
   38.6189   21.1606  -28.0778 H   0  0  0  0  0  0  0  0  0  0  0  0
  1  2  2  0  0  0  0
  2  3  1  0  0  0  0
  2  7  1  0  0  0  0
  3  9  1  0  0  0  0
  4 14  1  0  0  0  0
  4  3  2  0  0  0  0
  5  4  1  0  0  0  0
  6  5  2  0  0  0  0
  6  1  1  0  0  0  0
  7205  1  0  0  0  0
  7  8  2  0  0  0  0
  8206  1  0  0  0  0
  9  8  1  0  0  0  0
 10  5  1  0  0  0  0
 11 12  1  0  0  0  0
 11 10  2  0  0  0  0
 12  6  1  0  0  0  0
 13  1  1  0  0  0  0
 13 18  1  0  0  0  0
 14 19  2  0  0  0  0
 15 16  1  0  0  0  0
 15 13  2  0  0  0  0
 16 17  2  0  0  0  0
 17 23  1  0  0  0  0
 17 18  1  0  0  0  0
 19 20  1  0  0  0  0
 19209  1  0  0  0  0
 20 28  1  0  0  0  0
 21 20  2  0  0  0  0
 22 14  1  0  0  0  0
 22 21  1  0  0  0  0
 23211  1  0  0  0  0
 23 24  1  0  0  0  0
 24213  1  0  0  0  0
 24214  1  0  0  0  0
 25 21  1  0  0  0  0
 25215  1  0  0  0  0
 25216  1  0  0  0  0
 26 25  1  0  0  0  0
 27 16  1  0  0  0  0
 29 11  1  0  0  0  0
 30 29  1  0  0  0  0
 31 32  2  0  0  0  0
 31 30  1  0  0  0  0
 32 33  1  0  0  0  0
 33221  1  0  0  0  0
 33 29  2  0  0  0  0
 34 35  1  0  0  0  0
 34 31  1  0  0  0  0
 35 44  1  0  0  0  0
 36 45  1  0  0  0  0
 36 35  2  0  0  0  0
 37 36  1  0  0  0  0
 38 37  2  0  0  0  0
 38 39  1  0  0  0  0
 39 34  2  0  0  0  0
 40 38  1  0  0  0  0
 41 40  2  0  0  0  0
 41 42  1  0  0  0  0
 42 43  2  0  0  0  0
 43 39  1  0  0  0  0
 46 59  1  0  0  0  0
 46 37  1  0  0  0  0
 47 42  1  0  0  0  0
 47 49  2  0  0  0  0
 48 41  1  0  0  0  0
 49222  1  0  0  0  0
 50 49  1  0  0  0  0
 50223  1  0  0  0  0
 51 50  2  0  0  0  0
 52 53  2  0  0  0  0
 52 51  1  0  0  0  0
 53 47  1  0  0  0  0
 54226  1  0  0  0  0
 54 48  1  0  0  0  0
 55 54  2  0  0  0  0
 56 57  2  0  0  0  0
 56 55  1  0  0  0  0
 57 58  1  0  0  0  0
 58229  1  0  0  0  0
 58 48  2  0  0  0  0
 60 61  1  0  0  0  0
 60 96  2  0  0  0  0
 61 46  2  0  0  0  0
 62 63  1  0  0  0  0
 62 55  1  0  0  0  0
 63232  1  0  0  0  0
 63233  1  0  0  0  0
 64235  1  0  0  0  0
 64 63  1  0  0  0  0
 65 52  1  0  0  0  0
 66 65  1  0  0  0  0
 66237  1  0  0  0  0
 67 66  1  0  0  0  0
 67239  1  0  0  0  0
 68 80  1  0  0  0  0
 69 68  1  0  0  0  0
 69 74  1  0  0  0  0
 70 69  2  0  0  0  0
 71 72  2  0  0  0  0
 71 70  1  0  0  0  0
 72 73  1  0  0  0  0
 73 79  1  0  0  0  0
 73 68  2  0  0  0  0
 74242  1  0  0  0  0
 75 96  1  0  0  0  0
 75 74  2  0  0  0  0
 76 70  1  0  0  0  0
 76 75  1  0  0  0  0
 77 72  1  0  0  0  0
 77 78  2  0  0  0  0
 78 79  1  0  0  0  0
 80 85  1  0  0  0  0
 80 82  2  0  0  0  0
 81 71  1  0  0  0  0
 82 83  1  0  0  0  0
 83 84  2  0  0  0  0
 83 94  1  0  0  0  0
 84 90  1  0  0  0  0
 85 84  1  0  0  0  0
 86245  1  0  0  0  0
 86 81  2  0  0  0  0
 87 86  1  0  0  0  0
 88 87  2  0  0  0  0
 88 89  1  0  0  0  0
 89 81  1  0  0  0  0
 90246  1  0  0  0  0
 90 91  1  0  0  0  0
 90247  1  0  0  0  0
 91250  1  0  0  0  0
 91249  1  0  0  0  0
 92 88  1  0  0  0  0
 93253  1  0  0  0  0
 93 92  1  0  0  0  0
 93255  1  0  0  0  0
 95 87  1  0  0  0  0
 96 59  1  0  0  0  0
 97 78  1  0  0  0  0
 97101  2  0  0  0  0
 98 99  1  0  0  0  0
 98 97  1  0  0  0  0
 99100  2  0  0  0  0
100256  1  0  0  0  0
100101  1  0  0  0  0
101257  1  0  0  0  0
102107  1  0  0  0  0
102 99  1  0  0  0  0
103102  2  0  0  0  0
104105  2  0  0  0  0
104103  1  0  0  0  0
105106  1  0  0  0  0
106108  2  0  0  0  0
106107  1  0  0  0  0
107111  2  0  0  0  0
108109  1  0  0  0  0
109116  1  0  0  0  0
109110  2  0  0  0  0
110115  1  0  0  0  0
111110  1  0  0  0  0
112103  1  0  0  0  0
113104  1  0  0  0  0
114105  1  0  0  0  0
115117  2  0  0  0  0
115121  1  0  0  0  0
116126  2  0  0  0  0
117118  1  0  0  0  0
118259  1  0  0  0  0
118119  2  0  0  0  0
119260  1  0  0  0  0
120133  1  0  0  0  0
120119  1  0  0  0  0
121120  2  0  0  0  0
122123  2  0  0  0  0
122116  1  0  0  0  0
123124  1  0  0  0  0
124263  1  0  0  0  0
124125  2  0  0  0  0
125264  1  0  0  0  0
126125  1  0  0  0  0
126265  1  0  0  0  0
127114  1  0  0  0  0
128129  1  0  0  0  0
129114  2  0  0  0  0
129267  1  0  0  0  0
130123  1  0  0  0  0
131269  1  0  0  0  0
131130  1  0  0  0  0
132131  1  0  0  0  0
132272  1  0  0  0  0
133134  1  0  0  0  0
134274  1  0  0  0  0
134135  1  0  0  0  0
134273  1  0  0  0  0
135276  1  0  0  0  0
136148  1  0  0  0  0
136137  2  0  0  0  0
137138  1  0  0  0  0
137142  1  0  0  0  0
138144  1  0  0  0  0
139149  1  0  0  0  0
139138  2  0  0  0  0
140139  1  0  0  0  0
141140  2  0  0  0  0
141136  1  0  0  0  0
142278  1  0  0  0  0
142143  2  0  0  0  0
143164  1  0  0  0  0
144143  1  0  0  0  0
145140  1  0  0  0  0
146147  1  0  0  0  0
146145  2  0  0  0  0
147141  1  0  0  0  0
148150  2  0  0  0  0
149154  2  0  0  0  0
150280  1  0  0  0  0
151150  1  0  0  0  0
151162  1  0  0  0  0
152151  2  0  0  0  0
153152  1  0  0  0  0
153148  1  0  0  0  0
154281  1  0  0  0  0
155154  1  0  0  0  0
155163  1  0  0  0  0
156155  2  0  0  0  0
157156  1  0  0  0  0
157149  1  0  0  0  0
158152  1  0  0  0  0
158282  1  0  0  0  0
159284  1  0  0  0  0
159158  1  0  0  0  0
160287  1  0  0  0  0
160156  1  0  0  0  0
161160  1  0  0  0  0
161289  1  0  0  0  0
164128  2  0  0  0  0
164127  1  0  0  0  0
165146  1  0  0  0  0
166165  1  0  0  0  0
167166  1  0  0  0  0
168167  2  0  0  0  0
168169  1  0  0  0  0
169293  1  0  0  0  0
169165  2  0  0  0  0
170167  1  0  0  0  0
171170  1  0  0  0  0
171180  1  0  0  0  0
172171  2  0  0  0  0
173174  2  0  0  0  0
173172  1  0  0  0  0
174175  1  0  0  0  0
175170  2  0  0  0  0
176177  2  0  0  0  0
176174  1  0  0  0  0
177178  1  0  0  0  0
178179  2  0  0  0  0
179175  1  0  0  0  0
181172  1  0  0  0  0
182198  2  0  0  0  0
182173  1  0  0  0  0
183178  1  0  0  0  0
183185  2  0  0  0  0
184177  1  0  0  0  0
184194  2  0  0  0  0
185294  1  0  0  0  0
186185  1  0  0  0  0
186295  1  0  0  0  0
187186  2  0  0  0  0
188189  2  0  0  0  0
188187  1  0  0  0  0
189183  1  0  0  0  0
190184  1  0  0  0  0
191190  2  0  0  0  0
191192  1  0  0  0  0
192193  2  0  0  0  0
193194  1  0  0  0  0
193300  1  0  0  0  0
194301  1  0  0  0  0
195182  1  0  0  0  0
196195  1  0  0  0  0
196197  2  0  0  0  0
197198  1  0  0  0  0
198304  1  0  0  0  0
199191  1  0  0  0  0
200305  1  0  0  0  0
200199  1  0  0  0  0
201200  1  0  0  0  0
201307  1  0  0  0  0
202188  1  0  0  0  0
203202  1  0  0  0  0
203311  1  0  0  0  0
204314  1  0  0  0  0
204203  1  0  0  0  0
207 10  1  0  0  0  0
208 15  1  0  0  0  0
210 23  1  0  0  0  0
212 24  1  0  0  0  0
217 26  1  0  0  0  0
218 26  1  0  0  0  0
219 26  1  0  0  0  0
220 32  1  0  0  0  0
224 51  1  0  0  0  0
225 53  1  0  0  0  0
227 56  1  0  0  0  0
228 57  1  0  0  0  0
230 60  1  0  0  0  0
231 61  1  0  0  0  0
234 64  1  0  0  0  0
236 64  1  0  0  0  0
238 66  1  0  0  0  0
240 67  1  0  0  0  0
241 67  1  0  0  0  0
243 77  1  0  0  0  0
244 82  1  0  0  0  0
248 91  1  0  0  0  0
251 92  1  0  0  0  0
252 92  1  0  0  0  0
254 93  1  0  0  0  0
258117  1  0  0  0  0
261121  1  0  0  0  0
262122  1  0  0  0  0
266128  1  0  0  0  0
268131  1  0  0  0  0
270132  1  0  0  0  0
271132  1  0  0  0  0
275135  1  0  0  0  0
277135  1  0  0  0  0
279145  1  0  0  0  0
283158  1  0  0  0  0
285159  1  0  0  0  0
286159  1  0  0  0  0
288160  1  0  0  0  0
290161  1  0  0  0  0
291161  1  0  0  0  0
292168  1  0  0  0  0
296187  1  0  0  0  0
297189  1  0  0  0  0
298190  1  0  0  0  0
299192  1  0  0  0  0
302196  1  0  0  0  0
303197  1  0  0  0  0
306200  1  0  0  0  0
308201  1  0  0  0  0
309201  1  0  0  0  0
310203  1  0  0  0  0
312204  1  0  0  0  0
313204  1  0  0  0  0
M  END
