SCF done       -469.477136566336          0.000500060751
 OpenBabel12282109573D

272304  0  0  1  0  0  0  0  0999 V2000
   -3.0810  -14.7228   -7.2451 C   0  0  0  0  0  0  0  0  0  0  0  0
   -2.5678  -15.5898   -6.2520 C   0  0  0  0  0  0  0  0  0  0  0  0
   -2.8742  -15.4737   -4.8984 C   0  0  0  0  0  0  0  0  0  0  0  0
   -3.7104  -14.4004   -4.5355 C   0  0  0  0  0  0  0  0  0  0  0  0
   -4.2145  -13.5268   -5.5289 C   0  0  0  0  0  0  0  0  0  0  0  0
   -3.9384  -13.6672   -6.8853 C   0  0  0  0  0  0  0  0  0  0  0  0
   -4.1443  -14.0281   -3.2422 C   0  0  0  0  0  0  0  0  0  0  0  0
   -4.9745  -12.9429   -3.2162 C   0  0  0  0  0  0  0  0  0  0  0  0
   -5.2469  -12.3099   -4.8286 S   0  0  0  0  0  0  0  0  0  0  0  0
   -2.6061  -15.0751   -8.5431 C   0  0  0  0  0  0  0  0  0  0  0  0
   -1.8060  -16.1596   -8.5356 C   0  0  0  0  0  0  0  0  0  0  0  0
   -1.5605  -16.8245   -6.9590 S   0  0  0  0  0  0  0  0  0  0  0  0
   -4.5318  -12.7708   -7.8586 C   0  0  0  0  0  0  0  0  0  0  0  0
   -2.3708  -16.4259   -3.9296 C   0  0  0  0  0  0  0  0  0  0  0  0
   -5.5467  -12.3680   -2.0459 C   0  0  0  0  0  0  0  0  0  0  0  0
   -4.7219  -11.4229   -7.7472 C   0  0  0  0  0  0  0  0  0  0  0  0
   -5.3792  -10.8859   -8.8709 C   0  0  0  0  0  0  0  0  0  0  0  0
   -5.7178  -11.7851   -9.8372 C   0  0  0  0  0  0  0  0  0  0  0  0
   -5.1947  -13.3631   -9.3581 S   0  0  0  0  0  0  0  0  0  0  0  0
   -1.1338  -17.0042   -3.8816 C   0  0  0  0  0  0  0  0  0  0  0  0
   -1.0157  -17.9139   -2.8132 C   0  0  0  0  0  0  0  0  0  0  0  0
   -2.1327  -18.0679   -2.0476 C   0  0  0  0  0  0  0  0  0  0  0  0
   -3.3870  -17.0433   -2.6536 S   0  0  0  0  0  0  0  0  0  0  0  0
   -5.1521  -13.1019   -0.5109 S   0  0  0  0  0  0  0  0  0  0  0  0
   -6.1265  -11.9422    0.3390 C   0  0  0  0  0  0  0  0  0  0  0  0
   -6.7122  -11.0581   -0.5367 C   0  0  0  0  0  0  0  0  0  0  0  0
   -6.3959  -11.2849   -1.8847 C   0  0  0  0  0  0  0  0  0  0  0  0
   -5.6558   -9.5726   -8.9768 F   0  0  0  0  0  0  0  0  0  0  0  0
   -6.3903  -11.5367  -11.1429 C   0  0  0  0  0  0  0  0  0  0  0  0
   -5.4477  -11.8009  -12.3178 C   0  0  0  0  0  0  0  0  0  0  0  0
    0.1260  -18.5839   -2.5680 F   0  0  0  0  0  0  0  0  0  0  0  0
   -2.3249  -18.9195   -0.8407 C   0  0  0  0  0  0  0  0  0  0  0  0
   -2.5830  -18.0719    0.4058 C   0  0  0  0  0  0  0  0  0  0  0  0
   -6.9036  -10.4625   -3.0286 C   0  0  0  0  0  0  0  0  0  0  0  0
   -7.8503   -9.3413   -2.6202 C   0  0  0  0  0  0  0  0  0  0  0  0
   -6.2193  -11.9872    1.7545 C   0  0  0  0  0  0  0  0  0  0  0  0
   -7.1628  -10.8166    2.6425 S   0  0  0  0  0  0  0  0  0  0  0  0
   -6.7066  -11.5443    4.1458 C   0  0  0  0  0  0  0  0  0  0  0  0
   -5.8762  -12.6366    3.9464 C   0  0  0  0  0  0  0  0  0  0  0  0
   -5.6095  -12.8876    2.6029 C   0  0  0  0  0  0  0  0  0  0  0  0
   -7.0400  -11.1240    5.4604 C   0  0  0  0  0  0  0  0  0  0  0  0
   -6.3175  -11.5859    6.5501 C   0  0  0  0  0  0  0  0  0  0  0  0
   -5.1286  -12.4660    6.2999 C   0  0  2  0  0  0  0  0  0  0  0  0
   -5.4436  -13.4286    5.1444 C   0  0  2  0  0  0  0  0  0  0  0  0
   -8.3104  -10.0554    5.9534 S   0  0  0  0  0  0  0  0  0  0  0  0
   -7.8548  -10.2366    7.6289 C   0  0  0  0  0  0  0  0  0  0  0  0
   -6.7709  -11.0787    7.7652 C   0  0  0  0  0  0  0  0  0  0  0  0
   -8.5520   -9.5647    8.6667 C   0  0  0  0  0  0  0  0  0  0  0  0
   -9.6670   -8.7631    8.5865 C   0  0  0  0  0  0  0  0  0  0  0  0
  -10.0993   -8.2500    9.8190 C   0  0  0  0  0  0  0  0  0  0  0  0
   -9.2943   -8.6641   10.8680 C   0  0  0  0  0  0  0  0  0  0  0  0
   -8.0040   -9.7001   10.3092 S   0  0  0  0  0  0  0  0  0  0  0  0
  -11.2879   -7.3579   10.0039 C   0  0  0  0  0  0  0  0  0  0  0  0
  -12.0316   -7.0338    8.7149 C   0  0  0  0  0  0  0  0  0  0  0  0
   -4.6879  -13.1847    7.4722 N   0  0  0  0  0  0  0  0  0  0  0  0
   -3.9965  -14.2229    7.2548 C   0  0  0  0  0  0  0  0  0  0  0  0
   -3.6671  -14.6763    5.8953 C   0  0  0  0  0  0  0  0  0  0  0  0
   -4.3312  -14.3107    4.8812 N   0  0  0  0  0  0  0  0  0  0  0  0
   -8.6960   -8.3842   14.5056 C   0  0  0  0  0  0  0  0  0  0  0  0
   -9.8583   -7.5783   14.5816 C   0  0  0  0  0  0  0  0  0  0  0  0
  -10.3198   -7.0054   15.7631 C   0  0  0  0  0  0  0  0  0  0  0  0
   -9.5759   -7.2855   16.9292 C   0  0  0  0  0  0  0  0  0  0  0  0
   -8.4172   -8.0963   16.8487 C   0  0  0  0  0  0  0  0  0  0  0  0
   -7.9415   -8.6488   15.6655 C   0  0  0  0  0  0  0  0  0  0  0  0
   -9.8192   -6.8553   18.2543 C   0  0  0  0  0  0  0  0  0  0  0  0
   -8.8828   -7.2670   19.1624 C   0  0  0  0  0  0  0  0  0  0  0  0
   -7.6482   -8.2524   18.4018 S   0  0  0  0  0  0  0  0  0  0  0  0
   -8.4503   -8.8324   13.1896 C   0  0  0  0  0  0  0  0  0  0  0  0
   -9.3429   -8.3747   12.2608 C   0  0  0  0  0  0  0  0  0  0  0  0
  -10.5720   -7.3681   13.0035 S   0  0  0  0  0  0  0  0  0  0  0  0
   -6.7214   -9.4296   15.6423 C   0  0  0  0  0  0  0  0  0  0  0  0
  -11.4900   -6.1517   15.7729 C   0  0  0  0  0  0  0  0  0  0  0  0
   -8.8664   -6.9641   20.5526 C   0  0  0  0  0  0  0  0  0  0  0  0
   -6.2862  -10.3304   16.5732 C   0  0  0  0  0  0  0  0  0  0  0  0
   -5.0282  -10.8691   16.2424 C   0  0  0  0  0  0  0  0  0  0  0  0
   -4.4720  -10.3960   15.0918 C   0  0  0  0  0  0  0  0  0  0  0  0
   -5.5422   -9.2444   14.3709 S   0  0  0  0  0  0  0  0  0  0  0  0
  -12.6352   -6.2920   15.0400 C   0  0  0  0  0  0  0  0  0  0  0  0
  -13.5498   -5.2489   15.2794 C   0  0  0  0  0  0  0  0  0  0  0  0
  -13.1360   -4.2971   16.1628 C   0  0  0  0  0  0  0  0  0  0  0  0
  -11.5563   -4.7008   16.7387 S   0  0  0  0  0  0  0  0  0  0  0  0
  -10.1688   -6.0014   21.2066 S   0  0  0  0  0  0  0  0  0  0  0  0
   -9.4702   -6.0556   22.7943 C   0  0  0  0  0  0  0  0  0  0  0  0
   -8.2990   -6.7817   22.7870 C   0  0  0  0  0  0  0  0  0  0  0  0
   -7.9468   -7.3008   21.5349 C   0  0  0  0  0  0  0  0  0  0  0  0
   -4.4189  -11.7881   17.0157 F   0  0  0  0  0  0  0  0  0  0  0  0
   -3.1825  -10.7819   14.4540 C   0  0  0  0  0  0  0  0  0  0  0  0
   -3.4106  -11.5009   13.1235 C   0  0  0  0  0  0  0  0  0  0  0  0
  -14.7503   -5.1983   14.6715 F   0  0  0  0  0  0  0  0  0  0  0  0
  -13.8719   -3.0988   16.6537 C   0  0  0  0  0  0  0  0  0  0  0  0
  -14.2362   -3.2347   18.1332 C   0  0  0  0  0  0  0  0  0  0  0  0
   -6.7225   -8.1244   21.2766 C   0  0  0  0  0  0  0  0  0  0  0  0
   -5.8469   -8.3498   22.5026 C   0  0  0  0  0  0  0  0  0  0  0  0
  -10.0722   -5.4197   23.9135 C   0  0  0  0  0  0  0  0  0  0  0  0
  -11.6074   -4.5993   23.7939 S   0  0  0  0  0  0  0  0  0  0  0  0
  -11.5548   -4.1806   25.4719 C   0  0  0  0  0  0  0  0  0  0  0  0
  -10.3998   -4.6582   26.0732 C   0  0  0  0  0  0  0  0  0  0  0  0
   -9.5731   -5.3597   25.2001 C   0  0  0  0  0  0  0  0  0  0  0  0
  -12.5071   -3.4455   26.2264 C   0  0  0  0  0  0  0  0  0  0  0  0
  -12.1743   -2.9368   27.4730 C   0  0  0  0  0  0  0  0  0  0  0  0
  -10.7566   -3.0728   27.9434 C   0  0  2  0  0  0  0  0  0  0  0  0
  -10.2234   -4.4586   27.5496 C   0  0  2  0  0  0  0  0  0  0  0  0
  -14.1583   -3.1093   25.8325 S   0  0  0  0  0  0  0  0  0  0  0  0
  -14.3944   -2.2979   27.3589 C   0  0  0  0  0  0  0  0  0  0  0  0
  -13.2314   -2.2877   28.1045 C   0  0  0  0  0  0  0  0  0  0  0  0
  -15.6559   -1.7646   27.7381 C   0  0  0  0  0  0  0  0  0  0  0  0
  -15.9756   -1.1701   28.9393 C   0  0  0  0  0  0  0  0  0  0  0  0
  -17.3130   -0.7692   29.0497 C   0  0  0  0  0  0  0  0  0  0  0  0
  -18.0409   -1.0582   27.9051 C   0  0  0  0  0  0  0  0  0  0  0  0
  -17.0418   -1.8249   26.6951 S   0  0  0  0  0  0  0  0  0  0  0  0
  -17.8986   -0.1043   30.2576 C   0  0  0  0  0  0  0  0  0  0  0  0
  -16.8915    0.1885   31.3624 C   0  0  0  0  0  0  0  0  0  0  0  0
  -10.5924   -2.8343   29.3583 N   0  0  0  0  0  0  0  0  0  0  0  0
   -9.5475   -3.3230   29.8807 C   0  0  0  0  0  0  0  0  0  0  0  0
   -8.5683   -4.0955   29.1018 C   0  0  0  0  0  0  0  0  0  0  0  0
   -8.8618   -4.6390   27.9964 N   0  0  0  0  0  0  0  0  0  0  0  0
  -21.4172   -0.7991   26.4001 C   0  0  0  0  0  0  0  0  0  0  0  0
  -21.8644   -0.3291   27.6590 C   0  0  0  0  0  0  0  0  0  0  0  0
  -23.1947   -0.0507   27.9517 C   0  0  0  0  0  0  0  0  0  0  0  0
  -24.1186   -0.2434   26.9051 C   0  0  0  0  0  0  0  0  0  0  0  0
  -23.6718   -0.6970   25.6399 C   0  0  0  0  0  0  0  0  0  0  0  0
  -22.3403   -0.9758   25.3481 C   0  0  0  0  0  0  0  0  0  0  0  0
  -25.5075    0.0140   26.9114 C   0  0  0  0  0  0  0  0  0  0  0  0
  -26.1324   -0.2311   25.7205 C   0  0  0  0  0  0  0  0  0  0  0  0
  -24.9966   -0.7983   24.5110 S   0  0  0  0  0  0  0  0  0  0  0  0
  -20.0333   -1.0894   26.4116 C   0  0  0  0  0  0  0  0  0  0  0  0
  -19.4151   -0.8399   27.6058 C   0  0  0  0  0  0  0  0  0  0  0  0
  -20.5475   -0.2180   28.7916 S   0  0  0  0  0  0  0  0  0  0  0  0
  -21.9389   -1.4033   24.0241 C   0  0  0  0  0  0  0  0  0  0  0  0
  -23.5922    0.3922   29.2723 C   0  0  0  0  0  0  0  0  0  0  0  0
  -27.5259   -0.0809   25.4737 C   0  0  0  0  0  0  0  0  0  0  0  0
  -22.6144   -2.2230   23.1641 C   0  0  0  0  0  0  0  0  0  0  0  0
  -21.9453   -2.3682   21.9341 C   0  0  0  0  0  0  0  0  0  0  0  0
  -20.7811   -1.6699   21.8133 C   0  0  0  0  0  0  0  0  0  0  0  0
  -20.4797   -0.8039   23.2798 S   0  0  0  0  0  0  0  0  0  0  0  0
  -22.9250    1.2438   30.1072 C   0  0  0  0  0  0  0  0  0  0  0  0
  -23.5889    1.4077   31.3380 C   0  0  0  0  0  0  0  0  0  0  0  0
  -24.7398    0.6926   31.4834 C   0  0  0  0  0  0  0  0  0  0  0  0
  -25.0336   -0.2170   30.0420 S   0  0  0  0  0  0  0  0  0  0  0  0
  -28.5485    0.3262   26.8288 S   0  0  0  0  0  0  0  0  0  0  0  0
  -29.9611    0.3186   25.8216 C   0  0  0  0  0  0  0  0  0  0  0  0
  -29.6304    0.0200   24.5181 C   0  0  0  0  0  0  0  0  0  0  0  0
  -28.2635   -0.2110   24.3076 C   0  0  0  0  0  0  0  0  0  0  0  0
  -22.4305   -3.1418   20.9444 F   0  0  0  0  0  0  0  0  0  0  0  0
  -19.8352   -1.6306   20.6634 C   0  0  0  0  0  0  0  0  0  0  0  0
  -18.5032   -2.2975   21.0102 C   0  0  0  0  0  0  0  0  0  0  0  0
  -23.1122    2.2161   32.3043 F   0  0  0  0  0  0  0  0  0  0  0  0
  -25.6827    0.6686   32.6362 C   0  0  0  0  0  0  0  0  0  0  0  0
  -27.0399    1.2647   32.2599 C   0  0  0  0  0  0  0  0  0  0  0  0
  -27.6520   -0.5609   22.9855 C   0  0  0  0  0  0  0  0  0  0  0  0
  -28.6359   -0.5648   21.8227 C   0  0  0  0  0  0  0  0  0  0  0  0
  -31.2492    0.5857   26.3605 C   0  0  0  0  0  0  0  0  0  0  0  0
  -31.4654    0.8139   28.0771 S   0  0  0  0  0  0  0  0  0  0  0  0
  -33.1665    1.0323   27.8676 C   0  0  0  0  0  0  0  0  0  0  0  0
  -33.5289    0.9368   26.5333 C   0  0  0  0  0  0  0  0  0  0  0  0
  -32.4495    0.6905   25.6863 C   0  0  0  0  0  0  0  0  0  0  0  0
  -34.1460    1.2519   28.8715 C   0  0  0  0  0  0  0  0  0  0  0  0
  -35.4934    1.0953   28.5942 C   0  0  0  0  0  0  0  0  0  0  0  0
  -35.8851    0.5871   27.2377 C   0  0  2  0  0  0  0  0  0  0  0  0
  -34.9619    1.1952   26.1695 C   0  0  2  0  0  0  0  0  0  0  0  0
  -33.8894    1.7334   30.5137 S   0  0  0  0  0  0  0  0  0  0  0  0
  -35.6080    1.7216   30.8169 C   0  0  0  0  0  0  0  0  0  0  0  0
  -36.3141    1.3548   29.6931 C   0  0  0  0  0  0  0  0  0  0  0  0
  -36.1177    2.0580   32.1029 C   0  0  0  0  0  0  0  0  0  0  0  0
  -35.4207    2.4000   33.2329 C   0  0  0  0  0  0  0  0  0  0  0  0
  -36.2455    2.6719   34.3460 C   0  0  0  0  0  0  0  0  0  0  0  0
  -37.5664    2.5291   34.0432 C   0  0  0  0  0  0  0  0  0  0  0  0
  -37.8330    2.0681   32.4088 S   0  0  0  0  0  0  0  0  0  0  0  0
  -35.7203    3.0205   35.7030 C   0  0  0  0  0  0  0  0  0  0  0  0
  -35.2509    1.7639   36.4381 C   0  0  0  0  0  0  0  0  0  0  0  0
  -37.2733    0.8200   26.9146 N   0  0  0  0  0  0  0  0  0  0  0  0
  -37.5646    0.7933   25.6828 C   0  0  0  0  0  0  0  0  0  0  0  0
  -36.5533    0.5480   24.6439 C   0  0  0  0  0  0  0  0  0  0  0  0
  -35.3165    0.7247   24.8506 N   0  0  0  0  0  0  0  0  0  0  0  0
   -3.8473  -14.5341   -2.3422 H   0  0  0  0  0  0  0  0  0  0  0  0
   -2.8500  -14.5298   -9.4356 H   0  0  0  0  0  0  0  0  0  0  0  0
   -1.3194  -16.6258   -9.3696 H   0  0  0  0  0  0  0  0  0  0  0  0
   -4.3819  -10.8226   -6.9245 H   0  0  0  0  0  0  0  0  0  0  0  0
   -0.3230  -16.7737   -4.5466 H   0  0  0  0  0  0  0  0  0  0  0  0
   -7.3526  -10.2678   -0.1903 H   0  0  0  0  0  0  0  0  0  0  0  0
   -6.7262  -10.4977  -11.1621 H   0  0  0  0  0  0  0  0  0  0  0  0
   -7.2669  -12.1838  -11.2325 H   0  0  0  0  0  0  0  0  0  0  0  0
   -4.5735  -11.1569  -12.2551 H   0  0  0  0  0  0  0  0  0  0  0  0
   -5.9567  -11.6046  -13.2578 H   0  0  0  0  0  0  0  0  0  0  0  0
   -5.1171  -12.8374  -12.3097 H   0  0  0  0  0  0  0  0  0  0  0  0
   -1.4263  -19.5244   -0.7020 H   0  0  0  0  0  0  0  0  0  0  0  0
   -3.1714  -19.5934   -0.9988 H   0  0  0  0  0  0  0  0  0  0  0  0
   -1.7432  -17.4067    0.5930 H   0  0  0  0  0  0  0  0  0  0  0  0
   -2.7188  -18.7126    1.2731 H   0  0  0  0  0  0  0  0  0  0  0  0
   -3.4790  -17.4693    0.2733 H   0  0  0  0  0  0  0  0  0  0  0  0
   -7.4135  -11.1237   -3.7363 H   0  0  0  0  0  0  0  0  0  0  0  0
   -6.0473  -10.0343   -3.5593 H   0  0  0  0  0  0  0  0  0  0  0  0
   -8.7307   -9.7400   -2.1218 H   0  0  0  0  0  0  0  0  0  0  0  0
   -8.1752   -8.7998   -3.5054 H   0  0  0  0  0  0  0  0  0  0  0  0
   -7.3553   -8.6387   -1.9540 H   0  0  0  0  0  0  0  0  0  0  0  0
   -4.9864  -13.6929    2.2598 H   0  0  0  0  0  0  0  0  0  0  0  0
   -4.2921  -11.8109    5.9889 H   0  0  0  0  0  0  0  0  0  0  0  0
   -6.2975  -14.0649    5.4468 H   0  0  0  0  0  0  0  0  0  0  0  0
   -6.3286  -11.3221    8.7138 H   0  0  0  0  0  0  0  0  0  0  0  0
  -10.1475   -8.5639    7.6462 H   0  0  0  0  0  0  0  0  0  0  0  0
  -10.9571   -6.4261   10.4737 H   0  0  0  0  0  0  0  0  0  0  0  0
  -11.9776   -7.8360   10.7066 H   0  0  0  0  0  0  0  0  0  0  0  0
  -11.3820   -6.5182    8.0115 H   0  0  0  0  0  0  0  0  0  0  0  0
  -12.8769   -6.3865    8.9358 H   0  0  0  0  0  0  0  0  0  0  0  0
  -12.4093   -7.9401    8.2473 H   0  0  0  0  0  0  0  0  0  0  0  0
   -3.6448  -14.7870    8.1088 H   0  0  0  0  0  0  0  0  0  0  0  0
   -2.8285  -15.3427    5.7403 H   0  0  0  0  0  0  0  0  0  0  0  0
  -10.6642   -6.2603   18.5478 H   0  0  0  0  0  0  0  0  0  0  0  0
   -7.6390   -9.4832   12.9206 H   0  0  0  0  0  0  0  0  0  0  0  0
   -6.8441  -10.6346   17.4386 H   0  0  0  0  0  0  0  0  0  0  0  0
  -12.8475   -7.1168   14.3864 H   0  0  0  0  0  0  0  0  0  0  0  0
   -7.7183   -6.9312   23.6767 H   0  0  0  0  0  0  0  0  0  0  0  0
   -2.6419  -11.4349   15.1426 H   0  0  0  0  0  0  0  0  0  0  0  0
   -2.5773   -9.8880   14.2807 H   0  0  0  0  0  0  0  0  0  0  0  0
   -4.0001  -12.4022   13.2755 H   0  0  0  0  0  0  0  0  0  0  0  0
   -2.4582  -11.7795   12.6802 H   0  0  0  0  0  0  0  0  0  0  0  0
   -3.9420  -10.8523   12.4303 H   0  0  0  0  0  0  0  0  0  0  0  0
  -14.7788   -2.9848   16.0560 H   0  0  0  0  0  0  0  0  0  0  0  0
  -13.2539   -2.2076   16.5159 H   0  0  0  0  0  0  0  0  0  0  0  0
  -14.8722   -4.1029   18.2896 H   0  0  0  0  0  0  0  0  0  0  0  0
  -14.7681   -2.3490   18.4707 H   0  0  0  0  0  0  0  0  0  0  0  0
  -13.3373   -3.3513   18.7347 H   0  0  0  0  0  0  0  0  0  0  0  0
   -6.1281   -7.6354   20.4985 H   0  0  0  0  0  0  0  0  0  0  0  0
   -7.0310   -9.0947   20.8752 H   0  0  0  0  0  0  0  0  0  0  0  0
   -5.4893   -7.4041   22.9031 H   0  0  0  0  0  0  0  0  0  0  0  0
   -4.9838   -8.9505   22.2256 H   0  0  0  0  0  0  0  0  0  0  0  0
   -6.3945   -8.8791   23.2788 H   0  0  0  0  0  0  0  0  0  0  0  0
   -8.6422   -5.7974   25.5063 H   0  0  0  0  0  0  0  0  0  0  0  0
  -10.1567   -2.3078   27.4140 H   0  0  0  0  0  0  0  0  0  0  0  0
  -10.8359   -5.2254   28.0620 H   0  0  0  0  0  0  0  0  0  0  0  0
  -13.1412   -1.8362   29.0739 H   0  0  0  0  0  0  0  0  0  0  0  0
  -15.2501   -1.0395   29.7190 H   0  0  0  0  0  0  0  0  0  0  0  0
  -18.6939   -0.7410   30.6581 H   0  0  0  0  0  0  0  0  0  0  0  0
  -18.3705    0.8328   29.9473 H   0  0  0  0  0  0  0  0  0  0  0  0
  -16.4483   -0.7306   31.7384 H   0  0  0  0  0  0  0  0  0  0  0  0
  -17.3944    0.6854   32.1886 H   0  0  0  0  0  0  0  0  0  0  0  0
  -16.1003    0.8418   31.0020 H   0  0  0  0  0  0  0  0  0  0  0  0
   -9.3846   -3.1628   30.9386 H   0  0  0  0  0  0  0  0  0  0  0  0
   -7.5583   -4.2108   29.4731 H   0  0  0  0  0  0  0  0  0  0  0  0
  -26.0441    0.3873   27.7640 H   0  0  0  0  0  0  0  0  0  0  0  0
  -19.4973   -1.4911   25.5713 H   0  0  0  0  0  0  0  0  0  0  0  0
  -23.5280   -2.7366   23.3973 H   0  0  0  0  0  0  0  0  0  0  0  0
  -22.0224    1.7675   29.8548 H   0  0  0  0  0  0  0  0  0  0  0  0
  -30.3707   -0.0345   23.7430 H   0  0  0  0  0  0  0  0  0  0  0  0
  -19.6533   -0.5918   20.3750 H   0  0  0  0  0  0  0  0  0  0  0  0
  -20.3004   -2.1454   19.8200 H   0  0  0  0  0  0  0  0  0  0  0  0
  -18.0320   -1.7879   21.8478 H   0  0  0  0  0  0  0  0  0  0  0  0
  -17.8321   -2.2597   20.1562 H   0  0  0  0  0  0  0  0  0  0  0  0
  -18.6596   -3.3387   21.2824 H   0  0  0  0  0  0  0  0  0  0  0  0
  -25.2380    1.2397   33.4542 H   0  0  0  0  0  0  0  0  0  0  0  0
  -25.8235   -0.3620   32.9731 H   0  0  0  0  0  0  0  0  0  0  0  0
  -26.9247    2.2972   31.9382 H   0  0  0  0  0  0  0  0  0  0  0  0
  -27.7099    1.2405   33.1153 H   0  0  0  0  0  0  0  0  0  0  0  0
  -27.4900    0.6974   31.4481 H   0  0  0  0  0  0  0  0  0  0  0  0
  -27.1875   -1.5488   23.0658 H   0  0  0  0  0  0  0  0  0  0  0  0
  -26.8467    0.1488   22.7724 H   0  0  0  0  0  0  0  0  0  0  0  0
  -29.4136   -1.3095   21.9745 H   0  0  0  0  0  0  0  0  0  0  0  0
  -28.1098   -0.8059   20.9022 H   0  0  0  0  0  0  0  0  0  0  0  0
  -29.0995    0.4119   21.7052 H   0  0  0  0  0  0  0  0  0  0  0  0
  -32.5513    0.5934   24.6221 H   0  0  0  0  0  0  0  0  0  0  0  0
  -35.7342   -0.5099   27.2422 H   0  0  0  0  0  0  0  0  0  0  0  0
  -35.1084    2.2928   26.1716 H   0  0  0  0  0  0  0  0  0  0  0  0
  -37.3857    1.2802   29.6665 H   0  0  0  0  0  0  0  0  0  0  0  0
  -34.3465    2.4563   33.2553 H   0  0  0  0  0  0  0  0  0  0  0  0
  -38.4096    2.6722   34.6896 H   0  0  0  0  0  0  0  0  0  0  0  0
  -36.5032    3.5119   36.2836 H   0  0  0  0  0  0  0  0  0  0  0  0
  -34.8828    3.7136   35.5987 H   0  0  0  0  0  0  0  0  0  0  0  0
  -36.0795    1.0717   36.5697 H   0  0  0  0  0  0  0  0  0  0  0  0
  -34.8557    2.0228   37.4175 H   0  0  0  0  0  0  0  0  0  0  0  0
  -34.4713    1.2613   35.8703 H   0  0  0  0  0  0  0  0  0  0  0  0
  -38.5959    0.9600   25.4000 H   0  0  0  0  0  0  0  0  0  0  0  0
  -36.8612    0.1992   23.6667 H   0  0  0  0  0  0  0  0  0  0  0  0
  1  6  2  0  0  0  0
  1  2  1  0  0  0  0
  2  3  2  0  0  0  0
  3  4  1  0  0  0  0
  3 14  1  0  0  0  0
  4  7  1  0  0  0  0
  5  9  1  0  0  0  0
  5  4  2  0  0  0  0
  6  5  1  0  0  0  0
  7  8  2  0  0  0  0
  7175  1  0  0  0  0
  8 15  1  0  0  0  0
  9  8  1  0  0  0  0
 10 11  2  0  0  0  0
 10  1  1  0  0  0  0
 11 12  1  0  0  0  0
 12  2  1  0  0  0  0
 13 16  2  0  0  0  0
 13  6  1  0  0  0  0
 14 20  2  0  0  0  0
 14 23  1  0  0  0  0
 15 27  2  0  0  0  0
 15 24  1  0  0  0  0
 16178  1  0  0  0  0
 17 16  1  0  0  0  0
 18 19  1  0  0  0  0
 18 17  2  0  0  0  0
 19 13  1  0  0  0  0
 20 21  1  0  0  0  0
 21 31  1  0  0  0  0
 21 22  2  0  0  0  0
 22 32  1  0  0  0  0
 23 22  1  0  0  0  0
 24 25  1  0  0  0  0
 25 36  1  0  0  0  0
 26180  1  0  0  0  0
 26 25  2  0  0  0  0
 27 26  1  0  0  0  0
 28 17  1  0  0  0  0
 29 18  1  0  0  0  0
 30185  1  0  0  0  0
 30183  1  0  0  0  0
 30 29  1  0  0  0  0
 32186  1  0  0  0  0
 32 33  1  0  0  0  0
 33188  1  0  0  0  0
 33189  1  0  0  0  0
 34 35  1  0  0  0  0
 34 27  1  0  0  0  0
 35193  1  0  0  0  0
 35195  1  0  0  0  0
 36 40  2  0  0  0  0
 36 37  1  0  0  0  0
 37 38  1  0  0  0  0
 38 41  1  0  0  0  0
 39 38  2  0  0  0  0
 39 44  1  0  0  0  0
 40 39  1  0  0  0  0
 41 45  1  0  0  0  0
 41 42  2  0  0  0  0
 42 47  1  0  0  0  0
 43 44  1  6  0  0  0
 43 42  1  0  0  0  0
 43 55  1  0  0  0  0
 44198  1  1  0  0  0
 45 46  1  0  0  0  0
 46 47  2  0  0  0  0
 46 48  1  0  0  0  0
 47199  1  0  0  0  0
 48 52  1  0  0  0  0
 49 48  2  0  0  0  0
 49 50  1  0  0  0  0
 50 53  1  0  0  0  0
 50 51  2  0  0  0  0
 51 69  1  0  0  0  0
 52 51  1  0  0  0  0
 53201  1  0  0  0  0
 53202  1  0  0  0  0
 54204  1  0  0  0  0
 54 53  1  0  0  0  0
 56 55  2  0  0  0  0
 56206  1  0  0  0  0
 57 56  1  0  0  0  0
 58 44  1  0  0  0  0
 58 57  2  0  0  0  0
 59 60  2  0  0  0  0
 59 64  1  0  0  0  0
 60 61  1  0  0  0  0
 61 72  1  0  0  0  0
 61 62  2  0  0  0  0
 62 65  1  0  0  0  0
 63 62  1  0  0  0  0
 63 67  1  0  0  0  0
 64 63  2  0  0  0  0
 65208  1  0  0  0  0
 65 66  2  0  0  0  0
 66 73  1  0  0  0  0
 67 66  1  0  0  0  0
 68 59  1  0  0  0  0
 69 70  1  0  0  0  0
 69 68  2  0  0  0  0
 70 60  1  0  0  0  0
 71 64  1  0  0  0  0
 71 74  2  0  0  0  0
 72 81  1  0  0  0  0
 73 82  1  0  0  0  0
 73 85  2  0  0  0  0
 74210  1  0  0  0  0
 75 74  1  0  0  0  0
 75 86  1  0  0  0  0
 76 75  2  0  0  0  0
 77 76  1  0  0  0  0
 77 71  1  0  0  0  0
 78 79  1  0  0  0  0
 78 72  2  0  0  0  0
 79 80  2  0  0  0  0
 80 90  1  0  0  0  0
 80 81  1  0  0  0  0
 82 83  1  0  0  0  0
 83 94  1  0  0  0  0
 84 83  2  0  0  0  0
 84212  1  0  0  0  0
 85 84  1  0  0  0  0
 87 76  1  0  0  0  0
 87213  1  0  0  0  0
 88215  1  0  0  0  0
 88 87  1  0  0  0  0
 89 79  1  0  0  0  0
 90 91  1  0  0  0  0
 91220  1  0  0  0  0
 91221  1  0  0  0  0
 91222  1  0  0  0  0
 92 85  1  0  0  0  0
 92 93  1  0  0  0  0
 93225  1  0  0  0  0
 93227  1  0  0  0  0
 94 98  2  0  0  0  0
 95 94  1  0  0  0  0
 95 96  1  0  0  0  0
 96 97  2  0  0  0  0
 96 99  1  0  0  0  0
 97102  1  0  0  0  0
 98228  1  0  0  0  0
 98 97  1  0  0  0  0
 99100  2  0  0  0  0
100101  1  0  0  0  0
100105  1  0  0  0  0
101102  1  6  0  0  0
101113  1  0  0  0  0
102116  1  0  0  0  0
102230  1  1  0  0  0
103 99  1  0  0  0  0
103104  1  0  0  0  0
104106  1  0  0  0  0
104105  2  0  0  0  0
105231  1  0  0  0  0
106107  2  0  0  0  0
107108  1  0  0  0  0
107232  1  0  0  0  0
108111  1  0  0  0  0
109108  2  0  0  0  0
110106  1  0  0  0  0
110109  1  0  0  0  0
111233  1  0  0  0  0
111112  1  0  0  0  0
112235  1  0  0  0  0
112236  1  0  0  0  0
113114  2  0  0  0  0
114238  1  0  0  0  0
115239  1  0  0  0  0
115114  1  0  0  0  0
116115  2  0  0  0  0
117126  1  0  0  0  0
117118  2  0  0  0  0
118119  1  0  0  0  0
118128  1  0  0  0  0
119130  1  0  0  0  0
120123  1  0  0  0  0
120119  2  0  0  0  0
121120  1  0  0  0  0
122121  2  0  0  0  0
122117  1  0  0  0  0
123240  1  0  0  0  0
124123  2  0  0  0  0
125121  1  0  0  0  0
125124  1  0  0  0  0
126127  2  0  0  0  0
127109  1  0  0  0  0
127128  1  0  0  0  0
129122  1  0  0  0  0
130139  1  0  0  0  0
130136  2  0  0  0  0
131124  1  0  0  0  0
131140  1  0  0  0  0
132242  1  0  0  0  0
132129  2  0  0  0  0
133132  1  0  0  0  0
134133  2  0  0  0  0
134135  1  0  0  0  0
135129  1  0  0  0  0
136137  1  0  0  0  0
137138  2  0  0  0  0
137147  1  0  0  0  0
138148  1  0  0  0  0
139138  1  0  0  0  0
141152  1  0  0  0  0
141140  1  0  0  0  0
142141  2  0  0  0  0
143142  1  0  0  0  0
143131  2  0  0  0  0
144133  1  0  0  0  0
145146  1  0  0  0  0
145134  1  0  0  0  0
146249  1  0  0  0  0
146247  1  0  0  0  0
148251  1  0  0  0  0
148250  1  0  0  0  0
149148  1  0  0  0  0
149253  1  0  0  0  0
150255  1  0  0  0  0
150143  1  0  0  0  0
151257  1  0  0  0  0
151150  1  0  0  0  0
152153  1  0  0  0  0
154153  1  0  0  0  0
154157  1  0  0  0  0
155154  2  0  0  0  0
156152  2  0  0  0  0
156155  1  0  0  0  0
157161  1  0  0  0  0
158157  2  0  0  0  0
158163  1  0  0  0  0
159160  1  6  0  0  0
159261  1  0  0  0  0
159158  1  0  0  0  0
160262  1  1  0  0  0
160155  1  0  0  0  0
161162  1  0  0  0  0
162164  1  0  0  0  0
163162  2  0  0  0  0
164168  1  0  0  0  0
164165  2  0  0  0  0
165264  1  0  0  0  0
165166  1  0  0  0  0
166169  1  0  0  0  0
167166  2  0  0  0  0
167265  1  0  0  0  0
168167  1  0  0  0  0
169266  1  0  0  0  0
169170  1  0  0  0  0
170268  1  0  0  0  0
170269  1  0  0  0  0
171159  1  0  0  0  0
172171  2  0  0  0  0
173174  2  0  0  0  0
173172  1  0  0  0  0
174160  1  0  0  0  0
176 10  1  0  0  0  0
177 11  1  0  0  0  0
179 20  1  0  0  0  0
181 29  1  0  0  0  0
182 29  1  0  0  0  0
184 30  1  0  0  0  0
187 32  1  0  0  0  0
190 33  1  0  0  0  0
191 34  1  0  0  0  0
192 34  1  0  0  0  0
194 35  1  0  0  0  0
196 40  1  0  0  0  0
197 43  1  0  0  0  0
200 49  1  0  0  0  0
203 54  1  0  0  0  0
205 54  1  0  0  0  0
207 57  1  0  0  0  0
209 68  1  0  0  0  0
211 78  1  0  0  0  0
214 87  1  0  0  0  0
216 88  1  0  0  0  0
217 88  1  0  0  0  0
218 90  1  0  0  0  0
219 90  1  0  0  0  0
223 92  1  0  0  0  0
224 92  1  0  0  0  0
226 93  1  0  0  0  0
229101  1  0  0  0  0
234111  1  0  0  0  0
237112  1  0  0  0  0
241126  1  0  0  0  0
243136  1  0  0  0  0
244142  1  0  0  0  0
245145  1  0  0  0  0
246145  1  0  0  0  0
248146  1  0  0  0  0
252149  1  0  0  0  0
254149  1  0  0  0  0
256150  1  0  0  0  0
258151  1  0  0  0  0
259151  1  0  0  0  0
260156  1  0  0  0  0
263163  1  0  0  0  0
267169  1  0  0  0  0
270170  1  0  0  0  0
271172  1  0  0  0  0
272173  1  0  0  0  0
M  END
