SCF done       -438.485780575437          0.000240351139
 OpenBabel12282109573D

245271  0  0  0  0  0  0  0  0999 V2000
   -2.9060    4.3470    3.2149 C   0  0  0  0  0  0  0  0  0  0  0  0
   -2.1682    3.1417    3.1427 C   0  0  0  0  0  0  0  0  0  0  0  0
   -0.7795    3.0917    3.2000 C   0  0  0  0  0  0  0  0  0  0  0  0
   -0.1128    4.3208    3.3605 C   0  0  0  0  0  0  0  0  0  0  0  0
   -0.8494    5.5278    3.4306 C   0  0  0  0  0  0  0  0  0  0  0  0
   -2.2387    5.5769    3.3665 C   0  0  0  0  0  0  0  0  0  0  0  0
   -4.3047    4.1099    3.0690 C   0  0  0  0  0  0  0  0  0  0  0  0
   -4.6045    2.8056    2.9072 C   0  0  0  0  0  0  0  0  0  0  0  0
   -3.2200    1.7707    2.9176 S   0  0  0  0  0  0  0  0  0  0  0  0
    1.2752    4.5397    3.5280 C   0  0  0  0  0  0  0  0  0  0  0  0
    1.6121    5.8495    3.7039 C   0  0  0  0  0  0  0  0  0  0  0  0
    0.2065    6.8958    3.6753 S   0  0  0  0  0  0  0  0  0  0  0  0
   -0.0308    1.8545    3.1079 C   0  0  0  0  0  0  0  0  0  0  0  0
    1.1293    1.6261    2.4238 C   0  0  0  0  0  0  0  0  0  0  0  0
    1.6067    0.3092    2.5906 C   0  0  0  0  0  0  0  0  0  0  0  0
    0.8352   -0.4741    3.3984 C   0  0  0  0  0  0  0  0  0  0  0  0
   -0.5336    0.4222    3.9606 S   0  0  0  0  0  0  0  0  0  0  0  0
    3.0569   -0.2456    1.8437 Cl  0  0  0  0  0  0  0  0  0  0  0  0
    1.0141   -1.9094    3.7511 C   0  0  0  0  0  0  0  0  0  0  0  0
    0.1846   -2.8064    2.8292 C   0  0  0  0  0  0  0  0  0  0  0  0
   -2.9383    6.8430    3.4695 C   0  0  0  0  0  0  0  0  0  0  0  0
   -2.5767    8.0416    2.9242 C   0  0  0  0  0  0  0  0  0  0  0  0
   -3.4564    9.0875    3.2753 C   0  0  0  0  0  0  0  0  0  0  0  0
   -4.4872    8.7124    4.0865 C   0  0  0  0  0  0  0  0  0  0  0  0
   -4.3761    7.0224    4.4368 S   0  0  0  0  0  0  0  0  0  0  0  0
   -3.2430   10.7006    2.7121 Cl  0  0  0  0  0  0  0  0  0  0  0  0
   -5.5580    9.5577    4.6826 C   0  0  0  0  0  0  0  0  0  0  0  0
   -5.1575   10.0485    6.0760 C   0  0  0  0  0  0  0  0  0  0  0  0
    2.9260    6.3642    3.8807 C   0  0  0  0  0  0  0  0  0  0  0  0
    3.3250    7.6354    4.2283 C   0  0  0  0  0  0  0  0  0  0  0  0
    4.7095    7.7623    4.3370 C   0  0  0  0  0  0  0  0  0  0  0  0
    5.3946    6.5942    4.0681 C   0  0  0  0  0  0  0  0  0  0  0  0
    4.2945    5.3159    3.6601 S   0  0  0  0  0  0  0  0  0  0  0  0
    6.8083    6.3714    4.1048 C   0  0  0  0  0  0  0  0  0  0  0  0
    7.3744    5.1384    3.7604 C   0  0  0  0  0  0  0  0  0  0  0  0
    8.7768    4.9236    3.7329 C   0  0  0  0  0  0  0  0  0  0  0  0
    9.6809    5.8749    4.2039 C   0  0  0  0  0  0  0  0  0  0  0  0
    9.1235    7.1189    4.5937 C   0  0  0  0  0  0  0  0  0  0  0  0
    7.7144    7.3846    4.5104 C   0  0  0  0  0  0  0  0  0  0  0  0
    6.5057    4.1550    3.3910 O   0  0  0  0  0  0  0  0  0  0  0  0
    9.2495    3.7403    3.2050 O   0  0  0  0  0  0  0  0  0  0  0  0
    9.8083    8.1735    5.0246 N   0  0  0  0  0  0  0  0  0  0  0  0
    8.7875    9.3855    5.2994 S   0  0  0  0  0  0  0  0  0  0  0  0
    7.4283    8.6302    4.8851 N   0  0  0  0  0  0  0  0  0  0  0  0
   11.1008    5.6776    4.2688 C   0  0  0  0  0  0  0  0  0  0  0  0
   11.8296    4.5125    4.1436 C   0  0  0  0  0  0  0  0  0  0  0  0
   13.2067    4.7026    4.2531 C   0  0  0  0  0  0  0  0  0  0  0  0
   13.5553    6.0174    4.4679 C   0  0  0  0  0  0  0  0  0  0  0  0
   12.1480    7.0356    4.5543 S   0  0  0  0  0  0  0  0  0  0  0  0
    6.7142    2.8215    3.8552 C   0  0  0  0  0  0  0  0  0  0  0  0
    5.3575    2.1767    4.0949 C   0  0  0  0  0  0  0  0  0  0  0  0
    9.1504    3.6560    1.7854 C   0  0  0  0  0  0  0  0  0  0  0  0
   10.0968    4.6104    1.0670 C   0  0  0  0  0  0  0  0  0  0  0  0
   16.5358    8.1458    4.9924 C   0  0  0  0  0  0  0  0  0  0  0  0
   17.3111    6.9788    4.7810 C   0  0  0  0  0  0  0  0  0  0  0  0
   18.7010    6.9688    4.8260 C   0  0  0  0  0  0  0  0  0  0  0  0
   19.3310    8.2102    5.0488 C   0  0  0  0  0  0  0  0  0  0  0  0
   18.5547    9.3765    5.2617 C   0  0  0  0  0  0  0  0  0  0  0  0
   17.1646    9.3770    5.2670 C   0  0  0  0  0  0  0  0  0  0  0  0
   15.1508    7.8846    4.8779 C   0  0  0  0  0  0  0  0  0  0  0  0
   14.8520    6.5767    4.6305 C   0  0  0  0  0  0  0  0  0  0  0  0
   16.2938    5.5886    4.5077 S   0  0  0  0  0  0  0  0  0  0  0  0
   20.7173    8.4903    5.0804 C   0  0  0  0  0  0  0  0  0  0  0  0
   21.0128    9.7970    5.3378 C   0  0  0  0  0  0  0  0  0  0  0  0
   19.5679   10.7660    5.5486 S   0  0  0  0  0  0  0  0  0  0  0  0
   19.4514    5.7391    4.6703 C   0  0  0  0  0  0  0  0  0  0  0  0
   19.1913    4.6942    3.8299 C   0  0  0  0  0  0  0  0  0  0  0  0
   20.1149    3.6370    3.9735 C   0  0  0  0  0  0  0  0  0  0  0  0
   21.0692    3.8434    4.9264 C   0  0  0  0  0  0  0  0  0  0  0  0
   20.8413    5.3911    5.6627 S   0  0  0  0  0  0  0  0  0  0  0  0
   20.0295    2.2061    3.0190 Cl  0  0  0  0  0  0  0  0  0  0  0  0
   22.2195    2.9779    5.3061 C   0  0  0  0  0  0  0  0  0  0  0  0
   23.5214    3.4943    4.6880 C   0  0  0  0  0  0  0  0  0  0  0  0
   16.4071   10.5763    5.5631 C   0  0  0  0  0  0  0  0  0  0  0  0
   16.6674   11.8596    5.1757 C   0  0  0  0  0  0  0  0  0  0  0  0
   15.7233   12.7815    5.6773 C   0  0  0  0  0  0  0  0  0  0  0  0
   14.7536   12.2298    6.4625 C   0  0  0  0  0  0  0  0  0  0  0  0
   14.9959   10.5220    6.5844 S   0  0  0  0  0  0  0  0  0  0  0  0
   15.8044   14.4641    5.3187 Cl  0  0  0  0  0  0  0  0  0  0  0  0
   13.5831   12.8800    7.1134 C   0  0  0  0  0  0  0  0  0  0  0  0
   12.2773   12.4891    6.4171 C   0  0  0  0  0  0  0  0  0  0  0  0
   22.3057   10.3838    5.4153 C   0  0  0  0  0  0  0  0  0  0  0  0
   22.6356   11.6956    5.6734 C   0  0  0  0  0  0  0  0  0  0  0  0
   24.0104   11.9291    5.6511 C   0  0  0  0  0  0  0  0  0  0  0  0
   24.7554   10.8005    5.3786 C   0  0  0  0  0  0  0  0  0  0  0  0
   23.7282    9.4133    5.1723 S   0  0  0  0  0  0  0  0  0  0  0  0
   26.1824   10.6593    5.2831 C   0  0  0  0  0  0  0  0  0  0  0  0
   27.0652   11.7180    5.0777 C   0  0  0  0  0  0  0  0  0  0  0  0
   28.4712   11.5350    5.0758 C   0  0  0  0  0  0  0  0  0  0  0  0
   29.0692   10.2755    5.1784 C   0  0  0  0  0  0  0  0  0  0  0  0
   28.1889    9.1716    5.3213 C   0  0  0  0  0  0  0  0  0  0  0  0
   26.7680    9.3722    5.3836 C   0  0  0  0  0  0  0  0  0  0  0  0
   26.5936   12.9944    4.8441 O   0  0  0  0  0  0  0  0  0  0  0  0
   29.3128   12.5919    4.8698 O   0  0  0  0  0  0  0  0  0  0  0  0
   28.5058    7.8823    5.4222 N   0  0  0  0  0  0  0  0  0  0  0  0
   27.1594    7.0156    5.5809 S   0  0  0  0  0  0  0  0  0  0  0  0
   26.1052    8.2289    5.5289 N   0  0  0  0  0  0  0  0  0  0  0  0
   30.4896   10.1092    5.1153 C   0  0  0  0  0  0  0  0  0  0  0  0
   31.2104    8.9399    5.2501 C   0  0  0  0  0  0  0  0  0  0  0  0
   32.5870    9.1182    5.1322 C   0  0  0  0  0  0  0  0  0  0  0  0
   32.9454   10.4283    4.8982 C   0  0  0  0  0  0  0  0  0  0  0  0
   31.5470   11.4589    4.8304 S   0  0  0  0  0  0  0  0  0  0  0  0
   26.0752   13.2059    3.5349 C   0  0  0  0  0  0  0  0  0  0  0  0
   27.1462   13.1166    2.4551 C   0  0  0  0  0  0  0  0  0  0  0  0
   29.2340   13.7103    5.7479 C   0  0  0  0  0  0  0  0  0  0  0  0
   29.5450   13.3333    7.1904 C   0  0  0  0  0  0  0  0  0  0  0  0
   35.9838   12.4699    4.3327 C   0  0  0  0  0  0  0  0  0  0  0  0
   36.7138   11.2610    4.4471 C   0  0  0  0  0  0  0  0  0  0  0  0
   38.0901   11.1761    4.2658 C   0  0  0  0  0  0  0  0  0  0  0  0
   38.7602   12.3786    3.9660 C   0  0  0  0  0  0  0  0  0  0  0  0
   38.0311   13.5877    3.8539 C   0  0  0  0  0  0  0  0  0  0  0  0
   36.6548   13.6736    4.0370 C   0  0  0  0  0  0  0  0  0  0  0  0
   34.5927   12.2600    4.4843 C   0  0  0  0  0  0  0  0  0  0  0  0
   34.2512   10.9594    4.7177 C   0  0  0  0  0  0  0  0  0  0  0  0
   35.6566    9.9135    4.7699 S   0  0  0  0  0  0  0  0  0  0  0  0
   40.1505   12.5839    3.7931 C   0  0  0  0  0  0  0  0  0  0  0  0
   40.4902   13.8804    3.5435 C   0  0  0  0  0  0  0  0  0  0  0  0
   39.0890   14.9318    3.5143 S   0  0  0  0  0  0  0  0  0  0  0  0
   38.7778    9.9042    4.3621 C   0  0  0  0  0  0  0  0  0  0  0  0
   38.5400    8.8874    5.2421 C   0  0  0  0  0  0  0  0  0  0  0  0
   39.3649    7.7653    5.0142 C   0  0  0  0  0  0  0  0  0  0  0  0
   40.2191    7.8947    3.9585 C   0  0  0  0  0  0  0  0  0  0  0  0
   40.0240    9.4515    3.2311 S   0  0  0  0  0  0  0  0  0  0  0  0
   39.2841    6.3501    5.9916 Cl  0  0  0  0  0  0  0  0  0  0  0  0
   41.2503    6.9401    3.4674 C   0  0  0  0  0  0  0  0  0  0  0  0
   42.6350    7.3006    4.0110 C   0  0  0  0  0  0  0  0  0  0  0  0
   35.9664   14.9446    3.9380 C   0  0  0  0  0  0  0  0  0  0  0  0
   36.2113   15.9638    3.0620 C   0  0  0  0  0  0  0  0  0  0  0  0
   35.3893   17.0874    3.2894 C   0  0  0  0  0  0  0  0  0  0  0  0
   34.5175   16.9504    4.3299 C   0  0  0  0  0  0  0  0  0  0  0  0
   34.7104   15.3947    5.0593 S   0  0  0  0  0  0  0  0  0  0  0  0
   35.4792   18.5085    2.3213 Cl  0  0  0  0  0  0  0  0  0  0  0  0
   33.5543   17.9478    4.8725 C   0  0  0  0  0  0  0  0  0  0  0  0
   34.2072   18.8038    5.9607 C   0  0  0  0  0  0  0  0  0  0  0  0
   41.7900   14.4083    3.3029 C   0  0  0  0  0  0  0  0  0  0  0  0
   42.1513   15.7069    3.0396 C   0  0  0  0  0  0  0  0  0  0  0  0
   43.5256   15.8692    2.8309 C   0  0  0  0  0  0  0  0  0  0  0  0
   44.2323   14.6964    2.9061 C   0  0  0  0  0  0  0  0  0  0  0  0
   43.1815   13.3623    3.2943 S   0  0  0  0  0  0  0  0  0  0  0  0
   45.6719   14.5252    2.8573 C   0  0  0  0  0  0  0  0  0  0  0  0
   46.3399   13.4530    2.2740 C   0  0  0  0  0  0  0  0  0  0  0  0
   47.7365   13.2230    2.5062 C   0  0  0  0  0  0  0  0  0  0  0  0
   48.5119   14.0955    3.2652 C   0  0  0  0  0  0  0  0  0  0  0  0
   47.8674   15.2590    3.7528 C   0  0  0  0  0  0  0  0  0  0  0  0
   46.4634   15.4706    3.5539 C   0  0  0  0  0  0  0  0  0  0  0  0
   45.7313   12.5322    1.4781 O   0  0  0  0  0  0  0  0  0  0  0  0
   48.3413   12.0856    2.0492 O   0  0  0  0  0  0  0  0  0  0  0  0
   48.4272   16.2469    4.4438 N   0  0  0  0  0  0  0  0  0  0  0  0
   47.2987   17.3322    4.8134 S   0  0  0  0  0  0  0  0  0  0  0  0
   46.0439   16.6021    4.1166 N   0  0  0  0  0  0  0  0  0  0  0  0
   49.9144   13.8917    3.5333 C   0  0  0  0  0  0  0  0  0  0  0  0
   50.6594   12.7400    3.4699 C   0  0  0  0  0  0  0  0  0  0  0  0
   52.0155   12.9392    3.7812 C   0  0  0  0  0  0  0  0  0  0  0  0
   52.2986   14.2363    4.0771 C   0  0  0  0  0  0  0  0  0  0  0  0
   50.9096   15.2406    4.0058 S   0  0  0  0  0  0  0  0  0  0  0  0
   44.7092   12.9260    0.5711 C   0  0  0  0  0  0  0  0  0  0  0  0
   45.0675   12.4784   -0.8418 C   0  0  0  0  0  0  0  0  0  0  0  0
   48.3817   11.8272    0.6510 C   0  0  0  0  0  0  0  0  0  0  0  0
   48.9570   12.9963   -0.1388 C   0  0  0  0  0  0  0  0  0  0  0  0
   -5.0450    4.8878    3.0747 H   0  0  0  0  0  0  0  0  0  0  0  0
   -5.5730    2.3641    2.7765 H   0  0  0  0  0  0  0  0  0  0  0  0
    2.0080    3.7549    3.5552 H   0  0  0  0  0  0  0  0  0  0  0  0
    1.6069    2.3498    1.7897 H   0  0  0  0  0  0  0  0  0  0  0  0
    0.7067   -2.0714    4.7860 H   0  0  0  0  0  0  0  0  0  0  0  0
    2.0715   -2.1655    3.6578 H   0  0  0  0  0  0  0  0  0  0  0  0
   -0.8712   -2.5597    2.9147 H   0  0  0  0  0  0  0  0  0  0  0  0
    0.3231   -3.8505    3.0974 H   0  0  0  0  0  0  0  0  0  0  0  0
    0.4900   -2.6688    1.7947 H   0  0  0  0  0  0  0  0  0  0  0  0
   -1.7356    8.1774    2.2703 H   0  0  0  0  0  0  0  0  0  0  0  0
   -6.4822    8.9808    4.7528 H   0  0  0  0  0  0  0  0  0  0  0  0
   -5.7310   10.4156    4.0295 H   0  0  0  0  0  0  0  0  0  0  0  0
   -4.9872    9.2035    6.7394 H   0  0  0  0  0  0  0  0  0  0  0  0
   -5.9451   10.6689    6.4956 H   0  0  0  0  0  0  0  0  0  0  0  0
   -4.2439   10.6353    6.0200 H   0  0  0  0  0  0  0  0  0  0  0  0
    2.6294    8.4373    4.4034 H   0  0  0  0  0  0  0  0  0  0  0  0
    5.2152    8.6711    4.6040 H   0  0  0  0  0  0  0  0  0  0  0  0
   11.3687    3.5546    3.9921 H   0  0  0  0  0  0  0  0  0  0  0  0
   13.9334    3.9122    4.1829 H   0  0  0  0  0  0  0  0  0  0  0  0
    7.3046    2.8363    4.7772 H   0  0  0  0  0  0  0  0  0  0  0  0
    7.2626    2.2486    3.0997 H   0  0  0  0  0  0  0  0  0  0  0  0
    4.8211    2.6945    4.8849 H   0  0  0  0  0  0  0  0  0  0  0  0
    5.4971    1.1374    4.3788 H   0  0  0  0  0  0  0  0  0  0  0  0
    4.7640    2.2191    3.1862 H   0  0  0  0  0  0  0  0  0  0  0  0
    8.1190    3.8471    1.4622 H   0  0  0  0  0  0  0  0  0  0  0  0
    9.4104    2.6193    1.5571 H   0  0  0  0  0  0  0  0  0  0  0  0
    9.8479    5.6435    1.3015 H   0  0  0  0  0  0  0  0  0  0  0  0
   10.0078    4.4646   -0.0060 H   0  0  0  0  0  0  0  0  0  0  0  0
   11.1246    4.4248    1.3678 H   0  0  0  0  0  0  0  0  0  0  0  0
   14.3838    8.6320    4.9598 H   0  0  0  0  0  0  0  0  0  0  0  0
   21.4868    7.7615    4.9053 H   0  0  0  0  0  0  0  0  0  0  0  0
   18.3977    4.6841    3.1065 H   0  0  0  0  0  0  0  0  0  0  0  0
   22.0229    1.9623    4.9573 H   0  0  0  0  0  0  0  0  0  0  0  0
   22.3194    2.9588    6.3936 H   0  0  0  0  0  0  0  0  0  0  0  0
   23.4440    3.5069    3.6034 H   0  0  0  0  0  0  0  0  0  0  0  0
   24.3509    2.8513    4.9703 H   0  0  0  0  0  0  0  0  0  0  0  0
   23.7287    4.5050    5.0333 H   0  0  0  0  0  0  0  0  0  0  0  0
   17.4748   12.1424    4.5265 H   0  0  0  0  0  0  0  0  0  0  0  0
   13.7170   13.9623    7.0704 H   0  0  0  0  0  0  0  0  0  0  0  0
   13.5346   12.5790    8.1628 H   0  0  0  0  0  0  0  0  0  0  0  0
   12.2992   12.7970    5.3744 H   0  0  0  0  0  0  0  0  0  0  0  0
   11.4340   12.9711    6.9047 H   0  0  0  0  0  0  0  0  0  0  0  0
   12.1352   11.4112    6.4572 H   0  0  0  0  0  0  0  0  0  0  0  0
   21.8974   12.4532    5.8698 H   0  0  0  0  0  0  0  0  0  0  0  0
   24.4558   12.8871    5.8466 H   0  0  0  0  0  0  0  0  0  0  0  0
   30.7345    7.9936    5.4266 H   0  0  0  0  0  0  0  0  0  0  0  0
   33.3076    8.3230    5.2102 H   0  0  0  0  0  0  0  0  0  0  0  0
   25.6528   14.2129    3.5740 H   0  0  0  0  0  0  0  0  0  0  0  0
   25.2696   12.4903    3.3276 H   0  0  0  0  0  0  0  0  0  0  0  0
   27.9658   13.7959    2.6762 H   0  0  0  0  0  0  0  0  0  0  0  0
   26.7135   13.3810    1.4942 H   0  0  0  0  0  0  0  0  0  0  0  0
   27.5446   12.1057    2.3942 H   0  0  0  0  0  0  0  0  0  0  0  0
   28.2466   14.1761    5.6835 H   0  0  0  0  0  0  0  0  0  0  0  0
   29.9892   14.3975    5.3591 H   0  0  0  0  0  0  0  0  0  0  0  0
   28.8025   12.6314    7.5658 H   0  0  0  0  0  0  0  0  0  0  0  0
   29.5279   14.2248    7.8109 H   0  0  0  0  0  0  0  0  0  0  0  0
   30.5280   12.8736    7.2573 H   0  0  0  0  0  0  0  0  0  0  0  0
   33.8518   13.0339    4.4053 H   0  0  0  0  0  0  0  0  0  0  0  0
   40.8884   11.8061    3.8626 H   0  0  0  0  0  0  0  0  0  0  0  0
   37.8313    8.9400    6.0473 H   0  0  0  0  0  0  0  0  0  0  0  0
   41.2742    6.9577    2.3757 H   0  0  0  0  0  0  0  0  0  0  0  0
   40.9785    5.9342    3.7933 H   0  0  0  0  0  0  0  0  0  0  0  0
   42.9193    8.3000    3.6893 H   0  0  0  0  0  0  0  0  0  0  0  0
   43.3760    6.5932    3.6480 H   0  0  0  0  0  0  0  0  0  0  0  0
   42.6315    7.2740    5.0981 H   0  0  0  0  0  0  0  0  0  0  0  0
   36.9243   15.9121    2.2606 H   0  0  0  0  0  0  0  0  0  0  0  0
   32.6881   17.4293    5.2880 H   0  0  0  0  0  0  0  0  0  0  0  0
   33.2180   18.5914    4.0566 H   0  0  0  0  0  0  0  0  0  0  0  0
   34.5450   18.1767    6.7826 H   0  0  0  0  0  0  0  0  0  0  0  0
   33.4952   19.5298    6.3446 H   0  0  0  0  0  0  0  0  0  0  0  0
   35.0643   19.3366    5.5561 H   0  0  0  0  0  0  0  0  0  0  0  0
   41.4361   16.5093    3.0004 H   0  0  0  0  0  0  0  0  0  0  0  0
   43.9945   16.8121    2.6195 H   0  0  0  0  0  0  0  0  0  0  0  0
   50.2364   11.7840    3.2288 H   0  0  0  0  0  0  0  0  0  0  0  0
   52.7471   12.1507    3.7851 H   0  0  0  0  0  0  0  0  0  0  0  0
   53.2445   14.6631    4.3463 H   0  0  0  0  0  0  0  0  0  0  0  0
   44.5713   14.0112    0.5934 H   0  0  0  0  0  0  0  0  0  0  0  0
   43.7742   12.4447    0.8793 H   0  0  0  0  0  0  0  0  0  0  0  0
   45.9714   12.9737   -1.1881 H   0  0  0  0  0  0  0  0  0  0  0  0
   44.2504   12.7315   -1.5120 H   0  0  0  0  0  0  0  0  0  0  0  0
   45.2205   11.4028   -0.8677 H   0  0  0  0  0  0  0  0  0  0  0  0
   47.3904   11.5570    0.2797 H   0  0  0  0  0  0  0  0  0  0  0  0
   49.0376   10.9562    0.5706 H   0  0  0  0  0  0  0  0  0  0  0  0
   48.3086   13.8675   -0.0596 H   0  0  0  0  0  0  0  0  0  0  0  0
   49.0513   12.7214   -1.1860 H   0  0  0  0  0  0  0  0  0  0  0  0
   49.9382   13.2638    0.2474 H   0  0  0  0  0  0  0  0  0  0  0  0
  1  6  2  0  0  0  0
  2  3  2  0  0  0  0
  2  1  1  0  0  0  0
  3  4  1  0  0  0  0
  4  5  2  0  0  0  0
  4 10  1  0  0  0  0
  5 12  1  0  0  0  0
  6  5  1  0  0  0  0
  6 21  1  0  0  0  0
  7160  1  0  0  0  0
  7  1  1  0  0  0  0
  8  9  1  0  0  0  0
  8  7  2  0  0  0  0
  9  2  1  0  0  0  0
 10162  1  0  0  0  0
 10 11  2  0  0  0  0
 11 29  1  0  0  0  0
 12 11  1  0  0  0  0
 13  3  1  0  0  0  0
 13 17  1  0  0  0  0
 14 15  1  0  0  0  0
 14 13  2  0  0  0  0
 15 16  2  0  0  0  0
 16 19  1  0  0  0  0
 16 17  1  0  0  0  0
 18 15  1  0  0  0  0
 19164  1  0  0  0  0
 20166  1  0  0  0  0
 20167  1  0  0  0  0
 20 19  1  0  0  0  0
 21 25  1  0  0  0  0
 22 23  1  0  0  0  0
 22 21  2  0  0  0  0
 23 24  2  0  0  0  0
 24 25  1  0  0  0  0
 24 27  1  0  0  0  0
 26 23  1  0  0  0  0
 27170  1  0  0  0  0
 27 28  1  0  0  0  0
 28173  1  0  0  0  0
 28172  1  0  0  0  0
 29 30  2  0  0  0  0
 30 31  1  0  0  0  0
 30175  1  0  0  0  0
 31176  1  0  0  0  0
 32 34  1  0  0  0  0
 32 31  2  0  0  0  0
 33 29  1  0  0  0  0
 33 32  1  0  0  0  0
 34 39  1  0  0  0  0
 35 34  2  0  0  0  0
 36 35  1  0  0  0  0
 36 37  2  0  0  0  0
 37 45  1  0  0  0  0
 37 38  1  0  0  0  0
 38 42  2  0  0  0  0
 39 38  1  0  0  0  0
 39 44  2  0  0  0  0
 40 35  1  0  0  0  0
 40 50  1  0  0  0  0
 41 36  1  0  0  0  0
 42 43  1  0  0  0  0
 44 43  1  0  0  0  0
 45 49  1  0  0  0  0
 46 47  1  0  0  0  0
 46 45  2  0  0  0  0
 47 48  2  0  0  0  0
 48 49  1  0  0  0  0
 48 61  1  0  0  0  0
 50 51  1  0  0  0  0
 50179  1  0  0  0  0
 51182  1  0  0  0  0
 51181  1  0  0  0  0
 52 41  1  0  0  0  0
 53186  1  0  0  0  0
 53188  1  0  0  0  0
 53 52  1  0  0  0  0
 54 59  2  0  0  0  0
 55 56  2  0  0  0  0
 55 54  1  0  0  0  0
 56 57  1  0  0  0  0
 57 63  1  0  0  0  0
 57 58  2  0  0  0  0
 58 59  1  0  0  0  0
 58 65  1  0  0  0  0
 59 74  1  0  0  0  0
 60189  1  0  0  0  0
 60 54  1  0  0  0  0
 61 60  2  0  0  0  0
 62 61  1  0  0  0  0
 62 55  1  0  0  0  0
 63 64  2  0  0  0  0
 64 82  1  0  0  0  0
 64 65  1  0  0  0  0
 66 56  1  0  0  0  0
 66 70  1  0  0  0  0
 67 68  1  0  0  0  0
 67 66  2  0  0  0  0
 68 69  2  0  0  0  0
 69 72  1  0  0  0  0
 69 70  1  0  0  0  0
 71 68  1  0  0  0  0
 72193  1  0  0  0  0
 73195  1  0  0  0  0
 73196  1  0  0  0  0
 73 72  1  0  0  0  0
 74 78  1  0  0  0  0
 75 74  2  0  0  0  0
 75 76  1  0  0  0  0
 76 77  2  0  0  0  0
 77 78  1  0  0  0  0
 77 80  1  0  0  0  0
 79 76  1  0  0  0  0
 80199  1  0  0  0  0
 81202  1  0  0  0  0
 81201  1  0  0  0  0
 81 80  1  0  0  0  0
 82 83  2  0  0  0  0
 83203  1  0  0  0  0
 84 83  1  0  0  0  0
 84204  1  0  0  0  0
 85 84  2  0  0  0  0
 86 85  1  0  0  0  0
 86 82  1  0  0  0  0
 87 85  1  0  0  0  0
 87 92  1  0  0  0  0
 88 87  2  0  0  0  0
 89 88  1  0  0  0  0
 89 90  2  0  0  0  0
 90 91  1  0  0  0  0
 91 92  1  0  0  0  0
 91 95  2  0  0  0  0
 92 97  2  0  0  0  0
 93 88  1  0  0  0  0
 94 89  1  0  0  0  0
 94105  1  0  0  0  0
 95 96  1  0  0  0  0
 97 96  1  0  0  0  0
 98 90  1  0  0  0  0
 98 99  2  0  0  0  0
 99205  1  0  0  0  0
100206  1  0  0  0  0
100 99  1  0  0  0  0
101100  2  0  0  0  0
102101  1  0  0  0  0
102 98  1  0  0  0  0
103207  1  0  0  0  0
103 93  1  0  0  0  0
104209  1  0  0  0  0
104103  1  0  0  0  0
105106  1  0  0  0  0
106216  1  0  0  0  0
106214  1  0  0  0  0
106215  1  0  0  0  0
107108  1  0  0  0  0
107113  1  0  0  0  0
108115  1  0  0  0  0
109119  1  0  0  0  0
109108  2  0  0  0  0
110109  1  0  0  0  0
111110  2  0  0  0  0
111112  1  0  0  0  0
112107  2  0  0  0  0
113114  2  0  0  0  0
114115  1  0  0  0  0
114101  1  0  0  0  0
116218  1  0  0  0  0
116110  1  0  0  0  0
117116  2  0  0  0  0
118117  1  0  0  0  0
118111  1  0  0  0  0
119120  2  0  0  0  0
120219  1  0  0  0  0
121120  1  0  0  0  0
121124  1  0  0  0  0
122121  2  0  0  0  0
123122  1  0  0  0  0
123119  1  0  0  0  0
125221  1  0  0  0  0
125122  1  0  0  0  0
125126  1  0  0  0  0
126224  1  0  0  0  0
127112  1  0  0  0  0
127131  1  0  0  0  0
128129  1  0  0  0  0
128127  2  0  0  0  0
129130  2  0  0  0  0
130133  1  0  0  0  0
130131  1  0  0  0  0
132129  1  0  0  0  0
133226  1  0  0  0  0
133134  1  0  0  0  0
134229  1  0  0  0  0
134228  1  0  0  0  0
135117  1  0  0  0  0
136135  2  0  0  0  0
137138  2  0  0  0  0
137136  1  0  0  0  0
138139  1  0  0  0  0
139135  1  0  0  0  0
140138  1  0  0  0  0
140145  1  0  0  0  0
141142  1  0  0  0  0
141140  2  0  0  0  0
142143  2  0  0  0  0
143151  1  0  0  0  0
143144  1  0  0  0  0
144148  2  0  0  0  0
145144  1  0  0  0  0
145150  2  0  0  0  0
146141  1  0  0  0  0
147142  1  0  0  0  0
148149  1  0  0  0  0
150149  1  0  0  0  0
151155  1  0  0  0  0
152151  2  0  0  0  0
152153  1  0  0  0  0
153234  1  0  0  0  0
153154  2  0  0  0  0
154235  1  0  0  0  0
155154  1  0  0  0  0
156236  1  0  0  0  0
156237  1  0  0  0  0
156146  1  0  0  0  0
157156  1  0  0  0  0
158147  1  0  0  0  0
159243  1  0  0  0  0
159245  1  0  0  0  0
159158  1  0  0  0  0
161  8  1  0  0  0  0
163 14  1  0  0  0  0
165 19  1  0  0  0  0
168 20  1  0  0  0  0
169 22  1  0  0  0  0
171 27  1  0  0  0  0
174 28  1  0  0  0  0
177 46  1  0  0  0  0
178 47  1  0  0  0  0
180 50  1  0  0  0  0
183 51  1  0  0  0  0
184 52  1  0  0  0  0
185 52  1  0  0  0  0
187 53  1  0  0  0  0
190 63  1  0  0  0  0
191 67  1  0  0  0  0
192 72  1  0  0  0  0
194 73  1  0  0  0  0
197 75  1  0  0  0  0
198 80  1  0  0  0  0
200 81  1  0  0  0  0
208103  1  0  0  0  0
210104  1  0  0  0  0
211104  1  0  0  0  0
212105  1  0  0  0  0
213105  1  0  0  0  0
217113  1  0  0  0  0
220125  1  0  0  0  0
222126  1  0  0  0  0
223126  1  0  0  0  0
225128  1  0  0  0  0
227133  1  0  0  0  0
230134  1  0  0  0  0
231136  1  0  0  0  0
232137  1  0  0  0  0
233152  1  0  0  0  0
238157  1  0  0  0  0
239157  1  0  0  0  0
240157  1  0  0  0  0
241158  1  0  0  0  0
242158  1  0  0  0  0
244159  1  0  0  0  0
M  END
