SCF done       -445.262721861708          0.000992430729
 OpenBabel12282109573D

224250  0  0  0  0  0  0  0  0999 V2000
   15.6282    9.0019    7.0905 C   0  0  0  0  0  0  0  0  0  0  0  0
   15.1200   10.2585    7.4579 C   0  0  0  0  0  0  0  0  0  0  0  0
   13.7703   10.5848    7.1872 C   0  0  0  0  0  0  0  0  0  0  0  0
   12.8954    9.7114    6.5527 C   0  0  0  0  0  0  0  0  0  0  0  0
   13.4233    8.4809    6.1272 C   0  0  0  0  0  0  0  0  0  0  0  0
   14.7716    8.1502    6.4065 C   0  0  0  0  0  0  0  0  0  0  0  0
   15.8020   11.3360    8.0959 C   0  0  0  0  0  0  0  0  0  0  0  0
   15.0049   12.3995    8.3212 C   0  0  0  0  0  0  0  0  0  0  0  0
   13.3784   12.1765    7.7744 S   0  0  0  0  0  0  0  0  0  0  0  0
   12.7667    7.4519    5.4118 C   0  0  0  0  0  0  0  0  0  0  0  0
   13.5490    6.3591    5.1801 C   0  0  0  0  0  0  0  0  0  0  0  0
   15.1698    6.5592    5.8176 S   0  0  0  0  0  0  0  0  0  0  0  0
   16.9826    8.6046    7.4397 C   0  0  0  0  0  0  0  0  0  0  0  0
   11.4966   10.0358    6.3301 C   0  0  0  0  0  0  0  0  0  0  0  0
   10.3916    9.2917    6.6432 C   0  0  0  0  0  0  0  0  0  0  0  0
    9.1743    9.9089    6.2522 C   0  0  0  0  0  0  0  0  0  0  0  0
    9.3401   11.1207    5.6511 C   0  0  0  0  0  0  0  0  0  0  0  0
   11.0210   11.5156    5.5509 S   0  0  0  0  0  0  0  0  0  0  0  0
   17.5651    8.6031    8.6770 C   0  0  0  0  0  0  0  0  0  0  0  0
   19.3474    7.7760    7.4252 C   0  0  0  0  0  0  0  0  0  0  0  0
   18.1005    8.0120    6.2490 S   0  0  0  0  0  0  0  0  0  0  0  0
   13.1445    5.1535    4.5398 C   0  0  0  0  0  0  0  0  0  0  0  0
   11.4598    4.8824    4.2161 S   0  0  0  0  0  0  0  0  0  0  0  0
   11.8043    3.3189    3.5393 C   0  0  0  0  0  0  0  0  0  0  0  0
   13.1574    3.0528    3.5690 C   0  0  0  0  0  0  0  0  0  0  0  0
   13.9095    4.0810    4.1395 C   0  0  0  0  0  0  0  0  0  0  0  0
   10.7105    2.5088    3.0942 C   0  0  0  0  0  0  0  0  0  0  0  0
   10.8016    1.2655    2.4815 C   0  0  0  0  0  0  0  0  0  0  0  0
    9.6880    0.4877    2.1271 C   0  0  0  0  0  0  0  0  0  0  0  0
    8.3698    0.8689    2.3520 C   0  0  0  0  0  0  0  0  0  0  0  0
    8.2494    2.1487    2.9438 C   0  0  0  0  0  0  0  0  0  0  0  0
    9.3777    2.9347    3.2990 C   0  0  0  0  0  0  0  0  0  0  0  0
    7.1573    2.8434    3.2911 N   0  0  0  0  0  0  0  0  0  0  0  0
    7.6230    3.9465    3.8088 N   0  0  0  0  0  0  0  0  0  0  0  0
    8.9190    4.0653    3.8480 N   0  0  0  0  0  0  0  0  0  0  0  0
    7.2102    0.0679    2.0967 C   0  0  0  0  0  0  0  0  0  0  0  0
    6.7494    4.9581    4.3373 C   0  0  0  0  0  0  0  0  0  0  0  0
    7.3295    6.3442    4.1061 C   0  0  0  0  0  0  0  0  0  0  0  0
    7.1074   -1.1985    1.5589 C   0  0  0  0  0  0  0  0  0  0  0  0
    5.8033   -1.6931    1.5581 C   0  0  0  0  0  0  0  0  0  0  0  0
    4.8873   -0.8113    2.0881 C   0  0  0  0  0  0  0  0  0  0  0  0
    5.6520    0.6688    2.5836 S   0  0  0  0  0  0  0  0  0  0  0  0
    8.2986   12.0098    5.0668 C   0  0  0  0  0  0  0  0  0  0  0  0
   20.6635    7.1911    7.0482 C   0  0  0  0  0  0  0  0  0  0  0  0
   20.5989    5.6617    7.0556 C   0  0  0  0  0  0  0  0  0  0  0  0
    8.0537   11.6677    3.5950 C   0  0  0  0  0  0  0  0  0  0  0  0
   12.0095    0.7355    2.2074 F   0  0  0  0  0  0  0  0  0  0  0  0
    9.9572   -0.7026    1.5557 F   0  0  0  0  0  0  0  0  0  0  0  0
   18.9034    8.1272    8.6653 C   0  0  0  0  0  0  0  0  0  0  0  0
    7.6450    9.1862    6.5327 Cl  0  0  0  0  0  0  0  0  0  0  0  0
   10.4337    7.8002    7.4944 Cl  0  0  0  0  0  0  0  0  0  0  0  0
   19.8546    8.0175   10.0897 Cl  0  0  0  0  0  0  0  0  0  0  0  0
   16.7547    9.0487   10.1231 Cl  0  0  0  0  0  0  0  0  0  0  0  0
    0.1919    0.0336    3.5797 C   0  0  0  0  0  0  0  0  0  0  0  0
    1.3246   -0.6356    3.0736 C   0  0  0  0  0  0  0  0  0  0  0  0
    1.2576   -2.0127    2.7392 C   0  0  0  0  0  0  0  0  0  0  0  0
    0.1164   -2.7723    2.9292 C   0  0  0  0  0  0  0  0  0  0  0  0
   -0.9852   -2.1162    3.5077 C   0  0  0  0  0  0  0  0  0  0  0  0
   -0.9511   -0.7286    3.7852 C   0  0  0  0  0  0  0  0  0  0  0  0
    2.6110   -0.1036    2.8217 C   0  0  0  0  0  0  0  0  0  0  0  0
    3.4998   -1.0145    2.3281 C   0  0  0  0  0  0  0  0  0  0  0  0
    2.7677   -2.5917    2.0948 S   0  0  0  0  0  0  0  0  0  0  0  0
   -2.2005   -2.7020    3.9094 C   0  0  0  0  0  0  0  0  0  0  0  0
   -3.1045   -1.8205    4.4310 C   0  0  0  0  0  0  0  0  0  0  0  0
   -2.4626   -0.1934    4.4819 S   0  0  0  0  0  0  0  0  0  0  0  0
    0.2363    1.4501    3.9016 C   0  0  0  0  0  0  0  0  0  0  0  0
    0.0139   -4.1925    2.6293 C   0  0  0  0  0  0  0  0  0  0  0  0
   -0.9659   -4.8348    1.9226 C   0  0  0  0  0  0  0  0  0  0  0  0
   -0.8711   -6.2512    1.9815 C   0  0  0  0  0  0  0  0  0  0  0  0
    0.1893   -6.6957    2.7135 C   0  0  0  0  0  0  0  0  0  0  0  0
    1.0931   -5.3568    3.3393 S   0  0  0  0  0  0  0  0  0  0  0  0
   -0.6133    2.4452    3.5057 C   0  0  0  0  0  0  0  0  0  0  0  0
    0.8372    3.7072    4.8254 C   0  0  0  0  0  0  0  0  0  0  0  0
    1.4678    2.0988    4.9447 S   0  0  0  0  0  0  0  0  0  0  0  0
   -4.4389   -2.2076    4.7574 C   0  0  0  0  0  0  0  0  0  0  0  0
   -4.7181   -3.9206    4.8500 S   0  0  0  0  0  0  0  0  0  0  0  0
   -6.4409   -3.6928    4.7714 C   0  0  0  0  0  0  0  0  0  0  0  0
   -6.7529   -2.3510    4.8044 C   0  0  0  0  0  0  0  0  0  0  0  0
   -5.6267   -1.5151    4.8073 C   0  0  0  0  0  0  0  0  0  0  0  0
   -7.1850   -4.8505    4.3588 C   0  0  0  0  0  0  0  0  0  0  0  0
   -8.3943   -4.8413    3.6704 C   0  0  0  0  0  0  0  0  0  0  0  0
   -8.7687   -5.8477    2.7609 C   0  0  0  0  0  0  0  0  0  0  0  0
   -7.9593   -6.9380    2.4609 C   0  0  0  0  0  0  0  0  0  0  0  0
   -6.8704   -7.0941    3.3488 C   0  0  0  0  0  0  0  0  0  0  0  0
   -6.5034   -6.0892    4.2780 C   0  0  0  0  0  0  0  0  0  0  0  0
   -5.9261   -8.0423    3.3900 N   0  0  0  0  0  0  0  0  0  0  0  0
   -5.0799   -7.6199    4.2843 N   0  0  0  0  0  0  0  0  0  0  0  0
   -5.3525   -6.4747    4.8438 N   0  0  0  0  0  0  0  0  0  0  0  0
   -7.9154   -7.6240    1.1991 C   0  0  0  0  0  0  0  0  0  0  0  0
   -3.8932   -8.3558    4.6160 C   0  0  0  0  0  0  0  0  0  0  0  0
   -4.2466   -9.7092    5.2196 C   0  0  0  0  0  0  0  0  0  0  0  0
   -8.8155   -7.7327    0.1650 C   0  0  0  0  0  0  0  0  0  0  0  0
   -8.2281   -8.1402   -1.0397 C   0  0  0  0  0  0  0  0  0  0  0  0
   -6.8655   -8.3236   -0.9433 C   0  0  0  0  0  0  0  0  0  0  0  0
   -6.3222   -8.1075    0.6868 S   0  0  0  0  0  0  0  0  0  0  0  0
    0.5733   -8.0961    3.0410 C   0  0  0  0  0  0  0  0  0  0  0  0
    1.5185    4.8453    5.5018 C   0  0  0  0  0  0  0  0  0  0  0  0
    2.9151    5.0737    4.9213 C   0  0  0  0  0  0  0  0  0  0  0  0
    0.3014   -8.4156    4.5118 C   0  0  0  0  0  0  0  0  0  0  0  0
   -9.1789   -3.7477    3.7207 F   0  0  0  0  0  0  0  0  0  0  0  0
   -9.8775   -5.6250    2.0295 F   0  0  0  0  0  0  0  0  0  0  0  0
   -0.2654    3.7221    4.0258 C   0  0  0  0  0  0  0  0  0  0  0  0
   -2.0211   -7.2739    1.2087 Cl  0  0  0  0  0  0  0  0  0  0  0  0
   -2.1743   -4.0362    0.9989 Cl  0  0  0  0  0  0  0  0  0  0  0  0
   -1.1692    5.1345    3.6599 Cl  0  0  0  0  0  0  0  0  0  0  0  0
   -1.9174    2.2252    2.4163 Cl  0  0  0  0  0  0  0  0  0  0  0  0
   -4.6072   -8.6825   -5.4202 C   0  0  0  0  0  0  0  0  0  0  0  0
   -4.8208   -8.5228   -4.0395 C   0  0  0  0  0  0  0  0  0  0  0  0
   -3.7616   -8.0533   -3.2221 C   0  0  0  0  0  0  0  0  0  0  0  0
   -2.5265   -7.6718   -3.7169 C   0  0  0  0  0  0  0  0  0  0  0  0
   -2.3368   -7.7688   -5.1024 C   0  0  0  0  0  0  0  0  0  0  0  0
   -3.3697   -8.2940   -5.9188 C   0  0  0  0  0  0  0  0  0  0  0  0
   -6.0077   -8.7374   -3.2928 C   0  0  0  0  0  0  0  0  0  0  0  0
   -5.8779   -8.4376   -1.9685 C   0  0  0  0  0  0  0  0  0  0  0  0
   -4.2472   -7.9287   -1.5616 S   0  0  0  0  0  0  0  0  0  0  0  0
   -1.2034   -7.3826   -5.8551 C   0  0  0  0  0  0  0  0  0  0  0  0
   -1.3469   -7.5849   -7.1971 C   0  0  0  0  0  0  0  0  0  0  0  0
   -2.9030   -8.2880   -7.5956 S   0  0  0  0  0  0  0  0  0  0  0  0
   -5.6397   -9.2098   -6.2986 C   0  0  0  0  0  0  0  0  0  0  0  0
   -1.4799   -7.1543   -2.8374 C   0  0  0  0  0  0  0  0  0  0  0  0
   -0.7113   -7.8477   -1.9499 C   0  0  0  0  0  0  0  0  0  0  0  0
    0.2295   -7.0301   -1.2663 C   0  0  0  0  0  0  0  0  0  0  0  0
    0.1547   -5.7118   -1.5993 C   0  0  0  0  0  0  0  0  0  0  0  0
   -1.0623   -5.4680   -2.8076 S   0  0  0  0  0  0  0  0  0  0  0  0
   -5.5511  -10.2614   -7.1677 C   0  0  0  0  0  0  0  0  0  0  0  0
   -7.7533   -9.6234   -7.5881 C   0  0  0  0  0  0  0  0  0  0  0  0
   -7.2235   -8.4966   -6.3861 S   0  0  0  0  0  0  0  0  0  0  0  0
   -0.4093   -7.2852   -8.2246 C   0  0  0  0  0  0  0  0  0  0  0  0
    1.0722   -6.4525   -7.8597 S   0  0  0  0  0  0  0  0  0  0  0  0
    1.5473   -6.4921   -9.5324 C   0  0  0  0  0  0  0  0  0  0  0  0
    0.5933   -7.1208  -10.3046 C   0  0  0  0  0  0  0  0  0  0  0  0
   -0.5072   -7.5621   -9.5700 C   0  0  0  0  0  0  0  0  0  0  0  0
    2.7966   -5.9045   -9.9163 C   0  0  0  0  0  0  0  0  0  0  0  0
    3.3458   -5.9198  -11.1912 C   0  0  0  0  0  0  0  0  0  0  0  0
    4.5787   -5.3323  -11.5192 C   0  0  0  0  0  0  0  0  0  0  0  0
    5.3906   -4.6687  -10.6088 C   0  0  0  0  0  0  0  0  0  0  0  0
    4.8514   -4.6356   -9.3011 C   0  0  0  0  0  0  0  0  0  0  0  0
    3.6025   -5.2302   -8.9696 C   0  0  0  0  0  0  0  0  0  0  0  0
    5.3374   -4.0865   -8.1799 N   0  0  0  0  0  0  0  0  0  0  0  0
    4.4371   -4.3418   -7.2739 N   0  0  0  0  0  0  0  0  0  0  0  0
    3.3892   -5.0109   -7.6669 N   0  0  0  0  0  0  0  0  0  0  0  0
    6.6560   -4.0605  -10.9084 C   0  0  0  0  0  0  0  0  0  0  0  0
    4.5945   -3.9190   -5.9115 C   0  0  0  0  0  0  0  0  0  0  0  0
    4.6559   -5.1260   -4.9837 C   0  0  0  0  0  0  0  0  0  0  0  0
    7.3342   -3.9843  -12.1023 C   0  0  0  0  0  0  0  0  0  0  0  0
    8.5556   -3.2998  -11.9977 C   0  0  0  0  0  0  0  0  0  0  0  0
    8.8048   -2.8630  -10.7328 C   0  0  0  0  0  0  0  0  0  0  0  0
    7.5524   -3.2761   -9.6373 S   0  0  0  0  0  0  0  0  0  0  0  0
    0.9950   -4.5871   -1.1013 C   0  0  0  0  0  0  0  0  0  0  0  0
   -9.1137   -9.5371   -8.1869 C   0  0  0  0  0  0  0  0  0  0  0  0
   -9.1175   -8.6069   -9.4026 C   0  0  0  0  0  0  0  0  0  0  0  0
    2.1866   -4.3386   -2.0285 C   0  0  0  0  0  0  0  0  0  0  0  0
    2.6945   -6.5261  -12.2029 F   0  0  0  0  0  0  0  0  0  0  0  0
    4.9564   -5.4471  -12.8079 F   0  0  0  0  0  0  0  0  0  0  0  0
   -6.7486  -10.4903   -7.8975 C   0  0  0  0  0  0  0  0  0  0  0  0
    1.3697   -7.6650   -0.1558 Cl  0  0  0  0  0  0  0  0  0  0  0  0
   -0.8432   -9.5383   -1.6981 Cl  0  0  0  0  0  0  0  0  0  0  0  0
   -6.8989  -11.7557   -9.0462 Cl  0  0  0  0  0  0  0  0  0  0  0  0
   -4.1746  -11.2703   -7.3211 Cl  0  0  0  0  0  0  0  0  0  0  0  0
   16.8442   11.3066    8.3545 H   0  0  0  0  0  0  0  0  0  0  0  0
   15.2653   13.3324    8.7816 H   0  0  0  0  0  0  0  0  0  0  0  0
   11.7527    7.5156    5.0622 H   0  0  0  0  0  0  0  0  0  0  0  0
   13.5882    2.1405    3.2005 H   0  0  0  0  0  0  0  0  0  0  0  0
   14.9782    4.0521    4.2589 H   0  0  0  0  0  0  0  0  0  0  0  0
    6.6227    4.7803    5.4109 H   0  0  0  0  0  0  0  0  0  0  0  0
    5.7828    4.8295    3.8466 H   0  0  0  0  0  0  0  0  0  0  0  0
    8.3092    6.4171    4.5698 H   0  0  0  0  0  0  0  0  0  0  0  0
    6.6749    7.0931    4.5418 H   0  0  0  0  0  0  0  0  0  0  0  0
    7.4342    6.5431    3.0427 H   0  0  0  0  0  0  0  0  0  0  0  0
    7.9480   -1.7548    1.1888 H   0  0  0  0  0  0  0  0  0  0  0  0
    5.5285   -2.6682    1.1960 H   0  0  0  0  0  0  0  0  0  0  0  0
    8.6217   13.0484    5.1505 H   0  0  0  0  0  0  0  0  0  0  0  0
    7.3714   11.8844    5.6294 H   0  0  0  0  0  0  0  0  0  0  0  0
   21.4161    7.5291    7.7630 H   0  0  0  0  0  0  0  0  0  0  0  0
   20.9434    7.5383    6.0523 H   0  0  0  0  0  0  0  0  0  0  0  0
   20.3365    5.3008    8.0469 H   0  0  0  0  0  0  0  0  0  0  0  0
   21.5632    5.2457    6.7771 H   0  0  0  0  0  0  0  0  0  0  0  0
   19.8493    5.3131    6.3492 H   0  0  0  0  0  0  0  0  0  0  0  0
    8.9682   11.7967    3.0213 H   0  0  0  0  0  0  0  0  0  0  0  0
    7.2878   12.3189    3.1829 H   0  0  0  0  0  0  0  0  0  0  0  0
    7.7247   10.6360    3.4981 H   0  0  0  0  0  0  0  0  0  0  0  0
    2.8894    0.9169    3.0099 H   0  0  0  0  0  0  0  0  0  0  0  0
   -2.4126   -3.7496    3.8072 H   0  0  0  0  0  0  0  0  0  0  0  0
   -7.7625   -1.9823    4.7789 H   0  0  0  0  0  0  0  0  0  0  0  0
   -5.6811   -0.4411    4.7755 H   0  0  0  0  0  0  0  0  0  0  0  0
   -3.3335   -7.7356    5.3187 H   0  0  0  0  0  0  0  0  0  0  0  0
   -3.3138   -8.4925    3.6977 H   0  0  0  0  0  0  0  0  0  0  0  0
   -4.8026   -9.5810    6.1454 H   0  0  0  0  0  0  0  0  0  0  0  0
   -3.3389  -10.2668    5.4315 H   0  0  0  0  0  0  0  0  0  0  0  0
   -4.8544  -10.2763    4.5193 H   0  0  0  0  0  0  0  0  0  0  0  0
   -9.8583   -7.4921    0.2672 H   0  0  0  0  0  0  0  0  0  0  0  0
   -8.7695   -8.2322   -1.9640 H   0  0  0  0  0  0  0  0  0  0  0  0
    1.6360   -8.2392    2.8341 H   0  0  0  0  0  0  0  0  0  0  0  0
    0.0020   -8.7698    2.4009 H   0  0  0  0  0  0  0  0  0  0  0  0
    1.6037    4.6367    6.5710 H   0  0  0  0  0  0  0  0  0  0  0  0
    0.9082    5.7402    5.3720 H   0  0  0  0  0  0  0  0  0  0  0  0
    3.5222    4.1803    5.0507 H   0  0  0  0  0  0  0  0  0  0  0  0
    3.3993    5.9057    5.4257 H   0  0  0  0  0  0  0  0  0  0  0  0
    2.8477    5.2998    3.8597 H   0  0  0  0  0  0  0  0  0  0  0  0
    0.8791   -7.7539    5.1530 H   0  0  0  0  0  0  0  0  0  0  0  0
    0.5818   -9.4431    4.7274 H   0  0  0  0  0  0  0  0  0  0  0  0
   -0.7539   -8.2862    4.7390 H   0  0  0  0  0  0  0  0  0  0  0  0
   -6.9284   -9.0820   -3.7257 H   0  0  0  0  0  0  0  0  0  0  0  0
   -0.3134   -6.9638   -5.4206 H   0  0  0  0  0  0  0  0  0  0  0  0
    0.6840   -7.2546  -11.3661 H   0  0  0  0  0  0  0  0  0  0  0  0
   -1.3522   -8.0719   -9.9983 H   0  0  0  0  0  0  0  0  0  0  0  0
    3.7420   -3.2879   -5.6453 H   0  0  0  0  0  0  0  0  0  0  0  0
    5.5143   -3.3338   -5.8710 H   0  0  0  0  0  0  0  0  0  0  0  0
    3.7516   -5.7194   -5.0934 H   0  0  0  0  0  0  0  0  0  0  0  0
    4.7406   -4.7930   -3.9534 H   0  0  0  0  0  0  0  0  0  0  0  0
    5.5156   -5.7464   -5.2249 H   0  0  0  0  0  0  0  0  0  0  0  0
    6.9720   -4.4012  -13.0230 H   0  0  0  0  0  0  0  0  0  0  0  0
    9.2215   -3.1426  -12.8271 H   0  0  0  0  0  0  0  0  0  0  0  0
    9.6587   -2.3207  -10.3777 H   0  0  0  0  0  0  0  0  0  0  0  0
    1.3584   -4.8334   -0.1013 H   0  0  0  0  0  0  0  0  0  0  0  0
    0.3885   -3.6824   -1.0353 H   0  0  0  0  0  0  0  0  0  0  0  0
   -9.8160   -9.1635   -7.4398 H   0  0  0  0  0  0  0  0  0  0  0  0
   -9.4254  -10.5378   -8.4930 H   0  0  0  0  0  0  0  0  0  0  0  0
   -8.8120   -7.6043   -9.1122 H   0  0  0  0  0  0  0  0  0  0  0  0
  -10.1145   -8.5582   -9.8317 H   0  0  0  0  0  0  0  0  0  0  0  0
   -8.4294   -8.9746  -10.1597 H   0  0  0  0  0  0  0  0  0  0  0  0
    2.8058   -5.2303   -2.0865 H   0  0  0  0  0  0  0  0  0  0  0  0
    2.7879   -3.5179   -1.6465 H   0  0  0  0  0  0  0  0  0  0  0  0
    1.8407   -4.0877   -3.0287 H   0  0  0  0  0  0  0  0  0  0  0  0
  1 13  1  0  0  0  0
  1  2  2  0  0  0  0
  2  7  1  0  0  0  0
  3  2  1  0  0  0  0
  3  9  1  0  0  0  0
  4  3  2  0  0  0  0
  5  6  2  0  0  0  0
  5  4  1  0  0  0  0
  6  1  1  0  0  0  0
  7  8  2  0  0  0  0
  7160  1  0  0  0  0
  8161  1  0  0  0  0
  9  8  1  0  0  0  0
 10  5  1  0  0  0  0
 11 10  2  0  0  0  0
 11 12  1  0  0  0  0
 12  6  1  0  0  0  0
 13 19  2  0  0  0  0
 14  4  1  0  0  0  0
 14 15  2  0  0  0  0
 15 51  1  0  0  0  0
 16 50  1  0  0  0  0
 16 15  1  0  0  0  0
 17 16  2  0  0  0  0
 18 17  1  0  0  0  0
 18 14  1  0  0  0  0
 19 53  1  0  0  0  0
 20 49  2  0  0  0  0
 21 20  1  0  0  0  0
 21 13  1  0  0  0  0
 22 11  1  0  0  0  0
 23 22  1  0  0  0  0
 24 25  2  0  0  0  0
 24 23  1  0  0  0  0
 25 26  1  0  0  0  0
 26164  1  0  0  0  0
 26 22  2  0  0  0  0
 27 32  1  0  0  0  0
 27 24  1  0  0  0  0
 28 27  2  0  0  0  0
 29 30  2  0  0  0  0
 29 28  1  0  0  0  0
 30 31  1  0  0  0  0
 31 33  2  0  0  0  0
 31 32  1  0  0  0  0
 32 35  2  0  0  0  0
 33 34  1  0  0  0  0
 34 35  1  0  0  0  0
 34 37  1  0  0  0  0
 36 30  1  0  0  0  0
 36 42  1  0  0  0  0
 37165  1  0  0  0  0
 38 37  1  0  0  0  0
 38168  1  0  0  0  0
 38167  1  0  0  0  0
 39 36  2  0  0  0  0
 40 39  1  0  0  0  0
 40 41  2  0  0  0  0
 41 61  1  0  0  0  0
 41 42  1  0  0  0  0
 43172  1  0  0  0  0
 43173  1  0  0  0  0
 43 17  1  0  0  0  0
 44 45  1  0  0  0  0
 44 20  1  0  0  0  0
 44174  1  0  0  0  0
 45176  1  0  0  0  0
 46 43  1  0  0  0  0
 47 28  1  0  0  0  0
 48 29  1  0  0  0  0
 49 19  1  0  0  0  0
 49 52  1  0  0  0  0
 54 59  1  0  0  0  0
 54 66  1  0  0  0  0
 55 54  2  0  0  0  0
 56 57  2  0  0  0  0
 56 55  1  0  0  0  0
 57 58  1  0  0  0  0
 58 59  2  0  0  0  0
 58 63  1  0  0  0  0
 59 65  1  0  0  0  0
 60182  1  0  0  0  0
 60 55  1  0  0  0  0
 61 60  2  0  0  0  0
 62 61  1  0  0  0  0
 62 56  1  0  0  0  0
 63 64  2  0  0  0  0
 64 65  1  0  0  0  0
 64 75  1  0  0  0  0
 66 74  1  0  0  0  0
 67 57  1  0  0  0  0
 67 71  1  0  0  0  0
 68 69  1  0  0  0  0
 68 67  2  0  0  0  0
 69 70  2  0  0  0  0
 70 96  1  0  0  0  0
 70 71  1  0  0  0  0
 72 66  2  0  0  0  0
 72102  1  0  0  0  0
 73 74  1  0  0  0  0
 73 97  1  0  0  0  0
 75 79  2  0  0  0  0
 75 76  1  0  0  0  0
 77 78  2  0  0  0  0
 77 76  1  0  0  0  0
 78 79  1  0  0  0  0
 80 77  1  0  0  0  0
 81100  1  0  0  0  0
 81 80  2  0  0  0  0
 82 81  1  0  0  0  0
 83 82  2  0  0  0  0
 83 84  1  0  0  0  0
 84 86  2  0  0  0  0
 84 85  1  0  0  0  0
 85 80  1  0  0  0  0
 85 88  2  0  0  0  0
 86 87  1  0  0  0  0
 87 90  1  0  0  0  0
 87 88  1  0  0  0  0
 89 83  1  0  0  0  0
 90 91  1  0  0  0  0
 90186  1  0  0  0  0
 91189  1  0  0  0  0
 91188  1  0  0  0  0
 92191  1  0  0  0  0
 92 89  2  0  0  0  0
 93 94  2  0  0  0  0
 93 92  1  0  0  0  0
 94 95  1  0  0  0  0
 95 89  1  0  0  0  0
 96 99  1  0  0  0  0
 97195  1  0  0  0  0
 98197  1  0  0  0  0
 98198  1  0  0  0  0
 98 97  1  0  0  0  0
 99201  1  0  0  0  0
 99202  1  0  0  0  0
 99200  1  0  0  0  0
101 82  1  0  0  0  0
102 73  2  0  0  0  0
103 69  1  0  0  0  0
104 68  1  0  0  0  0
105102  1  0  0  0  0
106 72  1  0  0  0  0
107108  1  0  0  0  0
108113  1  0  0  0  0
108109  2  0  0  0  0
109115  1  0  0  0  0
110109  1  0  0  0  0
110120  1  0  0  0  0
111110  2  0  0  0  0
112107  2  0  0  0  0
112111  1  0  0  0  0
113114  2  0  0  0  0
114115  1  0  0  0  0
114 94  1  0  0  0  0
116204  1  0  0  0  0
116111  1  0  0  0  0
117116  2  0  0  0  0
118117  1  0  0  0  0
118112  1  0  0  0  0
119107  1  0  0  0  0
120124  1  0  0  0  0
120121  2  0  0  0  0
121157  1  0  0  0  0
121122  1  0  0  0  0
122156  1  0  0  0  0
123122  2  0  0  0  0
123149  1  0  0  0  0
124123  1  0  0  0  0
125119  2  0  0  0  0
126127  1  0  0  0  0
127119  1  0  0  0  0
128129  1  0  0  0  0
128117  1  0  0  0  0
130129  1  0  0  0  0
131132  1  0  0  0  0
131130  2  0  0  0  0
132128  2  0  0  0  0
133130  1  0  0  0  0
133138  1  0  0  0  0
134133  2  0  0  0  0
135134  1  0  0  0  0
135136  2  0  0  0  0
136137  1  0  0  0  0
137138  1  0  0  0  0
137139  2  0  0  0  0
138141  2  0  0  0  0
139140  1  0  0  0  0
140143  1  0  0  0  0
141140  1  0  0  0  0
142136  1  0  0  0  0
142148  1  0  0  0  0
143208  1  0  0  0  0
143207  1  0  0  0  0
143144  1  0  0  0  0
144210  1  0  0  0  0
145146  1  0  0  0  0
145142  2  0  0  0  0
146147  2  0  0  0  0
147214  1  0  0  0  0
147148  1  0  0  0  0
149216  1  0  0  0  0
149215  1  0  0  0  0
150126  1  0  0  0  0
150217  1  0  0  0  0
151219  1  0  0  0  0
151150  1  0  0  0  0
152223  1  0  0  0  0
152149  1  0  0  0  0
153134  1  0  0  0  0
154135  1  0  0  0  0
155126  2  0  0  0  0
155125  1  0  0  0  0
158155  1  0  0  0  0
159125  1  0  0  0  0
162 10  1  0  0  0  0
163 25  1  0  0  0  0
166 37  1  0  0  0  0
169 38  1  0  0  0  0
170 39  1  0  0  0  0
171 40  1  0  0  0  0
175 44  1  0  0  0  0
177 45  1  0  0  0  0
178 45  1  0  0  0  0
179 46  1  0  0  0  0
180 46  1  0  0  0  0
181 46  1  0  0  0  0
183 63  1  0  0  0  0
184 78  1  0  0  0  0
185 79  1  0  0  0  0
187 90  1  0  0  0  0
190 91  1  0  0  0  0
192 93  1  0  0  0  0
193 96  1  0  0  0  0
194 96  1  0  0  0  0
196 97  1  0  0  0  0
199 98  1  0  0  0  0
203113  1  0  0  0  0
205131  1  0  0  0  0
206132  1  0  0  0  0
209144  1  0  0  0  0
211144  1  0  0  0  0
212145  1  0  0  0  0
213146  1  0  0  0  0
218150  1  0  0  0  0
220151  1  0  0  0  0
221151  1  0  0  0  0
222152  1  0  0  0  0
224152  1  0  0  0  0
M  END
