SCF done       -428.473847474179          0.000522884720
 OpenBabel12282109573D

248274  0  0  0  0  0  0  0  0999 V2000
   -2.5021    7.2512    6.3032 C   0  0  0  0  0  0  0  0  0  0  0  0
   -2.9269    5.9172    6.0974 C   0  0  0  0  0  0  0  0  0  0  0  0
   -2.0668    4.8929    5.7292 C   0  0  0  0  0  0  0  0  0  0  0  0
   -0.7090    5.2281    5.6058 C   0  0  0  0  0  0  0  0  0  0  0  0
   -0.2815    6.5594    5.8347 C   0  0  0  0  0  0  0  0  0  0  0  0
   -1.1497    7.5918    6.1572 C   0  0  0  0  0  0  0  0  0  0  0  0
   -3.5904    8.0980    6.6718 C   0  0  0  0  0  0  0  0  0  0  0  0
   -4.7705    7.4485    6.7143 C   0  0  0  0  0  0  0  0  0  0  0  0
   -4.6528    5.7665    6.3195 S   0  0  0  0  0  0  0  0  0  0  0  0
    0.3753    4.3724    5.2831 C   0  0  0  0  0  0  0  0  0  0  0  0
    1.5820    5.0089    5.2427 C   0  0  0  0  0  0  0  0  0  0  0  0
    1.4410    6.7172    5.6116 S   0  0  0  0  0  0  0  0  0  0  0  0
   -2.5493    3.5304    5.4710 C   0  0  0  0  0  0  0  0  0  0  0  0
   -0.6813    8.9757    6.3088 C   0  0  0  0  0  0  0  0  0  0  0  0
    2.8577    4.4431    4.9455 C   0  0  0  0  0  0  0  0  0  0  0  0
    3.1281    3.1981    4.4156 C   0  0  0  0  0  0  0  0  0  0  0  0
    4.4890    2.9621    4.2341 C   0  0  0  0  0  0  0  0  0  0  0  0
    5.2858    4.0164    4.6319 C   0  0  0  0  0  0  0  0  0  0  0  0
    4.3172    5.3281    5.2368 S   0  0  0  0  0  0  0  0  0  0  0  0
    6.7150    4.0803    4.5785 C   0  0  0  0  0  0  0  0  0  0  0  0
    7.4697    5.1121    5.1207 C   0  0  0  0  0  0  0  0  0  0  0  0
    8.8683    5.1656    5.0772 C   0  0  0  0  0  0  0  0  0  0  0  0
    9.6642    4.2026    4.4705 C   0  0  0  0  0  0  0  0  0  0  0  0
    8.9231    3.1386    3.8959 C   0  0  0  0  0  0  0  0  0  0  0  0
    7.4980    3.0746    3.9562 C   0  0  0  0  0  0  0  0  0  0  0  0
    6.8500    6.1360    5.7400 F   0  0  0  0  0  0  0  0  0  0  0  0
    9.4443    6.2342    5.6638 F   0  0  0  0  0  0  0  0  0  0  0  0
    9.3398    2.0530    3.2304 N   0  0  0  0  0  0  0  0  0  0  0  0
    8.2447    1.4138    2.9285 N   0  0  0  0  0  0  0  0  0  0  0  0
    7.1259    1.9531    3.3240 N   0  0  0  0  0  0  0  0  0  0  0  0
    8.2740    0.1570    2.2365 C   0  0  0  0  0  0  0  0  0  0  0  0
    8.4727   -0.9902    3.2226 C   0  0  0  0  0  0  0  0  0  0  0  0
   11.0932    4.2599    4.4132 C   0  0  0  0  0  0  0  0  0  0  0  0
   11.9356    3.3920    3.7490 C   0  0  0  0  0  0  0  0  0  0  0  0
   13.2837    3.7245    3.8730 C   0  0  0  0  0  0  0  0  0  0  0  0
   13.4987    4.8461    4.6438 C   0  0  0  0  0  0  0  0  0  0  0  0
   12.0012    5.5093    5.2156 S   0  0  0  0  0  0  0  0  0  0  0  0
   -2.2445    2.8838    4.2776 C   0  0  0  0  0  0  0  0  0  0  0  0
   -2.7009    1.6045    4.0205 C   0  0  0  0  0  0  0  0  0  0  0  0
   -3.4730    0.9431    4.9661 C   0  0  0  0  0  0  0  0  0  0  0  0
   -3.7840    1.5839    6.1644 C   0  0  0  0  0  0  0  0  0  0  0  0
   -3.3318    2.8608    6.4109 C   0  0  0  0  0  0  0  0  0  0  0  0
   -1.2808   10.0037    5.5882 C   0  0  0  0  0  0  0  0  0  0  0  0
   -0.8389   11.3083    5.7014 C   0  0  0  0  0  0  0  0  0  0  0  0
    0.2205   11.6080    6.5476 C   0  0  0  0  0  0  0  0  0  0  0  0
    0.8250   10.5846    7.2757 C   0  0  0  0  0  0  0  0  0  0  0  0
    0.3823    9.2861    7.1550 C   0  0  0  0  0  0  0  0  0  0  0  0
    0.8733   13.2288    6.7899 S   0  0  0  0  0  0  0  0  0  0  0  0
   -0.0006   14.2576    5.5503 C   0  0  0  0  0  0  0  0  0  0  0  0
   -4.1103   -0.6904    4.7714 S   0  0  0  0  0  0  0  0  0  0  0  0
   -3.5460   -1.2033    3.1051 C   0  0  0  0  0  0  0  0  0  0  0  0
    0.5813   15.6584    5.5752 C   0  0  0  0  0  0  0  0  0  0  0  0
   -4.0597   -2.6024    2.8220 C   0  0  0  0  0  0  0  0  0  0  0  0
   16.2659    6.9394    5.9377 C   0  0  0  0  0  0  0  0  0  0  0  0
   17.1305    6.1479    5.1404 C   0  0  0  0  0  0  0  0  0  0  0  0
   18.4964    6.3648    5.0585 C   0  0  0  0  0  0  0  0  0  0  0  0
   19.0167    7.4040    5.8499 C   0  0  0  0  0  0  0  0  0  0  0  0
   18.1533    8.1816    6.6616 C   0  0  0  0  0  0  0  0  0  0  0  0
   16.7823    7.9894    6.7159 C   0  0  0  0  0  0  0  0  0  0  0  0
   14.9179    6.5192    5.8322 C   0  0  0  0  0  0  0  0  0  0  0  0
   14.7321    5.4726    4.9773 C   0  0  0  0  0  0  0  0  0  0  0  0
   16.2398    4.9300    4.2600 S   0  0  0  0  0  0  0  0  0  0  0  0
   20.3675    7.8126    5.9747 C   0  0  0  0  0  0  0  0  0  0  0  0
   20.5447    8.8750    6.8127 C   0  0  0  0  0  0  0  0  0  0  0  0
   19.0337    9.4218    7.5170 S   0  0  0  0  0  0  0  0  0  0  0  0
   19.3631    5.5737    4.1760 C   0  0  0  0  0  0  0  0  0  0  0  0
   15.9070    8.8373    7.5337 C   0  0  0  0  0  0  0  0  0  0  0  0
   21.7603    9.5417    7.1327 C   0  0  0  0  0  0  0  0  0  0  0  0
   21.9304   10.6233    7.9684 C   0  0  0  0  0  0  0  0  0  0  0  0
   23.2520   11.0598    8.0441 C   0  0  0  0  0  0  0  0  0  0  0  0
   24.1178   10.3186    7.2671 C   0  0  0  0  0  0  0  0  0  0  0  0
   23.2722    9.0465    6.4317 S   0  0  0  0  0  0  0  0  0  0  0  0
   25.5265   10.4774    7.0684 C   0  0  0  0  0  0  0  0  0  0  0  0
   26.3119   11.4883    7.6068 C   0  0  0  0  0  0  0  0  0  0  0  0
   27.6832   11.6219    7.3514 C   0  0  0  0  0  0  0  0  0  0  0  0
   28.4199   10.7665    6.5402 C   0  0  0  0  0  0  0  0  0  0  0  0
   27.6509    9.7076    5.9938 C   0  0  0  0  0  0  0  0  0  0  0  0
   26.2551    9.5812    6.2503 C   0  0  0  0  0  0  0  0  0  0  0  0
   25.7665   12.4222    8.4106 F   0  0  0  0  0  0  0  0  0  0  0  0
   28.2958   12.6704    7.9387 F   0  0  0  0  0  0  0  0  0  0  0  0
   27.9931    8.6935    5.1854 N   0  0  0  0  0  0  0  0  0  0  0  0
   26.8821    8.0383    4.9922 N   0  0  0  0  0  0  0  0  0  0  0  0
   25.8203    8.5049    5.5863 N   0  0  0  0  0  0  0  0  0  0  0  0
   26.8292    6.8522    4.1855 C   0  0  0  0  0  0  0  0  0  0  0  0
   26.4803    5.6412    5.0430 C   0  0  0  0  0  0  0  0  0  0  0  0
   29.8084   10.9388    6.2424 C   0  0  0  0  0  0  0  0  0  0  0  0
   30.5880   10.1408    5.4300 C   0  0  0  0  0  0  0  0  0  0  0  0
   31.8963   10.6011    5.2928 C   0  0  0  0  0  0  0  0  0  0  0  0
   32.1436   11.7573    6.0009 C   0  0  0  0  0  0  0  0  0  0  0  0
   30.7298   12.2807    6.8589 S   0  0  0  0  0  0  0  0  0  0  0  0
   20.2092    6.2049    3.2693 C   0  0  0  0  0  0  0  0  0  0  0  0
   21.0316    5.4755    2.4320 C   0  0  0  0  0  0  0  0  0  0  0  0
   21.0196    4.0883    2.4886 C   0  0  0  0  0  0  0  0  0  0  0  0
   20.1731    3.4473    3.3910 C   0  0  0  0  0  0  0  0  0  0  0  0
   19.3539    4.1804    4.2209 C   0  0  0  0  0  0  0  0  0  0  0  0
   14.7819    9.4416    6.9807 C   0  0  0  0  0  0  0  0  0  0  0  0
   13.9476   10.2334    7.7460 C   0  0  0  0  0  0  0  0  0  0  0  0
   14.2226   10.4284    9.0934 C   0  0  0  0  0  0  0  0  0  0  0  0
   15.3551    9.8385    9.6523 C   0  0  0  0  0  0  0  0  0  0  0  0
   16.1872    9.0574    8.8820 C   0  0  0  0  0  0  0  0  0  0  0  0
   13.2328   11.4069   10.1754 S   0  0  0  0  0  0  0  0  0  0  0  0
   11.6977   11.7116    9.2214 C   0  0  0  0  0  0  0  0  0  0  0  0
   22.0361    3.0446    1.4915 S   0  0  0  0  0  0  0  0  0  0  0  0
   22.7720    4.1822    0.2571 C   0  0  0  0  0  0  0  0  0  0  0  0
   10.6670   12.3456   10.1362 C   0  0  0  0  0  0  0  0  0  0  0  0
   23.5282    3.3671   -0.7751 C   0  0  0  0  0  0  0  0  0  0  0  0
   34.8396   14.2283    6.5835 C   0  0  0  0  0  0  0  0  0  0  0  0
   35.6167   13.4730    5.6696 C   0  0  0  0  0  0  0  0  0  0  0  0
   36.8958   13.8346    5.2798 C   0  0  0  0  0  0  0  0  0  0  0  0
   37.4239   15.0010    5.8606 C   0  0  0  0  0  0  0  0  0  0  0  0
   36.6512   15.7485    6.7847 C   0  0  0  0  0  0  0  0  0  0  0  0
   35.3623   15.4000    7.1567 C   0  0  0  0  0  0  0  0  0  0  0  0
   33.5640   13.6506    6.7939 C   0  0  0  0  0  0  0  0  0  0  0  0
   33.3400   12.5252    6.0557 C   0  0  0  0  0  0  0  0  0  0  0  0
   34.7280   12.0932    5.0714 S   0  0  0  0  0  0  0  0  0  0  0  0
   38.6994   15.5796    5.6488 C   0  0  0  0  0  0  0  0  0  0  0  0
   38.8973   16.7403    6.3424 C   0  0  0  0  0  0  0  0  0  0  0  0
   37.5096   17.1675    7.3237 S   0  0  0  0  0  0  0  0  0  0  0  0
   37.6516   13.0563    4.2902 C   0  0  0  0  0  0  0  0  0  0  0  0
   34.5735   16.2127    8.0899 C   0  0  0  0  0  0  0  0  0  0  0  0
   40.0478   17.5819    6.3248 C   0  0  0  0  0  0  0  0  0  0  0  0
   41.2223   17.3976    5.6232 C   0  0  0  0  0  0  0  0  0  0  0  0
   42.1392   18.4294    5.8067 C   0  0  0  0  0  0  0  0  0  0  0  0
   41.6855   19.4230    6.6508 C   0  0  0  0  0  0  0  0  0  0  0  0
   40.0874   19.0580    7.2305 S   0  0  0  0  0  0  0  0  0  0  0  0
   42.3829   20.6175    7.0214 C   0  0  0  0  0  0  0  0  0  0  0  0
   41.8786   21.5801    7.8848 C   0  0  0  0  0  0  0  0  0  0  0  0
   42.5593   22.7555    8.2324 C   0  0  0  0  0  0  0  0  0  0  0  0
   43.8158   23.0944    7.7526 C   0  0  0  0  0  0  0  0  0  0  0  0
   44.3625   22.1289    6.8697 C   0  0  0  0  0  0  0  0  0  0  0  0
   43.6707   20.9310    6.5166 C   0  0  0  0  0  0  0  0  0  0  0  0
   40.6624   21.4060    8.4373 F   0  0  0  0  0  0  0  0  0  0  0  0
   41.9235   23.5849    9.0828 F   0  0  0  0  0  0  0  0  0  0  0  0
   45.5367   22.1117    6.2235 N   0  0  0  0  0  0  0  0  0  0  0  0
   45.5251   20.9944    5.5531 N   0  0  0  0  0  0  0  0  0  0  0  0
   44.4615   20.2511    5.6749 N   0  0  0  0  0  0  0  0  0  0  0  0
   46.6047   20.6289    4.6813 C   0  0  0  0  0  0  0  0  0  0  0  0
   46.3542   21.1632    3.2741 C   0  0  0  0  0  0  0  0  0  0  0  0
   44.5151   24.3002    8.0941 C   0  0  0  0  0  0  0  0  0  0  0  0
   45.7539   24.6928    7.6434 C   0  0  0  0  0  0  0  0  0  0  0  0
   46.1607   25.9316    8.1613 C   0  0  0  0  0  0  0  0  0  0  0  0
   45.2369   26.4770    9.0005 C   0  0  0  0  0  0  0  0  0  0  0  0
   43.8500   25.4907    9.1776 S   0  0  0  0  0  0  0  0  0  0  0  0
   38.1901   13.6716    3.1647 C   0  0  0  0  0  0  0  0  0  0  0  0
   38.8909   12.9462    2.2196 C   0  0  0  0  0  0  0  0  0  0  0  0
   39.0683   11.5797    2.3891 C   0  0  0  0  0  0  0  0  0  0  0  0
   38.5321   10.9548    3.5138 C   0  0  0  0  0  0  0  0  0  0  0  0
   37.8305   11.6826    4.4487 C   0  0  0  0  0  0  0  0  0  0  0  0
   33.2826   16.6192    7.7651 C   0  0  0  0  0  0  0  0  0  0  0  0
   32.5279   17.3713    8.6445 C   0  0  0  0  0  0  0  0  0  0  0  0
   33.0546   17.7269    9.8795 C   0  0  0  0  0  0  0  0  0  0  0  0
   34.3532   17.3393   10.2061 C   0  0  0  0  0  0  0  0  0  0  0  0
   35.1027   16.5961    9.3220 C   0  0  0  0  0  0  0  0  0  0  0  0
   32.1899   18.6706   11.0915 S   0  0  0  0  0  0  0  0  0  0  0  0
   30.4640   18.7136   10.4751 C   0  0  0  0  0  0  0  0  0  0  0  0
   39.9458   10.5395    1.2659 S   0  0  0  0  0  0  0  0  0  0  0  0
   40.4239   11.6551   -0.1069 C   0  0  0  0  0  0  0  0  0  0  0  0
   29.5751   19.3226   11.5428 C   0  0  0  0  0  0  0  0  0  0  0  0
   41.1425   10.8461   -1.1703 C   0  0  0  0  0  0  0  0  0  0  0  0
   -3.4722    9.1406    6.9058 H   0  0  0  0  0  0  0  0  0  0  0  0
   -5.7346    7.8469    6.9640 H   0  0  0  0  0  0  0  0  0  0  0  0
    0.2599    3.3170    5.1172 H   0  0  0  0  0  0  0  0  0  0  0  0
    2.3602    2.4911    4.1590 H   0  0  0  0  0  0  0  0  0  0  0  0
    4.9023    2.0586    3.8264 H   0  0  0  0  0  0  0  0  0  0  0  0
    9.0985    0.1914    1.5217 H   0  0  0  0  0  0  0  0  0  0  0  0
    7.3238    0.0528    1.7098 H   0  0  0  0  0  0  0  0  0  0  0  0
    9.4067   -0.8602    3.7637 H   0  0  0  0  0  0  0  0  0  0  0  0
    8.5053   -1.9348    2.6876 H   0  0  0  0  0  0  0  0  0  0  0  0
    7.6536   -1.0191    3.9369 H   0  0  0  0  0  0  0  0  0  0  0  0
   11.5630    2.5513    3.1945 H   0  0  0  0  0  0  0  0  0  0  0  0
   14.0884    3.1710    3.4219 H   0  0  0  0  0  0  0  0  0  0  0  0
   -1.6604    3.3978    3.5277 H   0  0  0  0  0  0  0  0  0  0  0  0
   -2.4499    1.1401    3.0801 H   0  0  0  0  0  0  0  0  0  0  0  0
   -4.3831    1.0635    6.8960 H   0  0  0  0  0  0  0  0  0  0  0  0
   -3.5691    3.3403    7.3485 H   0  0  0  0  0  0  0  0  0  0  0  0
   -2.0918    9.7769    4.9111 H   0  0  0  0  0  0  0  0  0  0  0  0
   -1.3277   12.0769    5.1241 H   0  0  0  0  0  0  0  0  0  0  0  0
    1.6456   10.8246    7.9344 H   0  0  0  0  0  0  0  0  0  0  0  0
    0.8529    8.5055    7.7333 H   0  0  0  0  0  0  0  0  0  0  0  0
   -1.0599   14.2729    5.8089 H   0  0  0  0  0  0  0  0  0  0  0  0
    0.1427   13.7930    4.5744 H   0  0  0  0  0  0  0  0  0  0  0  0
   -2.4558   -1.1804    3.0982 H   0  0  0  0  0  0  0  0  0  0  0  0
   -3.9430   -0.4892    2.3832 H   0  0  0  0  0  0  0  0  0  0  0  0
    0.4577   16.1037    6.5595 H   0  0  0  0  0  0  0  0  0  0  0  0
    0.0749   16.2827    4.8420 H   0  0  0  0  0  0  0  0  0  0  0  0
    1.6427   15.6324    5.3403 H   0  0  0  0  0  0  0  0  0  0  0  0
   -3.6787   -3.3037    3.5606 H   0  0  0  0  0  0  0  0  0  0  0  0
   -3.7356   -2.9230    1.8340 H   0  0  0  0  0  0  0  0  0  0  0  0
   -5.1463   -2.6221    2.8578 H   0  0  0  0  0  0  0  0  0  0  0  0
   14.1090    6.9658    6.3826 H   0  0  0  0  0  0  0  0  0  0  0  0
   21.1874    7.3321    5.4713 H   0  0  0  0  0  0  0  0  0  0  0  0
   21.1139   11.0792    8.5002 H   0  0  0  0  0  0  0  0  0  0  0  0
   23.5616   11.8921    8.6476 H   0  0  0  0  0  0  0  0  0  0  0  0
   27.8094    6.7425    3.7189 H   0  0  0  0  0  0  0  0  0  0  0  0
   26.0659    6.9968    3.4160 H   0  0  0  0  0  0  0  0  0  0  0  0
   27.2460    5.4750    5.7969 H   0  0  0  0  0  0  0  0  0  0  0  0
   26.4055    4.7551    4.4193 H   0  0  0  0  0  0  0  0  0  0  0  0
   25.5274    5.8060    5.5396 H   0  0  0  0  0  0  0  0  0  0  0  0
   30.1975    9.2600    4.9556 H   0  0  0  0  0  0  0  0  0  0  0  0
   32.6491   10.1187    4.6945 H   0  0  0  0  0  0  0  0  0  0  0  0
   20.2111    7.2832    3.2038 H   0  0  0  0  0  0  0  0  0  0  0  0
   21.6739    6.0011    1.7433 H   0  0  0  0  0  0  0  0  0  0  0  0
   20.1708    2.3686    3.4313 H   0  0  0  0  0  0  0  0  0  0  0  0
   18.7119    3.6719    4.9242 H   0  0  0  0  0  0  0  0  0  0  0  0
   14.5684    9.3120    5.9296 H   0  0  0  0  0  0  0  0  0  0  0  0
   13.0919   10.6944    7.2790 H   0  0  0  0  0  0  0  0  0  0  0  0
   15.5664    9.9979   10.6986 H   0  0  0  0  0  0  0  0  0  0  0  0
   17.0491    8.5892    9.3331 H   0  0  0  0  0  0  0  0  0  0  0  0
   11.3478   10.7500    8.8459 H   0  0  0  0  0  0  0  0  0  0  0  0
   11.9399   12.3755    8.3909 H   0  0  0  0  0  0  0  0  0  0  0  0
   23.4433    4.8639    0.7807 H   0  0  0  0  0  0  0  0  0  0  0  0
   21.9568    4.7388   -0.2057 H   0  0  0  0  0  0  0  0  0  0  0  0
   10.4504   11.6896   10.9759 H   0  0  0  0  0  0  0  0  0  0  0  0
    9.7460   12.5255    9.5858 H   0  0  0  0  0  0  0  0  0  0  0  0
   11.0339   13.2927   10.5250 H   0  0  0  0  0  0  0  0  0  0  0  0
   24.3210    2.7936   -0.3006 H   0  0  0  0  0  0  0  0  0  0  0  0
   23.9700    4.0280   -1.5179 H   0  0  0  0  0  0  0  0  0  0  0  0
   22.8570    2.6747   -1.2774 H   0  0  0  0  0  0  0  0  0  0  0  0
   32.8334   14.0485    7.4754 H   0  0  0  0  0  0  0  0  0  0  0  0
   39.4428   15.1412    5.0089 H   0  0  0  0  0  0  0  0  0  0  0  0
   41.4054   16.5416    4.9995 H   0  0  0  0  0  0  0  0  0  0  0  0
   43.1086   18.4728    5.3467 H   0  0  0  0  0  0  0  0  0  0  0  0
   46.6670   19.5392    4.6718 H   0  0  0  0  0  0  0  0  0  0  0  0
   47.5201   21.0548    5.0959 H   0  0  0  0  0  0  0  0  0  0  0  0
   45.4305   20.7508    2.8758 H   0  0  0  0  0  0  0  0  0  0  0  0
   47.1751   20.8823    2.6207 H   0  0  0  0  0  0  0  0  0  0  0  0
   46.2755   22.2474    3.2932 H   0  0  0  0  0  0  0  0  0  0  0  0
   46.3325   24.0952    6.9647 H   0  0  0  0  0  0  0  0  0  0  0  0
   47.0987   26.4001    7.9223 H   0  0  0  0  0  0  0  0  0  0  0  0
   45.2907   27.4080    9.5293 H   0  0  0  0  0  0  0  0  0  0  0  0
   38.0392   14.7308    3.0132 H   0  0  0  0  0  0  0  0  0  0  0  0
   39.2881   13.4588    1.3578 H   0  0  0  0  0  0  0  0  0  0  0  0
   38.6762    9.8926    3.6409 H   0  0  0  0  0  0  0  0  0  0  0  0
   37.4303   11.1885    5.3211 H   0  0  0  0  0  0  0  0  0  0  0  0
   32.8699   16.3654    6.7995 H   0  0  0  0  0  0  0  0  0  0  0  0
   31.5355   17.6756    8.3525 H   0  0  0  0  0  0  0  0  0  0  0  0
   34.7602   17.6252   11.1639 H   0  0  0  0  0  0  0  0  0  0  0  0
   36.0991   16.2850    9.5975 H   0  0  0  0  0  0  0  0  0  0  0  0
   30.1666   17.6878   10.2573 H   0  0  0  0  0  0  0  0  0  0  0  0
   30.4436   19.3139    9.5649 H   0  0  0  0  0  0  0  0  0  0  0  0
   41.0760   12.4287    0.2997 H   0  0  0  0  0  0  0  0  0  0  0  0
   39.5129   12.1014   -0.5064 H   0  0  0  0  0  0  0  0  0  0  0  0
   29.6203   18.7333   12.4556 H   0  0  0  0  0  0  0  0  0  0  0  0
   28.5448   19.3501   11.1941 H   0  0  0  0  0  0  0  0  0  0  0  0
   29.8951   20.3366   11.7714 H   0  0  0  0  0  0  0  0  0  0  0  0
   42.0352   10.3828   -0.7566 H   0  0  0  0  0  0  0  0  0  0  0  0
   41.4336   11.4939   -1.9946 H   0  0  0  0  0  0  0  0  0  0  0  0
   40.4941   10.0617   -1.5531 H   0  0  0  0  0  0  0  0  0  0  0  0
  1  7  1  0  0  0  0
  2  1  2  0  0  0  0
  2  9  1  0  0  0  0
  3  2  1  0  0  0  0
  4  3  2  0  0  0  0
  4  5  1  0  0  0  0
  5  6  2  0  0  0  0
  6  1  1  0  0  0  0
  6 14  1  0  0  0  0
  7  8  2  0  0  0  0
  7160  1  0  0  0  0
  8161  1  0  0  0  0
  9  8  1  0  0  0  0
 10  4  1  0  0  0  0
 11 10  2  0  0  0  0
 11 12  1  0  0  0  0
 12  5  1  0  0  0  0
 13  3  1  0  0  0  0
 13 42  2  0  0  0  0
 14 47  2  0  0  0  0
 15 19  1  0  0  0  0
 15 11  1  0  0  0  0
 16 15  2  0  0  0  0
 17 16  1  0  0  0  0
 17 18  2  0  0  0  0
 18 19  1  0  0  0  0
 20 18  1  0  0  0  0
 20 21  2  0  0  0  0
 21 26  1  0  0  0  0
 22 21  1  0  0  0  0
 22 27  1  0  0  0  0
 23 22  2  0  0  0  0
 24 25  1  0  0  0  0
 24 23  1  0  0  0  0
 25 20  1  0  0  0  0
 28 24  2  0  0  0  0
 29 28  1  0  0  0  0
 29 30  1  0  0  0  0
 30 25  2  0  0  0  0
 31 29  1  0  0  0  0
 31 32  1  0  0  0  0
 32167  1  0  0  0  0
 32169  1  0  0  0  0
 33 23  1  0  0  0  0
 33 37  1  0  0  0  0
 34 35  1  0  0  0  0
 34 33  2  0  0  0  0
 35 36  2  0  0  0  0
 36 61  1  0  0  0  0
 36 37  1  0  0  0  0
 38 13  1  0  0  0  0
 39 38  2  0  0  0  0
 39 40  1  0  0  0  0
 40 41  2  0  0  0  0
 41 42  1  0  0  0  0
 41174  1  0  0  0  0
 42175  1  0  0  0  0
 43 44  2  0  0  0  0
 43 14  1  0  0  0  0
 44 45  1  0  0  0  0
 45 48  1  0  0  0  0
 45 46  2  0  0  0  0
 46178  1  0  0  0  0
 47 46  1  0  0  0  0
 47179  1  0  0  0  0
 49 52  1  0  0  0  0
 49180  1  0  0  0  0
 49 48  1  0  0  0  0
 50 40  1  0  0  0  0
 51 50  1  0  0  0  0
 52184  1  0  0  0  0
 53189  1  0  0  0  0
 53 51  1  0  0  0  0
 53187  1  0  0  0  0
 54 59  2  0  0  0  0
 55 54  1  0  0  0  0
 56 55  2  0  0  0  0
 56 57  1  0  0  0  0
 57 63  1  0  0  0  0
 57 58  2  0  0  0  0
 58 59  1  0  0  0  0
 58 65  1  0  0  0  0
 59 67  1  0  0  0  0
 60 54  1  0  0  0  0
 60190  1  0  0  0  0
 61 60  2  0  0  0  0
 62 61  1  0  0  0  0
 62 55  1  0  0  0  0
 63 64  2  0  0  0  0
 64 68  1  0  0  0  0
 64 65  1  0  0  0  0
 66 95  1  0  0  0  0
 66 56  1  0  0  0  0
 67100  1  0  0  0  0
 68 69  2  0  0  0  0
 69 70  1  0  0  0  0
 69192  1  0  0  0  0
 70193  1  0  0  0  0
 71 70  2  0  0  0  0
 72 68  1  0  0  0  0
 72 71  1  0  0  0  0
 73 71  1  0  0  0  0
 73 74  2  0  0  0  0
 74 79  1  0  0  0  0
 75 74  1  0  0  0  0
 75 80  1  0  0  0  0
 76 75  2  0  0  0  0
 77 78  1  0  0  0  0
 77 76  1  0  0  0  0
 78 73  1  0  0  0  0
 81 77  2  0  0  0  0
 82 81  1  0  0  0  0
 82 83  1  0  0  0  0
 83 78  2  0  0  0  0
 84 82  1  0  0  0  0
 84 85  1  0  0  0  0
 85198  1  0  0  0  0
 85196  1  0  0  0  0
 86 76  1  0  0  0  0
 86 90  1  0  0  0  0
 87 86  2  0  0  0  0
 88 87  1  0  0  0  0
 88 89  2  0  0  0  0
 89114  1  0  0  0  0
 89 90  1  0  0  0  0
 91 66  2  0  0  0  0
 92 93  2  0  0  0  0
 92 91  1  0  0  0  0
 93 94  1  0  0  0  0
 94203  1  0  0  0  0
 94 95  2  0  0  0  0
 95204  1  0  0  0  0
 96 67  2  0  0  0  0
 96 97  1  0  0  0  0
 97 98  2  0  0  0  0
 98 99  1  0  0  0  0
 98101  1  0  0  0  0
 99207  1  0  0  0  0
100208  1  0  0  0  0
100 99  2  0  0  0  0
102105  1  0  0  0  0
102101  1  0  0  0  0
103 93  1  0  0  0  0
104211  1  0  0  0  0
104103  1  0  0  0  0
105215  1  0  0  0  0
105213  1  0  0  0  0
106216  1  0  0  0  0
106104  1  0  0  0  0
107113  1  0  0  0  0
107112  2  0  0  0  0
108107  1  0  0  0  0
109108  2  0  0  0  0
109110  1  0  0  0  0
110111  2  0  0  0  0
111112  1  0  0  0  0
111118  1  0  0  0  0
112120  1  0  0  0  0
113219  1  0  0  0  0
114113  2  0  0  0  0
115108  1  0  0  0  0
115114  1  0  0  0  0
116110  1  0  0  0  0
116117  2  0  0  0  0
117118  1  0  0  0  0
119148  1  0  0  0  0
119109  1  0  0  0  0
120153  1  0  0  0  0
121117  1  0  0  0  0
121125  1  0  0  0  0
122123  1  0  0  0  0
122121  2  0  0  0  0
123124  2  0  0  0  0
124126  1  0  0  0  0
124125  1  0  0  0  0
126127  2  0  0  0  0
127128  1  0  0  0  0
127132  1  0  0  0  0
128133  1  0  0  0  0
129139  1  0  0  0  0
129128  2  0  0  0  0
130129  1  0  0  0  0
131130  1  0  0  0  0
131126  1  0  0  0  0
134130  2  0  0  0  0
135136  1  0  0  0  0
135134  1  0  0  0  0
136131  2  0  0  0  0
137224  1  0  0  0  0
137135  1  0  0  0  0
138227  1  0  0  0  0
138137  1  0  0  0  0
139143  1  0  0  0  0
140139  2  0  0  0  0
140141  1  0  0  0  0
141142  2  0  0  0  0
142143  1  0  0  0  0
142230  1  0  0  0  0
144119  2  0  0  0  0
145146  2  0  0  0  0
145144  1  0  0  0  0
146147  1  0  0  0  0
147233  1  0  0  0  0
147148  2  0  0  0  0
148234  1  0  0  0  0
149120  2  0  0  0  0
149150  1  0  0  0  0
150151  2  0  0  0  0
151152  1  0  0  0  0
151154  1  0  0  0  0
152237  1  0  0  0  0
153238  1  0  0  0  0
153152  2  0  0  0  0
155154  1  0  0  0  0
155158  1  0  0  0  0
156146  1  0  0  0  0
157241  1  0  0  0  0
157156  1  0  0  0  0
158245  1  0  0  0  0
158243  1  0  0  0  0
159246  1  0  0  0  0
159157  1  0  0  0  0
162 10  1  0  0  0  0
163 16  1  0  0  0  0
164 17  1  0  0  0  0
165 31  1  0  0  0  0
166 31  1  0  0  0  0
168 32  1  0  0  0  0
170 34  1  0  0  0  0
171 35  1  0  0  0  0
172 38  1  0  0  0  0
173 39  1  0  0  0  0
176 43  1  0  0  0  0
177 44  1  0  0  0  0
181 49  1  0  0  0  0
182 51  1  0  0  0  0
183 51  1  0  0  0  0
185 52  1  0  0  0  0
186 52  1  0  0  0  0
188 53  1  0  0  0  0
191 63  1  0  0  0  0
194 84  1  0  0  0  0
195 84  1  0  0  0  0
197 85  1  0  0  0  0
199 87  1  0  0  0  0
200 88  1  0  0  0  0
201 91  1  0  0  0  0
202 92  1  0  0  0  0
205 96  1  0  0  0  0
206 97  1  0  0  0  0
209102  1  0  0  0  0
210102  1  0  0  0  0
212104  1  0  0  0  0
214105  1  0  0  0  0
217106  1  0  0  0  0
218106  1  0  0  0  0
220116  1  0  0  0  0
221122  1  0  0  0  0
222123  1  0  0  0  0
223137  1  0  0  0  0
225138  1  0  0  0  0
226138  1  0  0  0  0
228140  1  0  0  0  0
229141  1  0  0  0  0
231144  1  0  0  0  0
232145  1  0  0  0  0
235149  1  0  0  0  0
236150  1  0  0  0  0
239155  1  0  0  0  0
240155  1  0  0  0  0
242157  1  0  0  0  0
244158  1  0  0  0  0
247159  1  0  0  0  0
248159  1  0  0  0  0
M  END
