SCF done       -453.827614896160          0.000743466736
 OpenBabel12282109573D

248274  0  0  0  0  0  0  0  0999 V2000
    2.7473   -6.4148    3.6567 C   0  0  0  0  0  0  0  0  0  0  0  0
    4.0282   -6.7629    3.1658 C   0  0  0  0  0  0  0  0  0  0  0  0
    5.0580   -5.8456    3.0079 C   0  0  0  0  0  0  0  0  0  0  0  0
    4.7907   -4.5252    3.4017 C   0  0  0  0  0  0  0  0  0  0  0  0
    3.5183   -4.1854    3.9251 C   0  0  0  0  0  0  0  0  0  0  0  0
    2.4760   -5.0931    4.0396 C   0  0  0  0  0  0  0  0  0  0  0  0
    1.8811   -7.5473    3.7158 C   0  0  0  0  0  0  0  0  0  0  0  0
    2.4644   -8.6777    3.2696 C   0  0  0  0  0  0  0  0  0  0  0  0
    4.1027   -8.4583    2.7567 S   0  0  0  0  0  0  0  0  0  0  0  0
    5.6687   -3.4108    3.3818 C   0  0  0  0  0  0  0  0  0  0  0  0
    5.1068   -2.2621    3.8530 C   0  0  0  0  0  0  0  0  0  0  0  0
    3.4410   -2.4960    4.3535 S   0  0  0  0  0  0  0  0  0  0  0  0
    6.3649   -6.2332    2.4636 C   0  0  0  0  0  0  0  0  0  0  0  0
    1.1468   -4.6833    4.5105 C   0  0  0  0  0  0  0  0  0  0  0  0
    5.7131   -0.9791    3.9803 C   0  0  0  0  0  0  0  0  0  0  0  0
    5.2414    0.1127    4.6754 C   0  0  0  0  0  0  0  0  0  0  0  0
    6.0965    1.2117    4.6186 C   0  0  0  0  0  0  0  0  0  0  0  0
    7.2268    0.9856    3.8611 C   0  0  0  0  0  0  0  0  0  0  0  0
    7.2320   -0.6313    3.2190 S   0  0  0  0  0  0  0  0  0  0  0  0
    8.2833    1.9188    3.6080 C   0  0  0  0  0  0  0  0  0  0  0  0
    9.3026    1.7187    2.6853 C   0  0  0  0  0  0  0  0  0  0  0  0
   10.3263    2.6417    2.4247 C   0  0  0  0  0  0  0  0  0  0  0  0
   10.4463    3.8569    3.0844 C   0  0  0  0  0  0  0  0  0  0  0  0
    9.4311    4.0767    4.0452 C   0  0  0  0  0  0  0  0  0  0  0  0
    8.3743    3.1554    4.2947 C   0  0  0  0  0  0  0  0  0  0  0  0
    9.3304    0.5773    1.9689 F   0  0  0  0  0  0  0  0  0  0  0  0
   11.2239    2.2876    1.4850 F   0  0  0  0  0  0  0  0  0  0  0  0
    9.2511    5.1242    4.8572 N   0  0  0  0  0  0  0  0  0  0  0  0
    8.1730    4.8343    5.5278 N   0  0  0  0  0  0  0  0  0  0  0  0
    7.6023    3.6955    5.2497 N   0  0  0  0  0  0  0  0  0  0  0  0
    7.6255    5.7405    6.4967 C   0  0  0  0  0  0  0  0  0  0  0  0
    7.0159    6.9538    5.8027 C   0  0  0  0  0  0  0  0  0  0  0  0
   11.4687    4.8360    2.8627 C   0  0  0  0  0  0  0  0  0  0  0  0
   12.4315    4.8982    1.8771 C   0  0  0  0  0  0  0  0  0  0  0  0
   13.2508    6.0229    1.9754 C   0  0  0  0  0  0  0  0  0  0  0  0
   12.9369    6.8306    3.0472 C   0  0  0  0  0  0  0  0  0  0  0  0
   11.5880    6.1968    3.9366 S   0  0  0  0  0  0  0  0  0  0  0  0
    7.0548   -7.3138    3.0018 C   0  0  0  0  0  0  0  0  0  0  0  0
    8.2892   -7.6719    2.4994 C   0  0  0  0  0  0  0  0  0  0  0  0
    8.8693   -6.9993    1.4280 C   0  0  0  0  0  0  0  0  0  0  0  0
    8.1662   -5.9170    0.8973 C   0  0  0  0  0  0  0  0  0  0  0  0
    6.9445   -5.5340    1.4053 C   0  0  0  0  0  0  0  0  0  0  0  0
    1.0018   -3.9793    5.7003 C   0  0  0  0  0  0  0  0  0  0  0  0
   -0.2500   -3.5825    6.1252 C   0  0  0  0  0  0  0  0  0  0  0  0
   -1.3946   -3.8359    5.3756 C   0  0  0  0  0  0  0  0  0  0  0  0
   -1.2359   -4.5489    4.1871 C   0  0  0  0  0  0  0  0  0  0  0  0
    0.0050   -4.9714    3.7636 C   0  0  0  0  0  0  0  0  0  0  0  0
   -3.0392   -3.3794    5.8246 S   0  0  0  0  0  0  0  0  0  0  0  0
   -2.8277   -1.8039    6.7474 C   0  0  0  0  0  0  0  0  0  0  0  0
   10.4432   -7.3541    0.7153 S   0  0  0  0  0  0  0  0  0  0  0  0
   10.6542   -9.1648    0.9519 C   0  0  0  0  0  0  0  0  0  0  0  0
   -4.1223   -1.0185    6.6759 C   0  0  0  0  0  0  0  0  0  0  0  0
   11.6644   -9.6713   -0.0587 C   0  0  0  0  0  0  0  0  0  0  0  0
   -0.3252   -2.9416    7.3141 F   0  0  0  0  0  0  0  0  0  0  0  0
    8.9256   -8.7016    3.1039 F   0  0  0  0  0  0  0  0  0  0  0  0
   14.8775    9.9726    3.4477 C   0  0  0  0  0  0  0  0  0  0  0  0
   14.3420   10.0244    4.7592 C   0  0  0  0  0  0  0  0  0  0  0  0
   14.6596   11.0177    5.6728 C   0  0  0  0  0  0  0  0  0  0  0  0
   15.5125   12.0388    5.2234 C   0  0  0  0  0  0  0  0  0  0  0  0
   15.9984   12.0216    3.8918 C   0  0  0  0  0  0  0  0  0  0  0  0
   15.7293   10.9961    2.9979 C   0  0  0  0  0  0  0  0  0  0  0  0
   14.4171    8.8366    2.7340 C   0  0  0  0  0  0  0  0  0  0  0  0
   13.5757    8.0398    3.4551 C   0  0  0  0  0  0  0  0  0  0  0  0
   13.3034    8.6596    5.0711 S   0  0  0  0  0  0  0  0  0  0  0  0
   15.9724   13.1720    5.9397 C   0  0  0  0  0  0  0  0  0  0  0  0
   16.7771   13.9939    5.2079 C   0  0  0  0  0  0  0  0  0  0  0  0
   17.0095   13.4078    3.5706 S   0  0  0  0  0  0  0  0  0  0  0  0
   14.1376   10.9949    7.0446 C   0  0  0  0  0  0  0  0  0  0  0  0
   16.3291   10.9672    1.6585 C   0  0  0  0  0  0  0  0  0  0  0  0
   17.4056   15.1987    5.6388 C   0  0  0  0  0  0  0  0  0  0  0  0
   17.9365   16.2103    4.8700 C   0  0  0  0  0  0  0  0  0  0  0  0
   18.4666   17.2551    5.6270 C   0  0  0  0  0  0  0  0  0  0  0  0
   18.3767   17.0443    6.9866 C   0  0  0  0  0  0  0  0  0  0  0  0
   17.5940   15.5301    7.3305 S   0  0  0  0  0  0  0  0  0  0  0  0
   18.8617   17.9070    8.0232 C   0  0  0  0  0  0  0  0  0  0  0  0
   19.0152   17.5203    9.3486 C   0  0  0  0  0  0  0  0  0  0  0  0
   19.5367   18.3441   10.3565 C   0  0  0  0  0  0  0  0  0  0  0  0
   19.9285   19.6579   10.1430 C   0  0  0  0  0  0  0  0  0  0  0  0
   19.7434   20.0914    8.8091 C   0  0  0  0  0  0  0  0  0  0  0  0
   19.2491   19.2469    7.7733 C   0  0  0  0  0  0  0  0  0  0  0  0
   18.6692   16.2714    9.7186 F   0  0  0  0  0  0  0  0  0  0  0  0
   19.6374   17.7965   11.5829 F   0  0  0  0  0  0  0  0  0  0  0  0
   19.9896   21.2892    8.2668 N   0  0  0  0  0  0  0  0  0  0  0  0
   19.6618   21.1522    7.0135 N   0  0  0  0  0  0  0  0  0  0  0  0
   19.2217   19.9796    6.6501 N   0  0  0  0  0  0  0  0  0  0  0  0
   19.8189   22.2289    6.0777 C   0  0  0  0  0  0  0  0  0  0  0  0
   21.2682   22.3221    5.6108 C   0  0  0  0  0  0  0  0  0  0  0  0
   20.4837   20.5320   11.1340 C   0  0  0  0  0  0  0  0  0  0  0  0
   20.9803   20.2360   12.3853 C   0  0  0  0  0  0  0  0  0  0  0  0
   21.4729   21.3527   13.0618 C   0  0  0  0  0  0  0  0  0  0  0  0
   21.3393   22.5219   12.3479 C   0  0  0  0  0  0  0  0  0  0  0  0
   20.6199   22.2312   10.7924 S   0  0  0  0  0  0  0  0  0  0  0  0
   12.7750   10.8373    7.2734 C   0  0  0  0  0  0  0  0  0  0  0  0
   12.2851   10.8071    8.5630 C   0  0  0  0  0  0  0  0  0  0  0  0
   13.1236   10.8993    9.6695 C   0  0  0  0  0  0  0  0  0  0  0  0
   14.4878   11.0614    9.4260 C   0  0  0  0  0  0  0  0  0  0  0  0
   14.9877   11.1147    8.1434 C   0  0  0  0  0  0  0  0  0  0  0  0
   17.0148    9.8386    1.2218 C   0  0  0  0  0  0  0  0  0  0  0  0
   17.6091    9.8227   -0.0238 C   0  0  0  0  0  0  0  0  0  0  0  0
   17.5217   10.9058   -0.8933 C   0  0  0  0  0  0  0  0  0  0  0  0
   16.8337   12.0324   -0.4409 C   0  0  0  0  0  0  0  0  0  0  0  0
   16.2559   12.0698    0.8088 C   0  0  0  0  0  0  0  0  0  0  0  0
   18.2554   11.0136   -2.4938 S   0  0  0  0  0  0  0  0  0  0  0  0
   18.2897    9.2804   -3.1049 C   0  0  0  0  0  0  0  0  0  0  0  0
   12.6058   10.8850   11.3562 S   0  0  0  0  0  0  0  0  0  0  0  0
   11.1274    9.7925   11.3600 C   0  0  0  0  0  0  0  0  0  0  0  0
   18.3931    9.3012   -4.6173 C   0  0  0  0  0  0  0  0  0  0  0  0
   10.9407    9.2315   12.7560 C   0  0  0  0  0  0  0  0  0  0  0  0
   18.2951    8.7064   -0.3642 F   0  0  0  0  0  0  0  0  0  0  0  0
   10.9441   10.6952    8.7117 F   0  0  0  0  0  0  0  0  0  0  0  0
   21.8266   26.1691   12.7830 C   0  0  0  0  0  0  0  0  0  0  0  0
   22.6464   25.8441   13.8930 C   0  0  0  0  0  0  0  0  0  0  0  0
   23.2873   26.8008   14.6644 C   0  0  0  0  0  0  0  0  0  0  0  0
   23.0261   28.1453   14.3465 C   0  0  0  0  0  0  0  0  0  0  0  0
   22.1798   28.4709   13.2564 C   0  0  0  0  0  0  0  0  0  0  0  0
   21.5966   27.5131   12.4407 C   0  0  0  0  0  0  0  0  0  0  0  0
   21.3040   25.0100   12.1582 C   0  0  0  0  0  0  0  0  0  0  0  0
   21.7023   23.8427   12.7389 C   0  0  0  0  0  0  0  0  0  0  0  0
   22.7612   24.1153   14.1099 S   0  0  0  0  0  0  0  0  0  0  0  0
   23.4878   29.3013   15.0222 C   0  0  0  0  0  0  0  0  0  0  0  0
   23.0451   30.4718   14.4742 C   0  0  0  0  0  0  0  0  0  0  0  0
   22.0275   30.1985   13.0735 S   0  0  0  0  0  0  0  0  0  0  0  0
   24.2235   26.4416   15.7359 C   0  0  0  0  0  0  0  0  0  0  0  0
   20.7743   27.8634   11.2768 C   0  0  0  0  0  0  0  0  0  0  0  0
   23.3100   31.7966   14.9289 C   0  0  0  0  0  0  0  0  0  0  0  0
   24.1523   32.1822   15.9525 C   0  0  0  0  0  0  0  0  0  0  0  0
   24.1728   33.5593   16.1566 C   0  0  0  0  0  0  0  0  0  0  0  0
   23.3465   34.2536   15.2960 C   0  0  0  0  0  0  0  0  0  0  0  0
   22.5346   33.1683   14.2079 S   0  0  0  0  0  0  0  0  0  0  0  0
   23.1424   35.6707   15.2699 C   0  0  0  0  0  0  0  0  0  0  0  0
   22.2777   36.3212   14.3995 C   0  0  0  0  0  0  0  0  0  0  0  0
   22.0638   37.7080   14.3843 C   0  0  0  0  0  0  0  0  0  0  0  0
   22.6999   38.5917   15.2441 C   0  0  0  0  0  0  0  0  0  0  0  0
   23.5951   37.9557   16.1366 C   0  0  0  0  0  0  0  0  0  0  0  0
   23.8145   36.5477   16.1583 C   0  0  0  0  0  0  0  0  0  0  0  0
   21.5783   35.5997   13.5011 F   0  0  0  0  0  0  0  0  0  0  0  0
   21.1815   38.1592   13.4716 F   0  0  0  0  0  0  0  0  0  0  0  0
   24.3730   38.4967   17.0814 N   0  0  0  0  0  0  0  0  0  0  0  0
   24.9963   37.4833   17.6098 N   0  0  0  0  0  0  0  0  0  0  0  0
   24.7173   36.3071   17.1204 N   0  0  0  0  0  0  0  0  0  0  0  0
   25.9099   37.6513   18.7034 C   0  0  0  0  0  0  0  0  0  0  0  0
   25.1440   37.8449   20.0084 C   0  0  0  0  0  0  0  0  0  0  0  0
   22.5041   40.0136   15.2771 C   0  0  0  0  0  0  0  0  0  0  0  0
   21.6941   40.8062   14.4983 C   0  0  0  0  0  0  0  0  0  0  0  0
   21.7675   42.1672   14.8360 C   0  0  0  0  0  0  0  0  0  0  0  0
   22.6251   42.4061   15.8656 C   0  0  0  0  0  0  0  0  0  0  0  0
   23.3678   40.9739   16.4462 S   0  0  0  0  0  0  0  0  0  0  0  0
   23.8747   25.5205   16.7172 C   0  0  0  0  0  0  0  0  0  0  0  0
   24.7750   25.1894   17.7098 C   0  0  0  0  0  0  0  0  0  0  0  0
   26.0573   25.7289   17.7491 C   0  0  0  0  0  0  0  0  0  0  0  0
   26.3941   26.6530   16.7605 C   0  0  0  0  0  0  0  0  0  0  0  0
   25.4977   27.0087   15.7773 C   0  0  0  0  0  0  0  0  0  0  0  0
   21.0111   27.2606   10.0448 C   0  0  0  0  0  0  0  0  0  0  0  0
   20.2231   27.5702    8.9557 C   0  0  0  0  0  0  0  0  0  0  0  0
   19.1621   28.4658    9.0475 C   0  0  0  0  0  0  0  0  0  0  0  0
   18.9508   29.0814   10.2810 C   0  0  0  0  0  0  0  0  0  0  0  0
   19.7401   28.7933   11.3728 C   0  0  0  0  0  0  0  0  0  0  0  0
   18.0962   28.9297    7.7195 S   0  0  0  0  0  0  0  0  0  0  0  0
   17.9601   27.3968    6.7127 C   0  0  0  0  0  0  0  0  0  0  0  0
   27.2743   25.3829   18.9799 S   0  0  0  0  0  0  0  0  0  0  0  0
   26.9919   23.6136   19.3905 C   0  0  0  0  0  0  0  0  0  0  0  0
   16.6665   27.4453    5.9234 C   0  0  0  0  0  0  0  0  0  0  0  0
   28.2856   23.0213   19.9132 C   0  0  0  0  0  0  0  0  0  0  0  0
   20.5252   26.9656    7.7812 F   0  0  0  0  0  0  0  0  0  0  0  0
   24.3600   24.3232   18.6616 F   0  0  0  0  0  0  0  0  0  0  0  0
    0.8755   -7.5021    4.0927 H   0  0  0  0  0  0  0  0  0  0  0  0
    2.0390   -9.6605    3.2115 H   0  0  0  0  0  0  0  0  0  0  0  0
    6.6911   -3.4621    3.0524 H   0  0  0  0  0  0  0  0  0  0  0  0
    4.3096    0.0977    5.2127 H   0  0  0  0  0  0  0  0  0  0  0  0
    5.9157    2.1515    5.1055 H   0  0  0  0  0  0  0  0  0  0  0  0
    8.4342    6.0573    7.1596 H   0  0  0  0  0  0  0  0  0  0  0  0
    6.8733    5.1872    7.0609 H   0  0  0  0  0  0  0  0  0  0  0  0
    7.7743    7.4558    5.2075 H   0  0  0  0  0  0  0  0  0  0  0  0
    6.6333    7.6489    6.5442 H   0  0  0  0  0  0  0  0  0  0  0  0
    6.1994    6.6503    5.1519 H   0  0  0  0  0  0  0  0  0  0  0  0
   12.5376    4.1581    1.1060 H   0  0  0  0  0  0  0  0  0  0  0  0
   14.0594    6.2303    1.2981 H   0  0  0  0  0  0  0  0  0  0  0  0
    6.6594   -7.8674    3.8390 H   0  0  0  0  0  0  0  0  0  0  0  0
    8.6059   -5.3805    0.0710 H   0  0  0  0  0  0  0  0  0  0  0  0
    6.4169   -4.7044    0.9601 H   0  0  0  0  0  0  0  0  0  0  0  0
    1.8527   -3.7584    6.3254 H   0  0  0  0  0  0  0  0  0  0  0  0
   -2.1155   -4.7601    3.5989 H   0  0  0  0  0  0  0  0  0  0  0  0
    0.0995   -5.5023    2.8286 H   0  0  0  0  0  0  0  0  0  0  0  0
   -2.0110   -1.2610    6.2743 H   0  0  0  0  0  0  0  0  0  0  0  0
   -2.5671   -2.0402    7.7779 H   0  0  0  0  0  0  0  0  0  0  0  0
    9.6794   -9.6261    0.8006 H   0  0  0  0  0  0  0  0  0  0  0  0
   10.9944   -9.3434    1.9708 H   0  0  0  0  0  0  0  0  0  0  0  0
   -4.3785   -0.7963    5.6423 H   0  0  0  0  0  0  0  0  0  0  0  0
   -4.0134   -0.0824    7.2195 H   0  0  0  0  0  0  0  0  0  0  0  0
   -4.9377   -1.5860    7.1186 H   0  0  0  0  0  0  0  0  0  0  0  0
   11.3239   -9.4729   -1.0725 H   0  0  0  0  0  0  0  0  0  0  0  0
   11.7984  -10.7441    0.0630 H   0  0  0  0  0  0  0  0  0  0  0  0
   12.6250   -9.1813    0.0842 H   0  0  0  0  0  0  0  0  0  0  0  0
   14.6766    8.6381    1.7105 H   0  0  0  0  0  0  0  0  0  0  0  0
   15.6989   13.3867    6.9572 H   0  0  0  0  0  0  0  0  0  0  0  0
   17.9259   16.1859    3.7946 H   0  0  0  0  0  0  0  0  0  0  0  0
   18.9123   18.1414    5.2158 H   0  0  0  0  0  0  0  0  0  0  0  0
   19.5285   23.1527    6.5823 H   0  0  0  0  0  0  0  0  0  0  0  0
   19.1509   22.0295    5.2384 H   0  0  0  0  0  0  0  0  0  0  0  0
   21.9218   22.4908    6.4628 H   0  0  0  0  0  0  0  0  0  0  0  0
   21.3775   23.1499    4.9165 H   0  0  0  0  0  0  0  0  0  0  0  0
   21.5667   21.4032    5.1121 H   0  0  0  0  0  0  0  0  0  0  0  0
   20.9975   19.2433   12.7951 H   0  0  0  0  0  0  0  0  0  0  0  0
   21.9032   21.3191   14.0471 H   0  0  0  0  0  0  0  0  0  0  0  0
   12.0758   10.7691    6.4548 H   0  0  0  0  0  0  0  0  0  0  0  0
   15.1505   11.1422   10.2735 H   0  0  0  0  0  0  0  0  0  0  0  0
   16.0508   11.2172    7.9886 H   0  0  0  0  0  0  0  0  0  0  0  0
   17.1294    8.9763    1.8607 H   0  0  0  0  0  0  0  0  0  0  0  0
   16.7646   12.8838   -1.0998 H   0  0  0  0  0  0  0  0  0  0  0  0
   15.7198   12.9521    1.1219 H   0  0  0  0  0  0  0  0  0  0  0  0
   17.3658    8.8046   -2.7800 H   0  0  0  0  0  0  0  0  0  0  0  0
   19.1443    8.7737   -2.6592 H   0  0  0  0  0  0  0  0  0  0  0  0
   11.3114    8.9988   10.6375 H   0  0  0  0  0  0  0  0  0  0  0  0
   10.2631   10.3797   11.0529 H   0  0  0  0  0  0  0  0  0  0  0  0
   17.5415    9.8199   -5.0521 H   0  0  0  0  0  0  0  0  0  0  0  0
   18.4148    8.2820   -4.9974 H   0  0  0  0  0  0  0  0  0  0  0  0
   19.3024    9.8094   -4.9300 H   0  0  0  0  0  0  0  0  0  0  0  0
   11.8143    8.6580   13.0575 H   0  0  0  0  0  0  0  0  0  0  0  0
   10.0692    8.5806   12.7770 H   0  0  0  0  0  0  0  0  0  0  0  0
   10.7927   10.0356   13.4731 H   0  0  0  0  0  0  0  0  0  0  0  0
   20.6270   25.0316   11.3234 H   0  0  0  0  0  0  0  0  0  0  0  0
   24.1019   29.2595   15.9027 H   0  0  0  0  0  0  0  0  0  0  0  0
   24.7339   31.4862   16.5290 H   0  0  0  0  0  0  0  0  0  0  0  0
   24.7628   34.0569   16.9033 H   0  0  0  0  0  0  0  0  0  0  0  0
   26.5246   38.5294   18.4939 H   0  0  0  0  0  0  0  0  0  0  0  0
   26.5326   36.7562   18.7443 H   0  0  0  0  0  0  0  0  0  0  0  0
   24.5024   38.7193   19.9342 H   0  0  0  0  0  0  0  0  0  0  0  0
   25.8423   37.9886   20.8276 H   0  0  0  0  0  0  0  0  0  0  0  0
   24.5296   36.9732   20.2202 H   0  0  0  0  0  0  0  0  0  0  0  0
   21.0695   40.4295   13.7105 H   0  0  0  0  0  0  0  0  0  0  0  0
   21.2053   42.9348   14.3352 H   0  0  0  0  0  0  0  0  0  0  0  0
   22.8666   43.3470   16.3194 H   0  0  0  0  0  0  0  0  0  0  0  0
   22.8922   25.0759   16.7420 H   0  0  0  0  0  0  0  0  0  0  0  0
   27.3834   27.0834   16.7810 H   0  0  0  0  0  0  0  0  0  0  0  0
   25.7940   27.7084   15.0107 H   0  0  0  0  0  0  0  0  0  0  0  0
   21.8297   26.5704    9.9112 H   0  0  0  0  0  0  0  0  0  0  0  0
   18.1423   29.7905   10.3649 H   0  0  0  0  0  0  0  0  0  0  0  0
   19.5330   29.2696   12.3182 H   0  0  0  0  0  0  0  0  0  0  0  0
   17.9682   26.5560    7.4050 H   0  0  0  0  0  0  0  0  0  0  0  0
   18.8232   27.3406    6.0510 H   0  0  0  0  0  0  0  0  0  0  0  0
   26.6732   23.1187   18.4744 H   0  0  0  0  0  0  0  0  0  0  0  0
   26.2011   23.5549   20.1368 H   0  0  0  0  0  0  0  0  0  0  0  0
   15.8125   27.5139    6.5935 H   0  0  0  0  0  0  0  0  0  0  0  0
   16.5681   26.5447    5.3208 H   0  0  0  0  0  0  0  0  0  0  0  0
   16.6557   28.3094    5.2632 H   0  0  0  0  0  0  0  0  0  0  0  0
   29.0701   23.0967   19.1634 H   0  0  0  0  0  0  0  0  0  0  0  0
   28.1358   21.9724   20.1600 H   0  0  0  0  0  0  0  0  0  0  0  0
   28.6124   23.5470   20.8077 H   0  0  0  0  0  0  0  0  0  0  0  0
  1  7  1  0  0  0  0
  1  6  2  0  0  0  0
  2  1  1  0  0  0  0
  3  2  2  0  0  0  0
  3  4  1  0  0  0  0
  4  5  2  0  0  0  0
  5  6  1  0  0  0  0
  5 12  1  0  0  0  0
  6 14  1  0  0  0  0
  7166  1  0  0  0  0
  8  7  2  0  0  0  0
  9  2  1  0  0  0  0
  9  8  1  0  0  0  0
 10  4  1  0  0  0  0
 10 11  2  0  0  0  0
 11 15  1  0  0  0  0
 11 12  1  0  0  0  0
 13 38  2  0  0  0  0
 13  3  1  0  0  0  0
 14 43  2  0  0  0  0
 15 16  2  0  0  0  0
 16169  1  0  0  0  0
 17 16  1  0  0  0  0
 17170  1  0  0  0  0
 18 17  2  0  0  0  0
 19 18  1  0  0  0  0
 19 15  1  0  0  0  0
 20 18  1  0  0  0  0
 20 25  1  0  0  0  0
 21 20  2  0  0  0  0
 22 21  1  0  0  0  0
 22 23  2  0  0  0  0
 23 24  1  0  0  0  0
 24 25  1  0  0  0  0
 24 28  2  0  0  0  0
 25 30  2  0  0  0  0
 26 21  1  0  0  0  0
 27 22  1  0  0  0  0
 28 29  1  0  0  0  0
 29 31  1  0  0  0  0
 30 29  1  0  0  0  0
 31172  1  0  0  0  0
 31171  1  0  0  0  0
 32 31  1  0  0  0  0
 32174  1  0  0  0  0
 33 23  1  0  0  0  0
 33 37  1  0  0  0  0
 34 35  1  0  0  0  0
 34 33  2  0  0  0  0
 35 36  2  0  0  0  0
 36 63  1  0  0  0  0
 36 37  1  0  0  0  0
 38178  1  0  0  0  0
 39 38  1  0  0  0  0
 39 55  1  0  0  0  0
 40 39  2  0  0  0  0
 41 42  2  0  0  0  0
 41 40  1  0  0  0  0
 42 13  1  0  0  0  0
 43 44  1  0  0  0  0
 43181  1  0  0  0  0
 44 54  1  0  0  0  0
 45 48  1  0  0  0  0
 45 44  2  0  0  0  0
 46 45  1  0  0  0  0
 47 46  2  0  0  0  0
 47 14  1  0  0  0  0
 48 49  1  0  0  0  0
 49185  1  0  0  0  0
 50 51  1  0  0  0  0
 50 40  1  0  0  0  0
 51187  1  0  0  0  0
 52 49  1  0  0  0  0
 52190  1  0  0  0  0
 52189  1  0  0  0  0
 53192  1  0  0  0  0
 53193  1  0  0  0  0
 53 51  1  0  0  0  0
 56 57  1  0  0  0  0
 57 64  1  0  0  0  0
 57 58  2  0  0  0  0
 58 68  1  0  0  0  0
 59 58  1  0  0  0  0
 59 65  1  0  0  0  0
 60 59  2  0  0  0  0
 61 56  2  0  0  0  0
 61 60  1  0  0  0  0
 62 56  1  0  0  0  0
 62 63  2  0  0  0  0
 63 64  1  0  0  0  0
 65195  1  0  0  0  0
 66 70  1  0  0  0  0
 66 65  2  0  0  0  0
 67 60  1  0  0  0  0
 67 66  1  0  0  0  0
 68 93  2  0  0  0  0
 68 97  1  0  0  0  0
 69 61  1  0  0  0  0
 70 74  1  0  0  0  0
 71 72  1  0  0  0  0
 71 70  2  0  0  0  0
 72 73  2  0  0  0  0
 73 74  1  0  0  0  0
 73 75  1  0  0  0  0
 75 76  2  0  0  0  0
 76 81  1  0  0  0  0
 76 77  1  0  0  0  0
 77 82  1  0  0  0  0
 78 77  2  0  0  0  0
 78 88  1  0  0  0  0
 79 78  1  0  0  0  0
 80 75  1  0  0  0  0
 80 79  1  0  0  0  0
 83 79  2  0  0  0  0
 84 83  1  0  0  0  0
 85 84  1  0  0  0  0
 85 80  2  0  0  0  0
 86198  1  0  0  0  0
 86 84  1  0  0  0  0
 87 86  1  0  0  0  0
 87200  1  0  0  0  0
 88 89  2  0  0  0  0
 89203  1  0  0  0  0
 89 90  1  0  0  0  0
 90204  1  0  0  0  0
 91118  1  0  0  0  0
 91 90  2  0  0  0  0
 92 88  1  0  0  0  0
 92 91  1  0  0  0  0
 93 94  1  0  0  0  0
 94110  1  0  0  0  0
 94 95  2  0  0  0  0
 95105  1  0  0  0  0
 96 95  1  0  0  0  0
 96206  1  0  0  0  0
 97 96  2  0  0  0  0
 98 69  1  0  0  0  0
 98208  1  0  0  0  0
 99 98  2  0  0  0  0
100101  2  0  0  0  0
100 99  1  0  0  0  0
101102  1  0  0  0  0
102210  1  0  0  0  0
102 69  2  0  0  0  0
103100  1  0  0  0  0
104211  1  0  0  0  0
104212  1  0  0  0  0
104103  1  0  0  0  0
105106  1  0  0  0  0
106108  1  0  0  0  0
107104  1  0  0  0  0
108219  1  0  0  0  0
108218  1  0  0  0  0
108220  1  0  0  0  0
109 99  1  0  0  0  0
111112  1  0  0  0  0
112119  1  0  0  0  0
112113  2  0  0  0  0
113123  1  0  0  0  0
114113  1  0  0  0  0
114120  1  0  0  0  0
115114  2  0  0  0  0
116111  2  0  0  0  0
116115  1  0  0  0  0
117118  2  0  0  0  0
117111  1  0  0  0  0
118119  1  0  0  0  0
120222  1  0  0  0  0
121125  1  0  0  0  0
121120  2  0  0  0  0
122115  1  0  0  0  0
122121  1  0  0  0  0
123152  2  0  0  0  0
123148  1  0  0  0  0
124157  1  0  0  0  0
124116  1  0  0  0  0
125126  2  0  0  0  0
126127  1  0  0  0  0
126223  1  0  0  0  0
127224  1  0  0  0  0
128127  2  0  0  0  0
129125  1  0  0  0  0
129128  1  0  0  0  0
130128  1  0  0  0  0
130135  1  0  0  0  0
131130  2  0  0  0  0
132131  1  0  0  0  0
132133  2  0  0  0  0
133143  1  0  0  0  0
133134  1  0  0  0  0
134135  1  0  0  0  0
134138  2  0  0  0  0
135140  2  0  0  0  0
136131  1  0  0  0  0
137132  1  0  0  0  0
138139  1  0  0  0  0
139141  1  0  0  0  0
140139  1  0  0  0  0
141226  1  0  0  0  0
141142  1  0  0  0  0
142229  1  0  0  0  0
142228  1  0  0  0  0
143147  1  0  0  0  0
144145  1  0  0  0  0
144143  2  0  0  0  0
145146  2  0  0  0  0
146232  1  0  0  0  0
146147  1  0  0  0  0
148233  1  0  0  0  0
148149  2  0  0  0  0
149150  1  0  0  0  0
149165  1  0  0  0  0
150160  1  0  0  0  0
151234  1  0  0  0  0
151150  2  0  0  0  0
152151  1  0  0  0  0
153124  2  0  0  0  0
154155  2  0  0  0  0
154153  1  0  0  0  0
155156  1  0  0  0  0
156237  1  0  0  0  0
156157  2  0  0  0  0
157238  1  0  0  0  0
158155  1  0  0  0  0
159239  1  0  0  0  0
159158  1  0  0  0  0
160161  1  0  0  0  0
161163  1  0  0  0  0
161242  1  0  0  0  0
162243  1  0  0  0  0
162159  1  0  0  0  0
163247  1  0  0  0  0
163248  1  0  0  0  0
164154  1  0  0  0  0
167  8  1  0  0  0  0
168 10  1  0  0  0  0
173 32  1  0  0  0  0
175 32  1  0  0  0  0
176 34  1  0  0  0  0
177 35  1  0  0  0  0
179 41  1  0  0  0  0
180 42  1  0  0  0  0
182 46  1  0  0  0  0
183 47  1  0  0  0  0
184 49  1  0  0  0  0
186 51  1  0  0  0  0
188 52  1  0  0  0  0
191 53  1  0  0  0  0
194 62  1  0  0  0  0
196 71  1  0  0  0  0
197 72  1  0  0  0  0
199 86  1  0  0  0  0
201 87  1  0  0  0  0
202 87  1  0  0  0  0
205 93  1  0  0  0  0
207 97  1  0  0  0  0
209101  1  0  0  0  0
213106  1  0  0  0  0
214106  1  0  0  0  0
215107  1  0  0  0  0
216107  1  0  0  0  0
217107  1  0  0  0  0
221117  1  0  0  0  0
225141  1  0  0  0  0
227142  1  0  0  0  0
230144  1  0  0  0  0
231145  1  0  0  0  0
235152  1  0  0  0  0
236153  1  0  0  0  0
240159  1  0  0  0  0
241161  1  0  0  0  0
244162  1  0  0  0  0
245162  1  0  0  0  0
246163  1  0  0  0  0
M  END
