SCF done       -262.623435917039          0.000752417377
 OpenBabel12282109573D

155175  0  0  0  0  0  0  0  0999 V2000
   -4.1985    3.1571   -3.7865 C   0  0  0  0  0  0  0  0  0  0  0  0
   -3.6069    4.2080   -3.0111 C   0  0  0  0  0  0  0  0  0  0  0  0
   -4.0754    5.5126   -3.0525 C   0  0  0  0  0  0  0  0  0  0  0  0
   -3.4977    6.5510   -2.3288 C   0  0  0  0  0  0  0  0  0  0  0  0
   -2.3929    6.3795   -1.5084 C   0  0  0  0  0  0  0  0  0  0  0  0
   -1.8813    5.0562   -1.4250 C   0  0  0  0  0  0  0  0  0  0  0  0
   -2.4889    3.9768   -2.1646 C   0  0  0  0  0  0  0  0  0  0  0  0
   -0.8459    4.6368   -0.7010 N   0  0  0  0  0  0  0  0  0  0  0  0
   -0.6523    3.0561   -0.9225 S   0  0  0  0  0  0  0  0  0  0  0  0
   -1.8682    2.8193   -1.9472 N   0  0  0  0  0  0  0  0  0  0  0  0
   -5.4639    3.4967   -4.9358 S   0  0  0  0  0  0  0  0  0  0  0  0
   -5.5630    1.8281   -5.4139 C   0  0  0  0  0  0  0  0  0  0  0  0
   -4.6620    1.0755   -4.6976 C   0  0  0  0  0  0  0  0  0  0  0  0
   -3.8969    1.8156   -3.7920 C   0  0  0  0  0  0  0  0  0  0  0  0
   -6.4819    1.4037   -6.4458 C   0  0  0  0  0  0  0  0  0  0  0  0
   -6.6981    0.0452   -6.6807 C   0  0  0  0  0  0  0  0  0  0  0  0
   -7.5611   -0.3215   -7.6981 C   0  0  0  0  0  0  0  0  0  0  0  0
   -8.2167    0.6498   -8.4949 C   0  0  0  0  0  0  0  0  0  0  0  0
   -8.0047    2.0003   -8.2444 C   0  0  0  0  0  0  0  0  0  0  0  0
   -7.1485    2.3618   -7.2305 C   0  0  0  0  0  0  0  0  0  0  0  0
   -7.9337   -1.5776   -8.1142 N   0  0  0  0  0  0  0  0  0  0  0  0
   -8.7846   -1.4477   -9.1861 C   0  0  0  0  0  0  0  0  0  0  0  0
   -9.0009   -0.0730   -9.4510 C   0  0  0  0  0  0  0  0  0  0  0  0
   -9.3963   -2.4263   -9.9575 C   0  0  0  0  0  0  0  0  0  0  0  0
  -10.2257   -2.0170  -10.9840 C   0  0  0  0  0  0  0  0  0  0  0  0
  -10.4475   -0.6666  -11.2475 C   0  0  0  0  0  0  0  0  0  0  0  0
   -9.8405    0.3131  -10.4886 C   0  0  0  0  0  0  0  0  0  0  0  0
   -7.4334   -2.8168   -7.5836 C   0  0  0  0  0  0  0  0  0  0  0  0
   -6.1359   -3.2440   -8.2694 C   0  0  0  0  0  0  0  0  0  0  0  0
   -1.7917    7.4678   -0.7940 C   0  0  0  0  0  0  0  0  0  0  0  0
   -0.6368    7.4733   -0.0486 C   0  0  0  0  0  0  0  0  0  0  0  0
   -0.3287    8.7232    0.4971 C   0  0  0  0  0  0  0  0  0  0  0  0
   -1.2421    9.7038    0.1936 C   0  0  0  0  0  0  0  0  0  0  0  0
   -2.5131    9.0550   -0.8012 S   0  0  0  0  0  0  0  0  0  0  0  0
   -4.1008   21.0039    3.5618 C   0  0  0  0  0  0  0  0  0  0  0  0
   -4.0387   22.3648    4.0104 C   0  0  0  0  0  0  0  0  0  0  0  0
   -2.8612   23.0970    4.0013 C   0  0  0  0  0  0  0  0  0  0  0  0
   -2.7790   24.4098    4.4562 C   0  0  0  0  0  0  0  0  0  0  0  0
   -3.8633   25.1003    4.9760 C   0  0  0  0  0  0  0  0  0  0  0  0
   -5.0958   24.3930    5.0002 C   0  0  0  0  0  0  0  0  0  0  0  0
   -5.1852   23.0391    4.5111 C   0  0  0  0  0  0  0  0  0  0  0  0
   -6.2722   24.8387    5.4362 N   0  0  0  0  0  0  0  0  0  0  0  0
   -7.3750   23.6835    5.2543 S   0  0  0  0  0  0  0  0  0  0  0  0
   -6.4221   22.5575    4.6148 N   0  0  0  0  0  0  0  0  0  0  0  0
   -2.6490   20.1184    3.1803 S   0  0  0  0  0  0  0  0  0  0  0  0
   -3.5520   18.6823    2.7991 C   0  0  0  0  0  0  0  0  0  0  0  0
   -4.8985   18.9123    2.9558 C   0  0  0  0  0  0  0  0  0  0  0  0
   -5.2065   20.2056    3.3873 C   0  0  0  0  0  0  0  0  0  0  0  0
   -2.8832   17.4580    2.4212 C   0  0  0  0  0  0  0  0  0  0  0  0
   -3.6057   16.4082    1.8523 C   0  0  0  0  0  0  0  0  0  0  0  0
   -2.9411   15.2315    1.5564 C   0  0  0  0  0  0  0  0  0  0  0  0
   -1.5577   15.0792    1.8281 C   0  0  0  0  0  0  0  0  0  0  0  0
   -0.8417   16.1405    2.3709 C   0  0  0  0  0  0  0  0  0  0  0  0
   -1.5041   17.3110    2.6564 C   0  0  0  0  0  0  0  0  0  0  0  0
   -3.4258   14.0701    1.0029 N   0  0  0  0  0  0  0  0  0  0  0  0
   -2.4057   13.1505    0.9558 C   0  0  0  0  0  0  0  0  0  0  0  0
   -1.2164   13.7436    1.4501 C   0  0  0  0  0  0  0  0  0  0  0  0
   -2.4242   11.8350    0.5287 C   0  0  0  0  0  0  0  0  0  0  0  0
   -1.2475   11.0907    0.6001 C   0  0  0  0  0  0  0  0  0  0  0  0
   -0.0672   11.6882    1.0812 C   0  0  0  0  0  0  0  0  0  0  0  0
   -0.0437   12.9979    1.4999 C   0  0  0  0  0  0  0  0  0  0  0  0
   -4.7949   13.8201    0.6403 C   0  0  0  0  0  0  0  0  0  0  0  0
   -5.6037   13.2826    1.8203 C   0  0  0  0  0  0  0  0  0  0  0  0
   -3.7546   26.4412    5.4735 C   0  0  0  0  0  0  0  0  0  0  0  0
   -4.6916   27.1816    6.1541 C   0  0  0  0  0  0  0  0  0  0  0  0
   -4.2417   28.4539    6.5197 C   0  0  0  0  0  0  0  0  0  0  0  0
   -2.9561   28.7257    6.1185 C   0  0  0  0  0  0  0  0  0  0  0  0
   -2.2874   27.3613    5.2720 S   0  0  0  0  0  0  0  0  0  0  0  0
    4.7920   37.5166    4.1483 C   0  0  0  0  0  0  0  0  0  0  0  0
    5.6893   38.0187    3.1490 C   0  0  0  0  0  0  0  0  0  0  0  0
    5.8739   37.3779    1.9337 C   0  0  0  0  0  0  0  0  0  0  0  0
    6.7210   37.8610    0.9405 C   0  0  0  0  0  0  0  0  0  0  0  0
    7.4565   39.0275    1.0740 C   0  0  0  0  0  0  0  0  0  0  0  0
    7.3095   39.7161    2.3076 C   0  0  0  0  0  0  0  0  0  0  0  0
    6.4329   39.2152    3.3383 C   0  0  0  0  0  0  0  0  0  0  0  0
    7.9114   40.8451    2.6779 N   0  0  0  0  0  0  0  0  0  0  0  0
    7.4308   41.2376    4.1605 S   0  0  0  0  0  0  0  0  0  0  0  0
    6.4351   40.0015    4.4126 N   0  0  0  0  0  0  0  0  0  0  0  0
    3.8679   36.0652    3.8691 S   0  0  0  0  0  0  0  0  0  0  0  0
    3.0894   36.1886    5.4196 C   0  0  0  0  0  0  0  0  0  0  0  0
    3.5468   37.2956    6.0937 C   0  0  0  0  0  0  0  0  0  0  0  0
    4.4994   38.0360    5.3870 C   0  0  0  0  0  0  0  0  0  0  0  0
    2.0968   35.2198    5.8250 C   0  0  0  0  0  0  0  0  0  0  0  0
    1.9820   34.0117    5.1383 C   0  0  0  0  0  0  0  0  0  0  0  0
    1.0024   33.1160    5.5263 C   0  0  0  0  0  0  0  0  0  0  0  0
    0.1165   33.4160    6.5921 C   0  0  0  0  0  0  0  0  0  0  0  0
    0.2454   34.6195    7.2767 C   0  0  0  0  0  0  0  0  0  0  0  0
    1.2268   35.5039    6.8946 C   0  0  0  0  0  0  0  0  0  0  0  0
    0.6971   31.8779    5.0152 N   0  0  0  0  0  0  0  0  0  0  0  0
   -0.3943   31.3853    5.6889 C   0  0  0  0  0  0  0  0  0  0  0  0
   -0.7824   32.3093    6.6923 C   0  0  0  0  0  0  0  0  0  0  0  0
   -1.0876   30.2031    5.4997 C   0  0  0  0  0  0  0  0  0  0  0  0
   -2.1892   29.9359    6.3111 C   0  0  0  0  0  0  0  0  0  0  0  0
   -2.5635   30.8519    7.3121 C   0  0  0  0  0  0  0  0  0  0  0  0
   -1.8717   32.0241    7.5083 C   0  0  0  0  0  0  0  0  0  0  0  0
    1.3404   31.2570    3.8883 C   0  0  0  0  0  0  0  0  0  0  0  0
    0.7040   31.6872    2.5674 C   0  0  0  0  0  0  0  0  0  0  0  0
    8.3109   39.5169    0.0269 C   0  0  0  0  0  0  0  0  0  0  0  0
    9.0752   40.6557    0.0002 C   0  0  0  0  0  0  0  0  0  0  0  0
    9.7853   40.8213   -1.2024 C   0  0  0  0  0  0  0  0  0  0  0  0
    9.5607   39.8158   -2.0894 C   0  0  0  0  0  0  0  0  0  0  0  0
    8.4760   38.6385   -1.4729 S   0  0  0  0  0  0  0  0  0  0  0  0
   -4.9273    5.7321   -3.6799 H   0  0  0  0  0  0  0  0  0  0  0  0
   -3.9221    7.5407   -2.4177 H   0  0  0  0  0  0  0  0  0  0  0  0
   -4.5374    0.0157   -4.8296 H   0  0  0  0  0  0  0  0  0  0  0  0
   -3.1398    1.3961   -3.1559 H   0  0  0  0  0  0  0  0  0  0  0  0
   -6.2036   -0.6982   -6.0762 H   0  0  0  0  0  0  0  0  0  0  0  0
   -8.5002    2.7516   -8.8404 H   0  0  0  0  0  0  0  0  0  0  0  0
   -6.9668    3.4074   -7.0292 H   0  0  0  0  0  0  0  0  0  0  0  0
   -9.2323   -3.4774   -9.7721 H   0  0  0  0  0  0  0  0  0  0  0  0
  -10.7113   -2.7609  -11.5985 H   0  0  0  0  0  0  0  0  0  0  0  0
  -11.1028   -0.3888  -12.0596 H   0  0  0  0  0  0  0  0  0  0  0  0
  -10.0094    1.3596  -10.6938 H   0  0  0  0  0  0  0  0  0  0  0  0
   -8.1995   -3.5851   -7.7188 H   0  0  0  0  0  0  0  0  0  0  0  0
   -7.2670   -2.6921   -6.5097 H   0  0  0  0  0  0  0  0  0  0  0  0
   -6.3024   -3.3827   -9.3352 H   0  0  0  0  0  0  0  0  0  0  0  0
   -5.7764   -4.1782   -7.8458 H   0  0  0  0  0  0  0  0  0  0  0  0
   -5.3721   -2.4810   -8.1376 H   0  0  0  0  0  0  0  0  0  0  0  0
   -0.0410    6.5903    0.0894 H   0  0  0  0  0  0  0  0  0  0  0  0
    0.5336    8.8919    1.1167 H   0  0  0  0  0  0  0  0  0  0  0  0
   -1.9656   22.6238    3.6252 H   0  0  0  0  0  0  0  0  0  0  0  0
   -1.8232   24.9121    4.4138 H   0  0  0  0  0  0  0  0  0  0  0  0
   -5.6501   18.1615    2.7895 H   0  0  0  0  0  0  0  0  0  0  0  0
   -6.2034   20.5584    3.5755 H   0  0  0  0  0  0  0  0  0  0  0  0
   -4.6584   16.5206    1.6472 H   0  0  0  0  0  0  0  0  0  0  0  0
    0.2141   16.0416    2.5721 H   0  0  0  0  0  0  0  0  0  0  0  0
   -0.9656   18.1411    3.0895 H   0  0  0  0  0  0  0  0  0  0  0  0
   -3.3272   11.3695    0.1624 H   0  0  0  0  0  0  0  0  0  0  0  0
    0.8403   11.1062    1.1086 H   0  0  0  0  0  0  0  0  0  0  0  0
    0.8699   13.4422    1.8649 H   0  0  0  0  0  0  0  0  0  0  0  0
   -4.8081   13.0997   -0.1819 H   0  0  0  0  0  0  0  0  0  0  0  0
   -5.2331   14.7545    0.2786 H   0  0  0  0  0  0  0  0  0  0  0  0
   -5.1801   12.3439    2.1696 H   0  0  0  0  0  0  0  0  0  0  0  0
   -6.6349   13.1124    1.5224 H   0  0  0  0  0  0  0  0  0  0  0  0
   -5.5882   13.9942    2.6427 H   0  0  0  0  0  0  0  0  0  0  0  0
   -5.6710   26.8006    6.3761 H   0  0  0  0  0  0  0  0  0  0  0  0
   -4.8572   29.1618    7.0451 H   0  0  0  0  0  0  0  0  0  0  0  0
    5.3304   36.4629    1.7474 H   0  0  0  0  0  0  0  0  0  0  0  0
    6.8046   37.3029    0.0191 H   0  0  0  0  0  0  0  0  0  0  0  0
    3.2173   37.5633    7.0815 H   0  0  0  0  0  0  0  0  0  0  0  0
    4.9667   38.9296    5.7572 H   0  0  0  0  0  0  0  0  0  0  0  0
    2.6524   33.7982    4.3191 H   0  0  0  0  0  0  0  0  0  0  0  0
   -0.4221   34.8579    8.0910 H   0  0  0  0  0  0  0  0  0  0  0  0
    1.3188   36.4474    7.4085 H   0  0  0  0  0  0  0  0  0  0  0  0
   -0.8085   29.4977    4.7311 H   0  0  0  0  0  0  0  0  0  0  0  0
   -3.4039   30.6188    7.9465 H   0  0  0  0  0  0  0  0  0  0  0  0
   -2.1697   32.7157    8.2818 H   0  0  0  0  0  0  0  0  0  0  0  0
    1.2684   30.1725    4.0046 H   0  0  0  0  0  0  0  0  0  0  0  0
    2.3990   31.5306    3.9010 H   0  0  0  0  0  0  0  0  0  0  0  0
   -0.3480   31.4122    2.5499 H   0  0  0  0  0  0  0  0  0  0  0  0
    1.2066   31.2039    1.7340 H   0  0  0  0  0  0  0  0  0  0  0  0
    0.7812   32.7652    2.4461 H   0  0  0  0  0  0  0  0  0  0  0  0
    9.1152   41.3402    0.8267 H   0  0  0  0  0  0  0  0  0  0  0  0
   10.4332   41.6560   -1.4026 H   0  0  0  0  0  0  0  0  0  0  0  0
    9.9648   39.6900   -3.0744 H   0  0  0  0  0  0  0  0  0  0  0  0
  1  2  1  0  0  0  0
  2  7  1  0  0  0  0
  3  2  2  0  0  0  0
  3  4  1  0  0  0  0
  4  5  2  0  0  0  0
  5  6  1  0  0  0  0
  5 30  1  0  0  0  0
  6  8  2  0  0  0  0
  7 10  2  0  0  0  0
  7  6  1  0  0  0  0
  9  8  1  0  0  0  0
 10  9  1  0  0  0  0
 11  1  1  0  0  0  0
 12 11  1  0  0  0  0
 12 13  2  0  0  0  0
 13 14  1  0  0  0  0
 14  1  2  0  0  0  0
 14106  1  0  0  0  0
 15 12  1  0  0  0  0
 16 15  1  0  0  0  0
 16107  1  0  0  0  0
 17 16  2  0  0  0  0
 18 19  2  0  0  0  0
 18 17  1  0  0  0  0
 19 20  1  0  0  0  0
 20109  1  0  0  0  0
 20 15  2  0  0  0  0
 21 17  1  0  0  0  0
 21 28  1  0  0  0  0
 22 21  1  0  0  0  0
 23 22  1  0  0  0  0
 23 18  1  0  0  0  0
 24110  1  0  0  0  0
 24 22  2  0  0  0  0
 25 24  1  0  0  0  0
 26 25  2  0  0  0  0
 26 27  1  0  0  0  0
 27 23  2  0  0  0  0
 28115  1  0  0  0  0
 29118  1  0  0  0  0
 29117  1  0  0  0  0
 29 28  1  0  0  0  0
 30 31  2  0  0  0  0
 31119  1  0  0  0  0
 31 32  1  0  0  0  0
 32120  1  0  0  0  0
 33 32  2  0  0  0  0
 33 59  1  0  0  0  0
 34 30  1  0  0  0  0
 34 33  1  0  0  0  0
 35 36  1  0  0  0  0
 36 41  1  0  0  0  0
 37 36  2  0  0  0  0
 37 38  1  0  0  0  0
 38 39  2  0  0  0  0
 39 40  1  0  0  0  0
 39 64  1  0  0  0  0
 40 42  2  0  0  0  0
 41 44  2  0  0  0  0
 41 40  1  0  0  0  0
 43 42  1  0  0  0  0
 44 43  1  0  0  0  0
 45 35  1  0  0  0  0
 46 47  2  0  0  0  0
 46 45  1  0  0  0  0
 47 48  1  0  0  0  0
 48 35  2  0  0  0  0
 48124  1  0  0  0  0
 49 54  1  0  0  0  0
 49 46  1  0  0  0  0
 50 49  2  0  0  0  0
 51 52  2  0  0  0  0
 51 50  1  0  0  0  0
 52 53  1  0  0  0  0
 53126  1  0  0  0  0
 53 54  2  0  0  0  0
 54127  1  0  0  0  0
 55 51  1  0  0  0  0
 56 55  1  0  0  0  0
 56 57  2  0  0  0  0
 57 61  1  0  0  0  0
 57 52  1  0  0  0  0
 58 59  2  0  0  0  0
 58 56  1  0  0  0  0
 59 60  1  0  0  0  0
 60129  1  0  0  0  0
 60 61  2  0  0  0  0
 61130  1  0  0  0  0
 62 55  1  0  0  0  0
 62 63  1  0  0  0  0
 63133  1  0  0  0  0
 63135  1  0  0  0  0
 64 65  2  0  0  0  0
 65136  1  0  0  0  0
 65 66  1  0  0  0  0
 66137  1  0  0  0  0
 67 93  1  0  0  0  0
 67 66  2  0  0  0  0
 68 64  1  0  0  0  0
 68 67  1  0  0  0  0
 69 82  2  0  0  0  0
 70 75  1  0  0  0  0
 70 69  1  0  0  0  0
 71 70  2  0  0  0  0
 72 73  2  0  0  0  0
 72 71  1  0  0  0  0
 73 74  1  0  0  0  0
 74 76  2  0  0  0  0
 74 75  1  0  0  0  0
 75 78  2  0  0  0  0
 76 77  1  0  0  0  0
 77 78  1  0  0  0  0
 79 69  1  0  0  0  0
 79 80  1  0  0  0  0
 80 83  1  0  0  0  0
 80 81  2  0  0  0  0
 81140  1  0  0  0  0
 82141  1  0  0  0  0
 82 81  1  0  0  0  0
 83 88  2  0  0  0  0
 84 85  2  0  0  0  0
 84 83  1  0  0  0  0
 85 86  1  0  0  0  0
 86 91  1  0  0  0  0
 86 87  2  0  0  0  0
 87143  1  0  0  0  0
 88 87  1  0  0  0  0
 88144  1  0  0  0  0
 89 85  1  0  0  0  0
 89 90  1  0  0  0  0
 90 91  1  0  0  0  0
 91 95  2  0  0  0  0
 92 90  2  0  0  0  0
 92 93  1  0  0  0  0
 93 94  2  0  0  0  0
 94 95  1  0  0  0  0
 94146  1  0  0  0  0
 95147  1  0  0  0  0
 96149  1  0  0  0  0
 96148  1  0  0  0  0
 96 89  1  0  0  0  0
 97 96  1  0  0  0  0
 98 73  1  0  0  0  0
 99 98  2  0  0  0  0
 99153  1  0  0  0  0
100 99  1  0  0  0  0
101102  1  0  0  0  0
101100  2  0  0  0  0
102 98  1  0  0  0  0
103  3  1  0  0  0  0
104  4  1  0  0  0  0
105 13  1  0  0  0  0
108 19  1  0  0  0  0
111 25  1  0  0  0  0
112 26  1  0  0  0  0
113 27  1  0  0  0  0
114 28  1  0  0  0  0
116 29  1  0  0  0  0
121 37  1  0  0  0  0
122 38  1  0  0  0  0
123 47  1  0  0  0  0
125 50  1  0  0  0  0
128 58  1  0  0  0  0
131 62  1  0  0  0  0
132 62  1  0  0  0  0
134 63  1  0  0  0  0
138 71  1  0  0  0  0
139 72  1  0  0  0  0
142 84  1  0  0  0  0
145 92  1  0  0  0  0
150 97  1  0  0  0  0
151 97  1  0  0  0  0
152 97  1  0  0  0  0
154100  1  0  0  0  0
155101  1  0  0  0  0
M  END
