SCF done       -374.260277732224          0.000838305680
 OpenBabel12282109573D

191211  0  0  0  0  0  0  0  0999 V2000
   -2.8366   -4.0571   -6.1809 C   0  0  0  0  0  0  0  0  0  0  0  0
   -2.4372   -3.7550   -4.8637 C   0  0  0  0  0  0  0  0  0  0  0  0
   -1.1566   -3.1996   -4.6193 C   0  0  0  0  0  0  0  0  0  0  0  0
   -0.2300   -2.9322   -5.6244 C   0  0  0  0  0  0  0  0  0  0  0  0
   -0.6193   -3.2597   -6.9377 C   0  0  0  0  0  0  0  0  0  0  0  0
   -1.9035   -3.7993   -7.1841 C   0  0  0  0  0  0  0  0  0  0  0  0
   -3.1930   -3.8749   -3.6737 C   0  0  0  0  0  0  0  0  0  0  0  0
   -2.5363   -3.4364   -2.5595 C   0  0  0  0  0  0  0  0  0  0  0  0
   -0.9315   -2.8453   -2.9256 S   0  0  0  0  0  0  0  0  0  0  0  0
    0.1497   -3.1732   -8.1353 C   0  0  0  0  0  0  0  0  0  0  0  0
   -0.5156   -3.6119   -9.2228 C   0  0  0  0  0  0  0  0  0  0  0  0
   -2.1188   -4.1536   -8.8768 S   0  0  0  0  0  0  0  0  0  0  0  0
   -4.1432   -4.5922   -6.4969 C   0  0  0  0  0  0  0  0  0  0  0  0
    1.0503   -2.3340   -5.3109 C   0  0  0  0  0  0  0  0  0  0  0  0
   -3.0203   -3.4451   -1.2255 C   0  0  0  0  0  0  0  0  0  0  0  0
   -4.9222   -4.2905   -7.5802 C   0  0  0  0  0  0  0  0  0  0  0  0
   -6.1190   -5.0242   -7.6141 C   0  0  0  0  0  0  0  0  0  0  0  0
   -6.2881   -5.8944   -6.5701 C   0  0  0  0  0  0  0  0  0  0  0  0
   -4.9197   -5.8046   -5.5078 S   0  0  0  0  0  0  0  0  0  0  0  0
    1.8265   -2.5440   -4.2052 C   0  0  0  0  0  0  0  0  0  0  0  0
    2.9719   -1.7305   -4.1760 C   0  0  0  0  0  0  0  0  0  0  0  0
    3.1019   -0.8849   -5.2455 C   0  0  0  0  0  0  0  0  0  0  0  0
    1.7644   -1.1053   -6.3285 S   0  0  0  0  0  0  0  0  0  0  0  0
   -4.5229   -4.2338   -0.8224 S   0  0  0  0  0  0  0  0  0  0  0  0
   -4.3966   -3.8412    0.8730 C   0  0  0  0  0  0  0  0  0  0  0  0
   -3.2298   -3.1172    1.1034 C   0  0  0  0  0  0  0  0  0  0  0  0
   -2.4670   -2.9110   -0.0840 C   0  0  0  0  0  0  0  0  0  0  0  0
   -2.5646   -2.5348    2.2174 C   0  0  0  0  0  0  0  0  0  0  0  0
   -1.3849   -1.9223    1.8972 C   0  0  0  0  0  0  0  0  0  0  0  0
   -1.0030   -2.0221    0.1947 S   0  0  0  0  0  0  0  0  0  0  0  0
   -3.0334   -2.5832    3.4607 F   0  0  0  0  0  0  0  0  0  0  0  0
   -0.4565   -1.2245    2.7920 C   0  0  0  0  0  0  0  0  0  0  0  0
   -7.5923   -6.9939   -6.1952 S   0  0  0  0  0  0  0  0  0  0  0  0
   -9.0385   -6.0659   -6.8473 C   0  0  0  0  0  0  0  0  0  0  0  0
    4.3030    0.3127   -5.6616 S   0  0  0  0  0  0  0  0  0  0  0  0
    5.7366   -0.1939   -4.6299 C   0  0  0  0  0  0  0  0  0  0  0  0
    0.5835   -0.7574    2.0869 O   0  0  0  0  0  0  0  0  0  0  0  0
   -0.5971   -1.0966    3.9808 O   0  0  0  0  0  0  0  0  0  0  0  0
    1.5750   -0.0252    2.8052 C   0  0  0  0  0  0  0  0  0  0  0  0
    1.1665    1.4296    2.9871 C   0  0  0  0  0  0  0  0  0  0  0  0
    3.8525   -1.8037   -3.1591 F   0  0  0  0  0  0  0  0  0  0  0  0
   -7.0125   -4.8625   -8.6070 F   0  0  0  0  0  0  0  0  0  0  0  0
    6.9570    0.5861   -5.0754 C   0  0  0  0  0  0  0  0  0  0  0  0
  -10.3142   -6.6941   -6.3262 C   0  0  0  0  0  0  0  0  0  0  0  0
   -7.6619   -4.8780    4.8344 C   0  0  0  0  0  0  0  0  0  0  0  0
   -8.7424   -5.7846    4.8434 C   0  0  0  0  0  0  0  0  0  0  0  0
   -9.0667   -6.5149    3.6719 C   0  0  0  0  0  0  0  0  0  0  0  0
   -8.3838   -6.3791    2.4664 C   0  0  0  0  0  0  0  0  0  0  0  0
   -7.3068   -5.4640    2.4579 C   0  0  0  0  0  0  0  0  0  0  0  0
   -6.9782   -4.7392    3.6319 C   0  0  0  0  0  0  0  0  0  0  0  0
   -9.6364   -6.0595    5.9033 C   0  0  0  0  0  0  0  0  0  0  0  0
  -10.6019   -6.9730    5.5837 C   0  0  0  0  0  0  0  0  0  0  0  0
  -10.4571   -7.5362    3.9330 S   0  0  0  0  0  0  0  0  0  0  0  0
   -6.4071   -5.1834    1.4098 C   0  0  0  0  0  0  0  0  0  0  0  0
   -5.4228   -4.2884    1.7455 C   0  0  0  0  0  0  0  0  0  0  0  0
   -5.5778   -3.7355    3.3967 S   0  0  0  0  0  0  0  0  0  0  0  0
   -7.2874   -4.1378    6.0201 C   0  0  0  0  0  0  0  0  0  0  0  0
   -8.7710   -7.1416    1.3005 C   0  0  0  0  0  0  0  0  0  0  0  0
  -11.6154   -7.4933    6.4281 C   0  0  0  0  0  0  0  0  0  0  0  0
   -7.2200   -4.5825    7.3114 C   0  0  0  0  0  0  0  0  0  0  0  0
   -6.8399   -3.5742    8.2130 C   0  0  0  0  0  0  0  0  0  0  0  0
   -6.6064   -2.3519    7.6387 C   0  0  0  0  0  0  0  0  0  0  0  0
   -6.8553   -2.4491    5.9257 S   0  0  0  0  0  0  0  0  0  0  0  0
   -9.2725   -8.4146    1.2665 C   0  0  0  0  0  0  0  0  0  0  0  0
   -9.6158   -8.8346   -0.0283 C   0  0  0  0  0  0  0  0  0  0  0  0
   -9.3860   -7.9095   -1.0121 C   0  0  0  0  0  0  0  0  0  0  0  0
   -8.7216   -6.4681   -0.3115 S   0  0  0  0  0  0  0  0  0  0  0  0
  -11.7111   -7.0599    8.1151 S   0  0  0  0  0  0  0  0  0  0  0  0
  -13.0845   -8.0885    8.4109 C   0  0  0  0  0  0  0  0  0  0  0  0
  -13.4500   -8.7423    7.2360 C   0  0  0  0  0  0  0  0  0  0  0  0
  -12.6152   -8.3948    6.1345 C   0  0  0  0  0  0  0  0  0  0  0  0
  -14.4053   -9.7154    6.8338 C   0  0  0  0  0  0  0  0  0  0  0  0
  -14.3166  -10.0672    5.5166 C   0  0  0  0  0  0  0  0  0  0  0  0
  -13.0388   -9.2269    4.6725 S   0  0  0  0  0  0  0  0  0  0  0  0
  -15.2969  -10.2525    7.6647 F   0  0  0  0  0  0  0  0  0  0  0  0
  -15.1300  -11.0359    4.7732 C   0  0  0  0  0  0  0  0  0  0  0  0
   -6.1583   -0.8132    8.3295 S   0  0  0  0  0  0  0  0  0  0  0  0
   -5.2583   -1.3283    9.8474 C   0  0  0  0  0  0  0  0  0  0  0  0
   -9.6539   -7.9683   -2.7366 S   0  0  0  0  0  0  0  0  0  0  0  0
   -9.4475   -9.7625   -3.0772 C   0  0  0  0  0  0  0  0  0  0  0  0
  -14.7147  -11.0859    3.5020 O   0  0  0  0  0  0  0  0  0  0  0  0
  -16.0336  -11.6888    5.2261 O   0  0  0  0  0  0  0  0  0  0  0  0
  -15.4041  -11.9869    2.6358 C   0  0  0  0  0  0  0  0  0  0  0  0
  -14.9172  -11.7465    1.2197 C   0  0  0  0  0  0  0  0  0  0  0  0
  -10.1303  -10.0583   -0.2517 F   0  0  0  0  0  0  0  0  0  0  0  0
   -6.7288   -3.8204    9.5323 F   0  0  0  0  0  0  0  0  0  0  0  0
   -9.3611   -9.9821   -4.5732 C   0  0  0  0  0  0  0  0  0  0  0  0
   -4.4833   -0.1401   10.3806 C   0  0  0  0  0  0  0  0  0  0  0  0
  -13.8202   -7.7717   13.5723 C   0  0  0  0  0  0  0  0  0  0  0  0
  -14.9436   -8.1724   14.3273 C   0  0  0  0  0  0  0  0  0  0  0  0
  -16.0694   -8.7313   13.6756 C   0  0  0  0  0  0  0  0  0  0  0  0
  -16.1353   -8.9619   12.3030 C   0  0  0  0  0  0  0  0  0  0  0  0
  -15.0037   -8.5754   11.5513 C   0  0  0  0  0  0  0  0  0  0  0  0
  -13.8804   -8.0061   12.2027 C   0  0  0  0  0  0  0  0  0  0  0  0
  -15.1044   -8.1472   15.7337 C   0  0  0  0  0  0  0  0  0  0  0  0
  -16.3073   -8.6385   16.1528 C   0  0  0  0  0  0  0  0  0  0  0  0
  -17.3099   -9.1649   14.8210 S   0  0  0  0  0  0  0  0  0  0  0  0
  -14.8322   -8.6337   10.1492 C   0  0  0  0  0  0  0  0  0  0  0  0
  -13.6196   -8.1637    9.7246 C   0  0  0  0  0  0  0  0  0  0  0  0
  -12.6354   -7.5909   11.0615 S   0  0  0  0  0  0  0  0  0  0  0  0
  -12.6831   -7.1361   14.1991 C   0  0  0  0  0  0  0  0  0  0  0  0
  -17.2857   -9.5907   11.6978 C   0  0  0  0  0  0  0  0  0  0  0  0
  -16.8066   -8.7562   17.4782 C   0  0  0  0  0  0  0  0  0  0  0  0
  -12.6855   -6.2083   15.2038 C   0  0  0  0  0  0  0  0  0  0  0  0
  -11.3940   -5.7793   15.5534 C   0  0  0  0  0  0  0  0  0  0  0  0
  -10.3827   -6.3744   14.8463 C   0  0  0  0  0  0  0  0  0  0  0  0
  -11.0481   -7.4935   13.6991 S   0  0  0  0  0  0  0  0  0  0  0  0
  -17.3457  -10.5044   10.6783 C   0  0  0  0  0  0  0  0  0  0  0  0
  -18.6522  -10.9508   10.4261 C   0  0  0  0  0  0  0  0  0  0  0  0
  -19.6152  -10.3925   11.2300 C   0  0  0  0  0  0  0  0  0  0  0  0
  -18.8850   -9.2637   12.3225 S   0  0  0  0  0  0  0  0  0  0  0  0
  -15.8701   -8.2866   18.8771 S   0  0  0  0  0  0  0  0  0  0  0  0
  -17.1151   -8.7208   19.9711 C   0  0  0  0  0  0  0  0  0  0  0  0
  -18.2128   -9.2052   19.3074 C   0  0  0  0  0  0  0  0  0  0  0  0
  -18.0328   -9.2233   17.8912 C   0  0  0  0  0  0  0  0  0  0  0  0
  -19.5033   -9.6995   19.6580 C   0  0  0  0  0  0  0  0  0  0  0  0
  -20.2565  -10.0651   18.5814 C   0  0  0  0  0  0  0  0  0  0  0  0
  -19.4271   -9.8300   17.0535 S   0  0  0  0  0  0  0  0  0  0  0  0
  -19.9075   -9.7819   20.9221 F   0  0  0  0  0  0  0  0  0  0  0  0
  -21.6169  -10.6144   18.5596 C   0  0  0  0  0  0  0  0  0  0  0  0
   -8.6487   -6.1811   14.8888 S   0  0  0  0  0  0  0  0  0  0  0  0
   -8.3811   -5.4409   16.5493 C   0  0  0  0  0  0  0  0  0  0  0  0
  -21.3237  -10.7242   11.2024 S   0  0  0  0  0  0  0  0  0  0  0  0
  -21.8460   -9.8456   12.7259 C   0  0  0  0  0  0  0  0  0  0  0  0
  -22.0050  -10.8026   17.2896 O   0  0  0  0  0  0  0  0  0  0  0  0
  -22.2885  -10.8522   19.5288 O   0  0  0  0  0  0  0  0  0  0  0  0
  -23.2967  -11.3743   17.0852 C   0  0  0  0  0  0  0  0  0  0  0  0
  -23.2449  -12.8937   17.1511 C   0  0  0  0  0  0  0  0  0  0  0  0
  -18.9317  -11.8723    9.4954 F   0  0  0  0  0  0  0  0  0  0  0  0
  -11.2059   -4.8454   16.5070 F   0  0  0  0  0  0  0  0  0  0  0  0
  -23.3189  -10.0972   12.9781 C   0  0  0  0  0  0  0  0  0  0  0  0
   -6.8995   -5.4774   16.8661 C   0  0  0  0  0  0  0  0  0  0  0  0
   -4.1963   -4.2556   -3.6279 H   0  0  0  0  0  0  0  0  0  0  0  0
    1.1599   -2.8116   -8.1715 H   0  0  0  0  0  0  0  0  0  0  0  0
   -0.1669   -3.6543  -10.2360 H   0  0  0  0  0  0  0  0  0  0  0  0
   -4.6793   -3.5558   -8.3246 H   0  0  0  0  0  0  0  0  0  0  0  0
    1.6222   -3.2676   -3.4386 H   0  0  0  0  0  0  0  0  0  0  0  0
   -8.9979   -6.0976   -7.9348 H   0  0  0  0  0  0  0  0  0  0  0  0
   -8.9321   -5.0384   -6.5017 H   0  0  0  0  0  0  0  0  0  0  0  0
    5.8757   -1.2647   -4.7712 H   0  0  0  0  0  0  0  0  0  0  0  0
    5.4930    0.0132   -3.5892 H   0  0  0  0  0  0  0  0  0  0  0  0
    2.4801   -0.1099    2.2005 H   0  0  0  0  0  0  0  0  0  0  0  0
    1.7280   -0.5006    3.7798 H   0  0  0  0  0  0  0  0  0  0  0  0
    0.9756    1.8902    2.0207 H   0  0  0  0  0  0  0  0  0  0  0  0
    1.9633    1.9711    3.4889 H   0  0  0  0  0  0  0  0  0  0  0  0
    0.2652    1.4888    3.5926 H   0  0  0  0  0  0  0  0  0  0  0  0
    7.1803    0.3843   -6.1206 H   0  0  0  0  0  0  0  0  0  0  0  0
    7.8148    0.2980   -4.4720 H   0  0  0  0  0  0  0  0  0  0  0  0
    6.7909    1.6546   -4.9581 H   0  0  0  0  0  0  0  0  0  0  0  0
  -10.4169   -7.7102   -6.6994 H   0  0  0  0  0  0  0  0  0  0  0  0
  -11.1688   -6.1117   -6.6628 H   0  0  0  0  0  0  0  0  0  0  0  0
  -10.3122   -6.7195   -5.2388 H   0  0  0  0  0  0  0  0  0  0  0  0
   -9.5919   -5.5849    6.8661 H   0  0  0  0  0  0  0  0  0  0  0  0
   -6.4495   -5.6393    0.4379 H   0  0  0  0  0  0  0  0  0  0  0  0
   -7.3968   -5.5958    7.6214 H   0  0  0  0  0  0  0  0  0  0  0  0
   -9.3769   -9.0579    2.1197 H   0  0  0  0  0  0  0  0  0  0  0  0
   -4.5923   -2.1421    9.5643 H   0  0  0  0  0  0  0  0  0  0  0  0
   -5.9896   -1.6830   10.5719 H   0  0  0  0  0  0  0  0  0  0  0  0
  -10.3005  -10.2873   -2.6507 H   0  0  0  0  0  0  0  0  0  0  0  0
   -8.5315  -10.0734   -2.5763 H   0  0  0  0  0  0  0  0  0  0  0  0
  -16.4818  -11.8113    2.7289 H   0  0  0  0  0  0  0  0  0  0  0  0
  -15.1978  -13.0131    2.9609 H   0  0  0  0  0  0  0  0  0  0  0  0
  -15.1319  -10.7248    0.9182 H   0  0  0  0  0  0  0  0  0  0  0  0
  -15.4168  -12.4313    0.5410 H   0  0  0  0  0  0  0  0  0  0  0  0
  -13.8437  -11.9049    1.1620 H   0  0  0  0  0  0  0  0  0  0  0  0
  -10.2910   -9.6890   -5.0545 H   0  0  0  0  0  0  0  0  0  0  0  0
   -9.1823  -11.0359   -4.7749 H   0  0  0  0  0  0  0  0  0  0  0  0
   -8.5483   -9.3995   -5.0007 H   0  0  0  0  0  0  0  0  0  0  0  0
   -3.7700    0.2137    9.6399 H   0  0  0  0  0  0  0  0  0  0  0  0
   -3.9418   -0.4300   11.2782 H   0  0  0  0  0  0  0  0  0  0  0  0
   -5.1581    0.6761   10.6284 H   0  0  0  0  0  0  0  0  0  0  0  0
  -14.3496   -7.8093   16.4196 H   0  0  0  0  0  0  0  0  0  0  0  0
  -15.6011   -8.9684    9.4825 H   0  0  0  0  0  0  0  0  0  0  0  0
  -13.5690   -5.7890   15.6481 H   0  0  0  0  0  0  0  0  0  0  0  0
  -16.4961  -10.8984   10.1527 H   0  0  0  0  0  0  0  0  0  0  0  0
  -16.9746   -8.5973   21.0256 H   0  0  0  0  0  0  0  0  0  0  0  0
   -8.9548   -6.0299   17.2635 H   0  0  0  0  0  0  0  0  0  0  0  0
   -8.7555   -4.4187   16.5277 H   0  0  0  0  0  0  0  0  0  0  0  0
  -21.6454   -8.7846   12.5747 H   0  0  0  0  0  0  0  0  0  0  0  0
  -21.2320  -10.2177   13.5468 H   0  0  0  0  0  0  0  0  0  0  0  0
  -23.6032  -11.0336   16.0936 H   0  0  0  0  0  0  0  0  0  0  0  0
  -23.9808  -10.9827   17.8459 H   0  0  0  0  0  0  0  0  0  0  0  0
  -22.5298  -13.2768   16.4271 H   0  0  0  0  0  0  0  0  0  0  0  0
  -24.2274  -13.3013   16.9314 H   0  0  0  0  0  0  0  0  0  0  0  0
  -22.9462  -13.2134   18.1465 H   0  0  0  0  0  0  0  0  0  0  0  0
  -23.9157   -9.7493   12.1383 H   0  0  0  0  0  0  0  0  0  0  0  0
  -23.6317   -9.5624   13.8723 H   0  0  0  0  0  0  0  0  0  0  0  0
  -23.5064  -11.1593   13.1175 H   0  0  0  0  0  0  0  0  0  0  0  0
   -6.5338   -6.5017   16.8700 H   0  0  0  0  0  0  0  0  0  0  0  0
   -6.7246   -5.0390   17.8461 H   0  0  0  0  0  0  0  0  0  0  0  0
   -6.3373   -4.9129   16.1258 H   0  0  0  0  0  0  0  0  0  0  0  0
  1  2  2  0  0  0  0
  2  3  1  0  0  0  0
  2  7  1  0  0  0  0
  3  9  1  0  0  0  0
  4 14  1  0  0  0  0
  4  3  2  0  0  0  0
  5  4  1  0  0  0  0
  6  5  2  0  0  0  0
  6  1  1  0  0  0  0
  7133  1  0  0  0  0
  7  8  2  0  0  0  0
  8 15  1  0  0  0  0
  9  8  1  0  0  0  0
 10  5  1  0  0  0  0
 11 12  1  0  0  0  0
 11 10  2  0  0  0  0
 12  6  1  0  0  0  0
 13  1  1  0  0  0  0
 13 19  1  0  0  0  0
 14 20  2  0  0  0  0
 15 24  1  0  0  0  0
 15 27  2  0  0  0  0
 16 13  2  0  0  0  0
 17 16  1  0  0  0  0
 17 18  2  0  0  0  0
 18 33  1  0  0  0  0
 18 19  1  0  0  0  0
 20 21  1  0  0  0  0
 20137  1  0  0  0  0
 21 41  1  0  0  0  0
 22 21  2  0  0  0  0
 23 14  1  0  0  0  0
 23 22  1  0  0  0  0
 24 25  1  0  0  0  0
 25 26  2  0  0  0  0
 25 55  1  0  0  0  0
 26 28  1  0  0  0  0
 27 30  1  0  0  0  0
 27 26  1  0  0  0  0
 28 31  1  0  0  0  0
 29 28  2  0  0  0  0
 29 32  1  0  0  0  0
 30 29  1  0  0  0  0
 32 38  2  0  0  0  0
 34139  1  0  0  0  0
 34 44  1  0  0  0  0
 34 33  1  0  0  0  0
 35 22  1  0  0  0  0
 35 36  1  0  0  0  0
 36141  1  0  0  0  0
 37 32  1  0  0  0  0
 37 39  1  0  0  0  0
 39 40  1  0  0  0  0
 39143  1  0  0  0  0
 40145  1  0  0  0  0
 40146  1  0  0  0  0
 42 17  1  0  0  0  0
 43149  1  0  0  0  0
 43 36  1  0  0  0  0
 43148  1  0  0  0  0
 44152  1  0  0  0  0
 45 46  1  0  0  0  0
 45 57  1  0  0  0  0
 46 51  1  0  0  0  0
 47 53  1  0  0  0  0
 47 46  2  0  0  0  0
 48 47  1  0  0  0  0
 49 48  2  0  0  0  0
 49 50  1  0  0  0  0
 50 45  2  0  0  0  0
 51153  1  0  0  0  0
 52 51  2  0  0  0  0
 52 59  1  0  0  0  0
 53 52  1  0  0  0  0
 54 55  2  0  0  0  0
 54 49  1  0  0  0  0
 55 56  1  0  0  0  0
 56 50  1  0  0  0  0
 57 60  2  0  0  0  0
 58 48  1  0  0  0  0
 59 68  1  0  0  0  0
 60155  1  0  0  0  0
 60 61  1  0  0  0  0
 61 86  1  0  0  0  0
 62 61  2  0  0  0  0
 62 77  1  0  0  0  0
 63 57  1  0  0  0  0
 63 62  1  0  0  0  0
 64 58  2  0  0  0  0
 64156  1  0  0  0  0
 65 64  1  0  0  0  0
 66 67  1  0  0  0  0
 66 65  2  0  0  0  0
 67 58  1  0  0  0  0
 68 69  1  0  0  0  0
 69 99  1  0  0  0  0
 70 69  2  0  0  0  0
 71 59  2  0  0  0  0
 71 70  1  0  0  0  0
 72 70  1  0  0  0  0
 72 75  1  0  0  0  0
 73 72  2  0  0  0  0
 74 73  1  0  0  0  0
 74 71  1  0  0  0  0
 76 82  2  0  0  0  0
 76 73  1  0  0  0  0
 77 78  1  0  0  0  0
 78 88  1  0  0  0  0
 78158  1  0  0  0  0
 79 66  1  0  0  0  0
 80 79  1  0  0  0  0
 80159  1  0  0  0  0
 80160  1  0  0  0  0
 81 76  1  0  0  0  0
 83161  1  0  0  0  0
 83162  1  0  0  0  0
 83 81  1  0  0  0  0
 84 83  1  0  0  0  0
 85 65  1  0  0  0  0
 87 80  1  0  0  0  0
 88171  1  0  0  0  0
 88170  1  0  0  0  0
 89101  1  0  0  0  0
 89 90  2  0  0  0  0
 90 95  1  0  0  0  0
 91 90  1  0  0  0  0
 91 97  1  0  0  0  0
 92 91  2  0  0  0  0
 93 94  2  0  0  0  0
 93 92  1  0  0  0  0
 94 89  1  0  0  0  0
 95 96  2  0  0  0  0
 95172  1  0  0  0  0
 96103  1  0  0  0  0
 97 96  1  0  0  0  0
 98 93  1  0  0  0  0
 99 98  2  0  0  0  0
 99100  1  0  0  0  0
100 94  1  0  0  0  0
101104  2  0  0  0  0
102 92  1  0  0  0  0
102111  1  0  0  0  0
103115  2  0  0  0  0
103112  1  0  0  0  0
104105  1  0  0  0  0
104174  1  0  0  0  0
105130  1  0  0  0  0
106121  1  0  0  0  0
106105  2  0  0  0  0
107101  1  0  0  0  0
107106  1  0  0  0  0
108102  2  0  0  0  0
109108  1  0  0  0  0
109110  2  0  0  0  0
110111  1  0  0  0  0
112113  1  0  0  0  0
113176  1  0  0  0  0
114116  1  0  0  0  0
114113  2  0  0  0  0
115114  1  0  0  0  0
116119  1  0  0  0  0
117116  2  0  0  0  0
118115  1  0  0  0  0
118117  1  0  0  0  0
120117  1  0  0  0  0
120126  2  0  0  0  0
121122  1  0  0  0  0
122132  1  0  0  0  0
122177  1  0  0  0  0
123110  1  0  0  0  0
123124  1  0  0  0  0
124131  1  0  0  0  0
124180  1  0  0  0  0
125120  1  0  0  0  0
127128  1  0  0  0  0
127125  1  0  0  0  0
127182  1  0  0  0  0
128185  1  0  0  0  0
129109  1  0  0  0  0
131188  1  0  0  0  0
131187  1  0  0  0  0
132189  1  0  0  0  0
132190  1  0  0  0  0
134 10  1  0  0  0  0
135 11  1  0  0  0  0
136 16  1  0  0  0  0
138 34  1  0  0  0  0
140 36  1  0  0  0  0
142 39  1  0  0  0  0
144 40  1  0  0  0  0
147 43  1  0  0  0  0
150 44  1  0  0  0  0
151 44  1  0  0  0  0
154 54  1  0  0  0  0
157 78  1  0  0  0  0
163 84  1  0  0  0  0
164 84  1  0  0  0  0
165 84  1  0  0  0  0
166 87  1  0  0  0  0
167 87  1  0  0  0  0
168 87  1  0  0  0  0
169 88  1  0  0  0  0
173 98  1  0  0  0  0
175108  1  0  0  0  0
178122  1  0  0  0  0
179124  1  0  0  0  0
181127  1  0  0  0  0
183128  1  0  0  0  0
184128  1  0  0  0  0
186131  1  0  0  0  0
191132  1  0  0  0  0
M  END
