SCF done       -456.400672003672          0.000419854244
 OpenBabel12282109573D

254283  0  0  0  0  0  0  0  0999 V2000
   -0.4639   10.8924    5.3730 C   0  0  0  0  0  0  0  0  0  0  0  0
   -1.5670   10.9898    4.5073 C   0  0  0  0  0  0  0  0  0  0  0  0
   -1.4471   10.5954    3.1551 C   0  0  0  0  0  0  0  0  0  0  0  0
   -0.2703   10.0951    2.6005 C   0  0  0  0  0  0  0  0  0  0  0  0
    0.8411   10.0163    3.4639 C   0  0  0  0  0  0  0  0  0  0  0  0
    0.7205   10.4266    4.8150 C   0  0  0  0  0  0  0  0  0  0  0  0
   -2.8773   11.4685    4.8048 C   0  0  0  0  0  0  0  0  0  0  0  0
   -3.7115   11.4080    3.7481 C   0  0  0  0  0  0  0  0  0  0  0  0
   -2.9672   10.7830    2.3177 S   0  0  0  0  0  0  0  0  0  0  0  0
    2.1537    9.5709    3.1707 C   0  0  0  0  0  0  0  0  0  0  0  0
    3.0004    9.6099    4.2394 C   0  0  0  0  0  0  0  0  0  0  0  0
    2.2177   10.2224    5.6812 S   0  0  0  0  0  0  0  0  0  0  0  0
   -0.5700   11.2351    6.7784 C   0  0  0  0  0  0  0  0  0  0  0  0
   -0.2150    9.6832    1.2130 C   0  0  0  0  0  0  0  0  0  0  0  0
   -1.5567   10.8951    7.6594 C   0  0  0  0  0  0  0  0  0  0  0  0
   -1.3300   11.3792    8.9638 C   0  0  0  0  0  0  0  0  0  0  0  0
   -0.1808   12.0978    9.0819 C   0  0  0  0  0  0  0  0  0  0  0  0
    0.6603   12.1792    7.5688 S   0  0  0  0  0  0  0  0  0  0  0  0
   -0.8269   10.2721    0.1400 C   0  0  0  0  0  0  0  0  0  0  0  0
   -0.5956    9.6009   -1.0751 C   0  0  0  0  0  0  0  0  0  0  0  0
    0.1767    8.4879   -0.9403 C   0  0  0  0  0  0  0  0  0  0  0  0
    0.6506    8.2575    0.7080 S   0  0  0  0  0  0  0  0  0  0  0  0
    0.4032   12.7279   10.2990 C   0  0  0  0  0  0  0  0  0  0  0  0
    1.6060   11.9311   10.8088 C   0  0  0  0  0  0  0  0  0  0  0  0
    0.6820    7.5757   -2.0044 C   0  0  0  0  0  0  0  0  0  0  0  0
    2.0527    8.0397   -2.5048 C   0  0  0  0  0  0  0  0  0  0  0  0
    4.3661    9.2124    4.2759 C   0  0  0  0  0  0  0  0  0  0  0  0
    5.2449    9.3615    5.3228 C   0  0  0  0  0  0  0  0  0  0  0  0
    6.5050    8.8459    5.0286 C   0  0  0  0  0  0  0  0  0  0  0  0
    6.6302    8.2730    3.7636 C   0  0  0  0  0  0  0  0  0  0  0  0
    5.1031    8.4178    2.9213 S   0  0  0  0  0  0  0  0  0  0  0  0
    7.7876    7.6468    3.2276 C   0  0  0  0  0  0  0  0  0  0  0  0
    9.2646    7.6665    4.1647 S   0  0  0  0  0  0  0  0  0  0  0  0
   10.1254    6.7494    2.9711 C   0  0  0  0  0  0  0  0  0  0  0  0
    9.3067    6.4042    1.9184 C   0  0  0  0  0  0  0  0  0  0  0  0
    7.9911    6.9449    2.0363 C   0  0  0  0  0  0  0  0  0  0  0  0
    9.6995    5.4375    0.8838 C   0  0  0  0  0  0  0  0  0  0  0  0
    8.7280    5.3212   -0.2032 C   0  0  0  0  0  0  0  0  0  0  0  0
    7.4447    5.9541   -0.1466 C   0  0  0  0  0  0  0  0  0  0  0  0
    7.0066    6.7682    0.9837 C   0  0  0  0  0  0  0  0  0  0  0  0
    8.9224    4.6042   -1.3551 C   0  0  0  0  0  0  0  0  0  0  0  0
    7.5383    4.7186   -2.3904 S   0  0  0  0  0  0  0  0  0  0  0  0
    6.6843    5.7165   -1.2662 C   0  0  0  0  0  0  0  0  0  0  0  0
   11.5175    6.4888    3.1622 C   0  0  0  0  0  0  0  0  0  0  0  0
   12.5571    6.5968    2.2636 C   0  0  0  0  0  0  0  0  0  0  0  0
   13.8157    6.3042    2.8072 C   0  0  0  0  0  0  0  0  0  0  0  0
   12.1267    6.0526    4.7322 S   0  0  0  0  0  0  0  0  0  0  0  0
   10.7164    4.7688    0.9598 O   0  0  0  0  0  0  0  0  0  0  0  0
    5.8899    7.2808    1.0140 O   0  0  0  0  0  0  0  0  0  0  0  0
   10.1338    3.8714   -1.8058 C   0  0  0  0  0  0  0  0  0  0  0  0
   11.0821    4.8121   -2.5558 C   0  0  0  0  0  0  0  0  0  0  0  0
    5.2958    6.1520   -1.5665 C   0  0  0  0  0  0  0  0  0  0  0  0
    4.2791    5.2541   -0.8552 C   0  0  0  0  0  0  0  0  0  0  0  0
   16.3335    4.6439    8.2219 C   0  0  0  0  0  0  0  0  0  0  0  0
   16.0451    5.0056    6.8910 C   0  0  0  0  0  0  0  0  0  0  0  0
   17.0792    5.0389    5.9242 C   0  0  0  0  0  0  0  0  0  0  0  0
   18.4067    4.7349    6.2083 C   0  0  0  0  0  0  0  0  0  0  0  0
   18.7022    4.4162    7.5494 C   0  0  0  0  0  0  0  0  0  0  0  0
   17.6650    4.3756    8.5149 C   0  0  0  0  0  0  0  0  0  0  0  0
   14.7905    5.3590    6.3367 C   0  0  0  0  0  0  0  0  0  0  0  0
   14.8362    5.6179    4.9984 C   0  0  0  0  0  0  0  0  0  0  0  0
   16.4555    5.4583    4.3503 S   0  0  0  0  0  0  0  0  0  0  0  0
   19.9611    4.1081    8.1190 C   0  0  0  0  0  0  0  0  0  0  0  0
   19.9023    3.7954    9.4462 C   0  0  0  0  0  0  0  0  0  0  0  0
   18.2701    3.8931   10.0753 S   0  0  0  0  0  0  0  0  0  0  0  0
   15.2841    4.5476    9.2165 C   0  0  0  0  0  0  0  0  0  0  0  0
   19.4022    4.7042    5.1567 C   0  0  0  0  0  0  0  0  0  0  0  0
   14.0426    3.9908    9.0893 C   0  0  0  0  0  0  0  0  0  0  0  0
   13.2704    4.0774   10.2646 C   0  0  0  0  0  0  0  0  0  0  0  0
   13.9094    4.7085   11.2871 C   0  0  0  0  0  0  0  0  0  0  0  0
   15.5043    5.1964   10.8172 S   0  0  0  0  0  0  0  0  0  0  0  0
   19.5218    5.5414    4.0822 C   0  0  0  0  0  0  0  0  0  0  0  0
   20.5511    5.1696    3.1963 C   0  0  0  0  0  0  0  0  0  0  0  0
   21.2104    4.0403    3.5741 C   0  0  0  0  0  0  0  0  0  0  0  0
   20.5816    3.4247    5.0653 S   0  0  0  0  0  0  0  0  0  0  0  0
   13.4245    4.9615   12.6727 C   0  0  0  0  0  0  0  0  0  0  0  0
   14.1340    4.0555   13.6810 C   0  0  0  0  0  0  0  0  0  0  0  0
   22.3638    3.3714    2.9096 C   0  0  0  0  0  0  0  0  0  0  0  0
   23.6812    3.7469    3.5913 C   0  0  0  0  0  0  0  0  0  0  0  0
   13.7596    5.9826    4.1405 C   0  0  0  0  0  0  0  0  0  0  0  0
   20.9770    3.4082   10.2951 C   0  0  0  0  0  0  0  0  0  0  0  0
   20.8778    2.9124   11.5743 C   0  0  0  0  0  0  0  0  0  0  0  0
   22.1211    2.5920   12.1139 C   0  0  0  0  0  0  0  0  0  0  0  0
   23.2117    2.8598   11.2869 C   0  0  0  0  0  0  0  0  0  0  0  0
   22.6293    3.5378    9.7827 S   0  0  0  0  0  0  0  0  0  0  0  0
   24.5778    2.5921   11.5759 C   0  0  0  0  0  0  0  0  0  0  0  0
   24.9491    1.6101   12.9676 S   0  0  0  0  0  0  0  0  0  0  0  0
   26.6703    1.6933   12.7040 C   0  0  0  0  0  0  0  0  0  0  0  0
   26.9370    2.4868   11.5867 C   0  0  0  0  0  0  0  0  0  0  0  0
   25.7576    2.9753   10.9407 C   0  0  0  0  0  0  0  0  0  0  0  0
   28.2684    2.8158   11.1143 C   0  0  0  0  0  0  0  0  0  0  0  0
   28.3242    3.7356    9.9853 C   0  0  0  0  0  0  0  0  0  0  0  0
   27.1455    4.2254    9.3432 C   0  0  0  0  0  0  0  0  0  0  0  0
   25.8104    3.7965    9.7442 C   0  0  0  0  0  0  0  0  0  0  0  0
   29.4819    4.2189    9.4259 C   0  0  0  0  0  0  0  0  0  0  0  0
   29.1233    5.3118    8.1340 S   0  0  0  0  0  0  0  0  0  0  0  0
   27.4163    5.1021    8.3222 C   0  0  0  0  0  0  0  0  0  0  0  0
   27.5263    1.0203   13.6168 C   0  0  0  0  0  0  0  0  0  0  0  0
   27.1387    0.2180   14.6910 C   0  0  0  0  0  0  0  0  0  0  0  0
   28.1833   -0.3001   15.4545 C   0  0  0  0  0  0  0  0  0  0  0  0
   29.2734    1.1022   13.5783 S   0  0  0  0  0  0  0  0  0  0  0  0
   29.2955    2.3820   11.6335 O   0  0  0  0  0  0  0  0  0  0  0  0
   24.8140    4.1020    9.0925 O   0  0  0  0  0  0  0  0  0  0  0  0
   30.8936    3.9514    9.8063 C   0  0  0  0  0  0  0  0  0  0  0  0
   31.3091    4.7859   11.0211 C   0  0  0  0  0  0  0  0  0  0  0  0
   26.4735    5.7999    7.4113 C   0  0  0  0  0  0  0  0  0  0  0  0
   26.0904    4.8961    6.2363 C   0  0  0  0  0  0  0  0  0  0  0  0
   34.3515    0.2368   15.6906 C   0  0  0  0  0  0  0  0  0  0  0  0
   33.0017   -0.1379   15.8427 C   0  0  0  0  0  0  0  0  0  0  0  0
   32.6263   -1.0621   16.8482 C   0  0  0  0  0  0  0  0  0  0  0  0
   33.5360   -1.6652   17.7110 C   0  0  0  0  0  0  0  0  0  0  0  0
   34.8934   -1.3312   17.5238 C   0  0  0  0  0  0  0  0  0  0  0  0
   35.2638   -0.3917   16.5283 C   0  0  0  0  0  0  0  0  0  0  0  0
   31.8891    0.3110   15.0945 C   0  0  0  0  0  0  0  0  0  0  0  0
   30.6962   -0.1932   15.5254 C   0  0  0  0  0  0  0  0  0  0  0  0
   30.8961   -1.2879   16.8788 S   0  0  0  0  0  0  0  0  0  0  0  0
   36.0205   -1.8194   18.2276 C   0  0  0  0  0  0  0  0  0  0  0  0
   37.2007   -1.2581   17.8337 C   0  0  0  0  0  0  0  0  0  0  0  0
   36.9804   -0.0986   16.5389 S   0  0  0  0  0  0  0  0  0  0  0  0
   34.7396    1.2477   14.7281 C   0  0  0  0  0  0  0  0  0  0  0  0
   33.0847   -2.5545   18.7614 C   0  0  0  0  0  0  0  0  0  0  0  0
   34.1176    2.4338   14.4547 C   0  0  0  0  0  0  0  0  0  0  0  0
   34.7693    3.1875   13.4589 C   0  0  0  0  0  0  0  0  0  0  0  0
   35.8801    2.5800   12.9598 C   0  0  0  0  0  0  0  0  0  0  0  0
   36.1550    1.0538   13.7335 S   0  0  0  0  0  0  0  0  0  0  0  0
   32.0806   -3.4810   18.7052 C   0  0  0  0  0  0  0  0  0  0  0  0
   31.8450   -4.1247   19.9350 C   0  0  0  0  0  0  0  0  0  0  0  0
   32.6494   -3.6840   20.9406 C   0  0  0  0  0  0  0  0  0  0  0  0
   33.7449   -2.4698   20.3717 S   0  0  0  0  0  0  0  0  0  0  0  0
   36.8299    3.0807   11.9269 C   0  0  0  0  0  0  0  0  0  0  0  0
   38.1711    3.4708   12.5512 C   0  0  0  0  0  0  0  0  0  0  0  0
   32.7108   -4.1533   22.3531 C   0  0  0  0  0  0  0  0  0  0  0  0
   33.8664   -5.1363   22.5520 C   0  0  0  0  0  0  0  0  0  0  0  0
   29.4127    0.1025   14.9894 C   0  0  0  0  0  0  0  0  0  0  0  0
   38.5009   -1.5033   18.3570 C   0  0  0  0  0  0  0  0  0  0  0  0
   39.6537   -0.8230   18.0401 C   0  0  0  0  0  0  0  0  0  0  0  0
   40.7544   -1.2867   18.7562 C   0  0  0  0  0  0  0  0  0  0  0  0
   40.4924   -2.3501   19.6189 C   0  0  0  0  0  0  0  0  0  0  0  0
   38.7971   -2.7680   19.5071 S   0  0  0  0  0  0  0  0  0  0  0  0
   41.4187   -2.9732   20.4995 C   0  0  0  0  0  0  0  0  0  0  0  0
   42.9741   -2.2217   20.7287 S   0  0  0  0  0  0  0  0  0  0  0  0
   43.5057   -3.4204   21.8762 C   0  0  0  0  0  0  0  0  0  0  0  0
   42.5218   -4.3950   22.0284 C   0  0  0  0  0  0  0  0  0  0  0  0
   41.3427   -4.1383   21.2591 C   0  0  0  0  0  0  0  0  0  0  0  0
   42.6624   -5.5848   22.8524 C   0  0  0  0  0  0  0  0  0  0  0  0
   41.6011   -6.5743   22.6967 C   0  0  0  0  0  0  0  0  0  0  0  0
   40.4251   -6.3145   21.9270 C   0  0  0  0  0  0  0  0  0  0  0  0
   40.1992   -5.0335   21.2669 C   0  0  0  0  0  0  0  0  0  0  0  0
   41.6014   -7.8219   23.2700 C   0  0  0  0  0  0  0  0  0  0  0  0
   40.1755   -8.6973   22.8292 S   0  0  0  0  0  0  0  0  0  0  0  0
   39.5563   -7.3766   21.8987 C   0  0  0  0  0  0  0  0  0  0  0  0
   44.8008   -3.2709   22.4533 C   0  0  0  0  0  0  0  0  0  0  0  0
   45.7370   -2.2885   22.1484 C   0  0  0  0  0  0  0  0  0  0  0  0
   46.9281   -2.3609   22.8864 C   0  0  0  0  0  0  0  0  0  0  0  0
   46.9061   -3.3941   23.7694 C   0  0  0  0  0  0  0  0  0  0  0  0
   45.4568   -4.3006   23.7071 S   0  0  0  0  0  0  0  0  0  0  0  0
   43.6093   -5.7708   23.6113 O   0  0  0  0  0  0  0  0  0  0  0  0
   39.1154   -4.7492   20.7623 O   0  0  0  0  0  0  0  0  0  0  0  0
   42.6425   -8.4685   24.1105 C   0  0  0  0  0  0  0  0  0  0  0  0
   43.7740   -9.0269   23.2424 C   0  0  0  0  0  0  0  0  0  0  0  0
   38.2303   -7.4852   21.2386 C   0  0  0  0  0  0  0  0  0  0  0  0
   37.1327   -6.9134   22.1398 C   0  0  0  0  0  0  0  0  0  0  0  0
    7.7647    8.9303    6.1909 Cl  0  0  0  0  0  0  0  0  0  0  0  0
   12.3582    7.1279    0.6528 Cl  0  0  0  0  0  0  0  0  0  0  0  0
   22.2263    1.9344   13.6961 Cl  0  0  0  0  0  0  0  0  0  0  0  0
   25.5134   -0.1485   15.1035 Cl  0  0  0  0  0  0  0  0  0  0  0  0
   42.2945   -0.5633   18.5281 Cl  0  0  0  0  0  0  0  0  0  0  0  0
   45.5335   -1.0563   20.9712 Cl  0  0  0  0  0  0  0  0  0  0  0  0
   -3.1600   11.8544    5.7668 H   0  0  0  0  0  0  0  0  0  0  0  0
   -4.7407   11.7057    3.7010 H   0  0  0  0  0  0  0  0  0  0  0  0
    2.4827    9.2374    2.2038 H   0  0  0  0  0  0  0  0  0  0  0  0
   -2.3975   10.2801    7.3913 H   0  0  0  0  0  0  0  0  0  0  0  0
   -1.9996   11.1987    9.7863 H   0  0  0  0  0  0  0  0  0  0  0  0
   -1.3943   11.1823    0.2103 H   0  0  0  0  0  0  0  0  0  0  0  0
   -0.9931    9.9314   -2.0185 H   0  0  0  0  0  0  0  0  0  0  0  0
   -0.3639   12.7750   11.0748 H   0  0  0  0  0  0  0  0  0  0  0  0
    0.7219   13.7475   10.0686 H   0  0  0  0  0  0  0  0  0  0  0  0
    1.3080   10.9156   11.0599 H   0  0  0  0  0  0  0  0  0  0  0  0
    2.0225   12.4018   11.6958 H   0  0  0  0  0  0  0  0  0  0  0  0
    2.3771   11.8847   10.0431 H   0  0  0  0  0  0  0  0  0  0  0  0
   -0.0272    7.5658   -2.8351 H   0  0  0  0  0  0  0  0  0  0  0  0
    0.7643    6.5605   -1.6100 H   0  0  0  0  0  0  0  0  0  0  0  0
    1.9791    9.0373   -2.9315 H   0  0  0  0  0  0  0  0  0  0  0  0
    2.4275    7.3615   -3.2675 H   0  0  0  0  0  0  0  0  0  0  0  0
    2.7623    8.0691   -1.6813 H   0  0  0  0  0  0  0  0  0  0  0  0
    4.9975    9.8268    6.2598 H   0  0  0  0  0  0  0  0  0  0  0  0
   14.7295    6.3329    2.2423 H   0  0  0  0  0  0  0  0  0  0  0  0
    9.8413    3.0493   -2.4622 H   0  0  0  0  0  0  0  0  0  0  0  0
   10.6474    3.4707   -0.9309 H   0  0  0  0  0  0  0  0  0  0  0  0
   10.5843    5.2523   -3.4177 H   0  0  0  0  0  0  0  0  0  0  0  0
   11.9547    4.2627   -2.8983 H   0  0  0  0  0  0  0  0  0  0  0  0
   11.4131    5.6107   -1.8968 H   0  0  0  0  0  0  0  0  0  0  0  0
    5.1292    6.1163   -2.6449 H   0  0  0  0  0  0  0  0  0  0  0  0
    5.1637    7.1765   -1.2136 H   0  0  0  0  0  0  0  0  0  0  0  0
    4.4249    4.2131   -1.1361 H   0  0  0  0  0  0  0  0  0  0  0  0
    3.2704    5.5522   -1.1253 H   0  0  0  0  0  0  0  0  0  0  0  0
    4.3908    5.3519    0.2210 H   0  0  0  0  0  0  0  0  0  0  0  0
   13.8839    5.4398    6.9087 H   0  0  0  0  0  0  0  0  0  0  0  0
   20.8902    4.1152    7.5791 H   0  0  0  0  0  0  0  0  0  0  0  0
   13.7083    3.4952    8.1952 H   0  0  0  0  0  0  0  0  0  0  0  0
   12.2715    3.6865   10.3455 H   0  0  0  0  0  0  0  0  0  0  0  0
   18.9147    6.4180    3.9468 H   0  0  0  0  0  0  0  0  0  0  0  0
   20.7876    5.7178    2.3015 H   0  0  0  0  0  0  0  0  0  0  0  0
   12.3480    4.7812   12.7073 H   0  0  0  0  0  0  0  0  0  0  0  0
   13.6061    6.0052   12.9409 H   0  0  0  0  0  0  0  0  0  0  0  0
   13.9559    3.0098   13.4403 H   0  0  0  0  0  0  0  0  0  0  0  0
   13.7676    4.2493   14.6859 H   0  0  0  0  0  0  0  0  0  0  0  0
   15.2062    4.2370   13.6589 H   0  0  0  0  0  0  0  0  0  0  0  0
   22.3925    3.6751    1.8609 H   0  0  0  0  0  0  0  0  0  0  0  0
   22.2345    2.2876    2.9508 H   0  0  0  0  0  0  0  0  0  0  0  0
   23.8404    4.8213    3.5329 H   0  0  0  0  0  0  0  0  0  0  0  0
   24.5153    3.2445    3.1081 H   0  0  0  0  0  0  0  0  0  0  0  0
   23.6586    3.4560    4.6388 H   0  0  0  0  0  0  0  0  0  0  0  0
   19.9495    2.7694   12.0975 H   0  0  0  0  0  0  0  0  0  0  0  0
   28.0356   -0.9334   16.3106 H   0  0  0  0  0  0  0  0  0  0  0  0
   31.5455    4.1828    8.9615 H   0  0  0  0  0  0  0  0  0  0  0  0
   30.9954    2.8949   10.0622 H   0  0  0  0  0  0  0  0  0  0  0  0
   31.1742    5.8473   10.8233 H   0  0  0  0  0  0  0  0  0  0  0  0
   32.3549    4.6003   11.2504 H   0  0  0  0  0  0  0  0  0  0  0  0
   30.7114    4.5049   11.8837 H   0  0  0  0  0  0  0  0  0  0  0  0
   26.9369    6.7149    7.0370 H   0  0  0  0  0  0  0  0  0  0  0  0
   25.5670    6.0525    7.9646 H   0  0  0  0  0  0  0  0  0  0  0  0
   26.9758    4.5836    5.6867 H   0  0  0  0  0  0  0  0  0  0  0  0
   25.4290    5.4310    5.5615 H   0  0  0  0  0  0  0  0  0  0  0  0
   25.5720    4.0160    6.6063 H   0  0  0  0  0  0  0  0  0  0  0  0
   31.9576    0.9748   14.2521 H   0  0  0  0  0  0  0  0  0  0  0  0
   35.9781   -2.5644   19.0009 H   0  0  0  0  0  0  0  0  0  0  0  0
   33.2445    2.7762   14.9805 H   0  0  0  0  0  0  0  0  0  0  0  0
   34.4230    4.1505   13.1267 H   0  0  0  0  0  0  0  0  0  0  0  0
   31.5491   -3.7205   17.8021 H   0  0  0  0  0  0  0  0  0  0  0  0
   31.0961   -4.8849   20.0706 H   0  0  0  0  0  0  0  0  0  0  0  0
   36.3868    3.9474   11.4317 H   0  0  0  0  0  0  0  0  0  0  0  0
   36.9981    2.3054   11.1753 H   0  0  0  0  0  0  0  0  0  0  0  0
   38.0296    4.2542   13.2923 H   0  0  0  0  0  0  0  0  0  0  0  0
   38.8529    3.8336   11.7861 H   0  0  0  0  0  0  0  0  0  0  0  0
   38.6210    2.6101   13.0406 H   0  0  0  0  0  0  0  0  0  0  0  0
   31.7661   -4.6400   22.6052 H   0  0  0  0  0  0  0  0  0  0  0  0
   32.8470   -3.2992   23.0202 H   0  0  0  0  0  0  0  0  0  0  0  0
   33.7370   -6.0017   21.9058 H   0  0  0  0  0  0  0  0  0  0  0  0
   33.9039   -5.4748   23.5842 H   0  0  0  0  0  0  0  0  0  0  0  0
   34.8122   -4.6590   22.3068 H   0  0  0  0  0  0  0  0  0  0  0  0
   39.7037   -0.0144   17.3333 H   0  0  0  0  0  0  0  0  0  0  0  0
   47.7400   -1.6698   22.7537 H   0  0  0  0  0  0  0  0  0  0  0  0
   47.6810   -3.6789   24.4531 H   0  0  0  0  0  0  0  0  0  0  0  0
   42.1912   -9.2764   24.6897 H   0  0  0  0  0  0  0  0  0  0  0  0
   43.0591   -7.7240   24.7912 H   0  0  0  0  0  0  0  0  0  0  0  0
   43.3856   -9.7372   22.5154 H   0  0  0  0  0  0  0  0  0  0  0  0
   44.5045   -9.5309   23.8690 H   0  0  0  0  0  0  0  0  0  0  0  0
   44.2711   -8.2166   22.7160 H   0  0  0  0  0  0  0  0  0  0  0  0
   38.0170   -8.5328   21.0170 H   0  0  0  0  0  0  0  0  0  0  0  0
   38.2485   -6.9142   20.3085 H   0  0  0  0  0  0  0  0  0  0  0  0
   37.1141   -7.4290   23.0976 H   0  0  0  0  0  0  0  0  0  0  0  0
   36.1653   -7.0291   21.6604 H   0  0  0  0  0  0  0  0  0  0  0  0
   37.3132   -5.8555   22.3086 H   0  0  0  0  0  0  0  0  0  0  0  0
  1 13  1  0  0  0  0
  2  7  1  0  0  0  0
  2  1  2  0  0  0  0
  3  2  1  0  0  0  0
  4  3  2  0  0  0  0
  4  5  1  0  0  0  0
  5  6  2  0  0  0  0
  6  1  1  0  0  0  0
  6 12  1  0  0  0  0
  7169  1  0  0  0  0
  8  7  2  0  0  0  0
  9  3  1  0  0  0  0
  9  8  1  0  0  0  0
 10  5  1  0  0  0  0
 10 11  2  0  0  0  0
 11 27  1  0  0  0  0
 11 12  1  0  0  0  0
 13 18  1  0  0  0  0
 13 15  2  0  0  0  0
 14  4  1  0  0  0  0
 15 16  1  0  0  0  0
 16 17  2  0  0  0  0
 16173  1  0  0  0  0
 17 23  1  0  0  0  0
 18 17  1  0  0  0  0
 19174  1  0  0  0  0
 19 14  2  0  0  0  0
 20 21  2  0  0  0  0
 20 19  1  0  0  0  0
 21 22  1  0  0  0  0
 22 14  1  0  0  0  0
 23 24  1  0  0  0  0
 23176  1  0  0  0  0
 24178  1  0  0  0  0
 24179  1  0  0  0  0
 25182  1  0  0  0  0
 25 21  1  0  0  0  0
 26 25  1  0  0  0  0
 26185  1  0  0  0  0
 27 28  2  0  0  0  0
 28186  1  0  0  0  0
 29 28  1  0  0  0  0
 29163  1  0  0  0  0
 30 29  2  0  0  0  0
 31 30  1  0  0  0  0
 31 27  1  0  0  0  0
 32 30  1  0  0  0  0
 32 33  1  0  0  0  0
 34 44  1  0  0  0  0
 34 33  1  0  0  0  0
 35 36  1  0  0  0  0
 35 34  2  0  0  0  0
 36 32  2  0  0  0  0
 37 48  2  0  0  0  0
 37 35  1  0  0  0  0
 38 39  1  0  0  0  0
 38 37  1  0  0  0  0
 39 40  1  0  0  0  0
 40 49  2  0  0  0  0
 40 36  1  0  0  0  0
 41 38  2  0  0  0  0
 42 41  1  0  0  0  0
 42 43  1  0  0  0  0
 43 39  2  0  0  0  0
 44 47  1  0  0  0  0
 45 46  1  0  0  0  0
 45 44  2  0  0  0  0
 46 80  2  0  0  0  0
 50 41  1  0  0  0  0
 50189  1  0  0  0  0
 51192  1  0  0  0  0
 51 50  1  0  0  0  0
 52 43  1  0  0  0  0
 52194  1  0  0  0  0
 52 53  1  0  0  0  0
 53197  1  0  0  0  0
 54 59  1  0  0  0  0
 54 66  1  0  0  0  0
 55 54  2  0  0  0  0
 56 57  2  0  0  0  0
 56 55  1  0  0  0  0
 57 58  1  0  0  0  0
 58 63  1  0  0  0  0
 58 59  2  0  0  0  0
 59 65  1  0  0  0  0
 60 55  1  0  0  0  0
 60198  1  0  0  0  0
 61 60  2  0  0  0  0
 62 61  1  0  0  0  0
 62 56  1  0  0  0  0
 63 64  2  0  0  0  0
 64 65  1  0  0  0  0
 64 81  1  0  0  0  0
 66 71  1  0  0  0  0
 67 57  1  0  0  0  0
 68 66  2  0  0  0  0
 68 69  1  0  0  0  0
 69201  1  0  0  0  0
 69 70  2  0  0  0  0
 70 76  1  0  0  0  0
 71 70  1  0  0  0  0
 72 67  2  0  0  0  0
 73 74  2  0  0  0  0
 73 72  1  0  0  0  0
 74 75  1  0  0  0  0
 75 67  1  0  0  0  0
 76204  1  0  0  0  0
 76205  1  0  0  0  0
 76 77  1  0  0  0  0
 77207  1  0  0  0  0
 78210  1  0  0  0  0
 78 74  1  0  0  0  0
 78 79  1  0  0  0  0
 79213  1  0  0  0  0
 80 47  1  0  0  0  0
 80 61  1  0  0  0  0
 81 82  2  0  0  0  0
 82214  1  0  0  0  0
 82 83  1  0  0  0  0
 83165  1  0  0  0  0
 84 86  1  0  0  0  0
 84 83  2  0  0  0  0
 85 81  1  0  0  0  0
 85 84  1  0  0  0  0
 86 87  1  0  0  0  0
 88 87  1  0  0  0  0
 88 98  1  0  0  0  0
 89 88  2  0  0  0  0
 90 86  2  0  0  0  0
 90 89  1  0  0  0  0
 91 89  1  0  0  0  0
 91102  2  0  0  0  0
 92 91  1  0  0  0  0
 93 94  1  0  0  0  0
 93 92  1  0  0  0  0
 94 90  1  0  0  0  0
 95104  1  0  0  0  0
 95 92  2  0  0  0  0
 96 97  1  0  0  0  0
 96 95  1  0  0  0  0
 97 93  2  0  0  0  0
 98 99  2  0  0  0  0
 99166  1  0  0  0  0
 99100  1  0  0  0  0
100215  1  0  0  0  0
101 98  1  0  0  0  0
101134  1  0  0  0  0
103 94  2  0  0  0  0
104217  1  0  0  0  0
104105  1  0  0  0  0
105219  1  0  0  0  0
105220  1  0  0  0  0
106222  1  0  0  0  0
106 97  1  0  0  0  0
107225  1  0  0  0  0
107106  1  0  0  0  0
108109  2  0  0  0  0
108113  1  0  0  0  0
109110  1  0  0  0  0
110116  1  0  0  0  0
110111  2  0  0  0  0
111121  1  0  0  0  0
112111  1  0  0  0  0
112117  1  0  0  0  0
113119  1  0  0  0  0
113112  2  0  0  0  0
114115  2  0  0  0  0
114109  1  0  0  0  0
115116  1  0  0  0  0
117227  1  0  0  0  0
118117  2  0  0  0  0
118135  1  0  0  0  0
119118  1  0  0  0  0
120108  1  0  0  0  0
121129  1  0  0  0  0
122120  2  0  0  0  0
122228  1  0  0  0  0
123122  1  0  0  0  0
124123  2  0  0  0  0
124125  1  0  0  0  0
125120  1  0  0  0  0
126121  2  0  0  0  0
126127  1  0  0  0  0
127231  1  0  0  0  0
127128  2  0  0  0  0
128132  1  0  0  0  0
129128  1  0  0  0  0
130131  1  0  0  0  0
130124  1  0  0  0  0
131236  1  0  0  0  0
131234  1  0  0  0  0
132133  1  0  0  0  0
132237  1  0  0  0  0
132238  1  0  0  0  0
133240  1  0  0  0  0
134100  2  0  0  0  0
134115  1  0  0  0  0
135139  1  0  0  0  0
136135  2  0  0  0  0
136137  1  0  0  0  0
137138  2  0  0  0  0
138140  1  0  0  0  0
139138  1  0  0  0  0
140141  1  0  0  0  0
140144  2  0  0  0  0
141142  1  0  0  0  0
142143  2  0  0  0  0
142152  1  0  0  0  0
143145  1  0  0  0  0
144148  1  0  0  0  0
144143  1  0  0  0  0
145157  2  0  0  0  0
146145  1  0  0  0  0
146149  2  0  0  0  0
147146  1  0  0  0  0
148147  1  0  0  0  0
149159  1  0  0  0  0
150149  1  0  0  0  0
151147  2  0  0  0  0
151150  1  0  0  0  0
152156  1  0  0  0  0
153152  2  0  0  0  0
153154  1  0  0  0  0
154155  2  0  0  0  0
155244  1  0  0  0  0
156155  1  0  0  0  0
158148  2  0  0  0  0
159245  1  0  0  0  0
159246  1  0  0  0  0
160248  1  0  0  0  0
160159  1  0  0  0  0
161151  1  0  0  0  0
161162  1  0  0  0  0
162254  1  0  0  0  0
162252  1  0  0  0  0
164 45  1  0  0  0  0
167137  1  0  0  0  0
168153  1  0  0  0  0
170  8  1  0  0  0  0
171 10  1  0  0  0  0
172 15  1  0  0  0  0
175 20  1  0  0  0  0
177 23  1  0  0  0  0
180 24  1  0  0  0  0
181 25  1  0  0  0  0
183 26  1  0  0  0  0
184 26  1  0  0  0  0
187 46  1  0  0  0  0
188 50  1  0  0  0  0
190 51  1  0  0  0  0
191 51  1  0  0  0  0
193 52  1  0  0  0  0
195 53  1  0  0  0  0
196 53  1  0  0  0  0
199 63  1  0  0  0  0
200 68  1  0  0  0  0
202 72  1  0  0  0  0
203 73  1  0  0  0  0
206 77  1  0  0  0  0
208 77  1  0  0  0  0
209 78  1  0  0  0  0
211 79  1  0  0  0  0
212 79  1  0  0  0  0
216104  1  0  0  0  0
218105  1  0  0  0  0
221106  1  0  0  0  0
223107  1  0  0  0  0
224107  1  0  0  0  0
226114  1  0  0  0  0
229123  1  0  0  0  0
230126  1  0  0  0  0
232130  1  0  0  0  0
233130  1  0  0  0  0
235131  1  0  0  0  0
239133  1  0  0  0  0
241133  1  0  0  0  0
242136  1  0  0  0  0
243154  1  0  0  0  0
247160  1  0  0  0  0
249160  1  0  0  0  0
250161  1  0  0  0  0
251161  1  0  0  0  0
253162  1  0  0  0  0
M  END
