SCF done       -456.402784854632          0.000846435009
 OpenBabel12282109573D

254283  0  0  0  0  0  0  0  0999 V2000
    3.3931   10.4438   -5.6289 C   0  0  0  0  0  0  0  0  0  0  0  0
    2.0628   10.8252   -5.3783 C   0  0  0  0  0  0  0  0  0  0  0  0
    1.5684   10.8564   -4.0545 C   0  0  0  0  0  0  0  0  0  0  0  0
    2.3347   10.5194   -2.9420 C   0  0  0  0  0  0  0  0  0  0  0  0
    3.6507   10.0871   -3.1977 C   0  0  0  0  0  0  0  0  0  0  0  0
    4.1444   10.0563   -4.5255 C   0  0  0  0  0  0  0  0  0  0  0  0
    1.0637   11.2056   -6.3226 C   0  0  0  0  0  0  0  0  0  0  0  0
   -0.1077   11.5374   -5.7443 C   0  0  0  0  0  0  0  0  0  0  0  0
   -0.0882   11.4035   -4.0200 S   0  0  0  0  0  0  0  0  0  0  0  0
    4.6191    9.6350   -2.2683 C   0  0  0  0  0  0  0  0  0  0  0  0
    5.8138    9.3023   -2.8361 C   0  0  0  0  0  0  0  0  0  0  0  0
    5.8021    9.5212   -4.5747 S   0  0  0  0  0  0  0  0  0  0  0  0
    3.9452   10.4826   -6.9694 C   0  0  0  0  0  0  0  0  0  0  0  0
    1.8025   10.6347   -1.6000 C   0  0  0  0  0  0  0  0  0  0  0  0
    3.8103   11.4690   -7.9047 C   0  0  0  0  0  0  0  0  0  0  0  0
    4.4863   11.1907   -9.1095 C   0  0  0  0  0  0  0  0  0  0  0  0
    5.1350    9.9947   -9.1017 C   0  0  0  0  0  0  0  0  0  0  0  0
    4.9249    9.1825   -7.5849 S   0  0  0  0  0  0  0  0  0  0  0  0
    0.5460   10.3286   -1.1575 C   0  0  0  0  0  0  0  0  0  0  0  0
    0.3533   10.6051    0.2102 C   0  0  0  0  0  0  0  0  0  0  0  0
    1.4485   11.1407    0.8149 C   0  0  0  0  0  0  0  0  0  0  0  0
    2.7597   11.2997   -0.3049 S   0  0  0  0  0  0  0  0  0  0  0  0
    5.9069    9.3495  -10.2006 C   0  0  0  0  0  0  0  0  0  0  0  0
    5.1029    8.2237  -10.8548 C   0  0  0  0  0  0  0  0  0  0  0  0
    1.6321   11.5237    2.2429 C   0  0  0  0  0  0  0  0  0  0  0  0
    2.6217   10.5873    2.9383 C   0  0  0  0  0  0  0  0  0  0  0  0
    6.9791    8.8276   -2.1721 C   0  0  0  0  0  0  0  0  0  0  0  0
    8.1895    8.5129   -2.7430 C   0  0  0  0  0  0  0  0  0  0  0  0
    9.1230    8.0893   -1.7999 C   0  0  0  0  0  0  0  0  0  0  0  0
    8.6634    8.0550   -0.4827 C   0  0  0  0  0  0  0  0  0  0  0  0
    6.9923    8.5759   -0.4550 S   0  0  0  0  0  0  0  0  0  0  0  0
    9.4133    7.6872    0.6673 C   0  0  0  0  0  0  0  0  0  0  0  0
   11.1033    7.3081    0.4613 S   0  0  0  0  0  0  0  0  0  0  0  0
   11.3554    6.9981    2.1573 C   0  0  0  0  0  0  0  0  0  0  0  0
   10.1558    7.1677    2.8495 C   0  0  0  0  0  0  0  0  0  0  0  0
    9.0608    7.5525    2.0106 C   0  0  0  0  0  0  0  0  0  0  0  0
   10.0026    6.9717    4.2790 C   0  0  0  0  0  0  0  0  0  0  0  0
    8.6438    7.0840    4.7809 C   0  0  0  0  0  0  0  0  0  0  0  0
    7.5490    7.4512    3.9448 C   0  0  0  0  0  0  0  0  0  0  0  0
    7.7199    7.7575    2.5319 C   0  0  0  0  0  0  0  0  0  0  0  0
    8.2747    6.8496    6.0837 C   0  0  0  0  0  0  0  0  0  0  0  0
    6.5711    7.0676    6.2814 S   0  0  0  0  0  0  0  0  0  0  0  0
    6.3512    7.4876    4.6170 C   0  0  0  0  0  0  0  0  0  0  0  0
   12.6546    6.6160    2.5891 C   0  0  0  0  0  0  0  0  0  0  0  0
   13.7755    6.4031    1.7857 C   0  0  0  0  0  0  0  0  0  0  0  0
   14.9323    6.0231    2.4650 C   0  0  0  0  0  0  0  0  0  0  0  0
   13.0974    6.3341    4.2572 S   0  0  0  0  0  0  0  0  0  0  0  0
   10.9380    6.7180    5.0383 O   0  0  0  0  0  0  0  0  0  0  0  0
    6.7761    8.1548    1.8499 O   0  0  0  0  0  0  0  0  0  0  0  0
    9.1523    6.4594    7.2168 C   0  0  0  0  0  0  0  0  0  0  0  0
    8.3935    6.2040    8.5107 C   0  0  0  0  0  0  0  0  0  0  0  0
    5.0114    7.8277    4.0748 C   0  0  0  0  0  0  0  0  0  0  0  0
    3.8813    7.5584    5.0577 C   0  0  0  0  0  0  0  0  0  0  0  0
   16.5818    4.9689    8.3511 C   0  0  0  0  0  0  0  0  0  0  0  0
   16.5195    5.1235    6.9516 C   0  0  0  0  0  0  0  0  0  0  0  0
   17.6427    4.8136    6.1460 C   0  0  0  0  0  0  0  0  0  0  0  0
   18.8471    4.3468    6.6626 C   0  0  0  0  0  0  0  0  0  0  0  0
   18.9213    4.2281    8.0658 C   0  0  0  0  0  0  0  0  0  0  0  0
   17.8002    4.5511    8.8706 C   0  0  0  0  0  0  0  0  0  0  0  0
   15.4238    5.5727    6.1794 C   0  0  0  0  0  0  0  0  0  0  0  0
   15.6603    5.5772    4.8353 C   0  0  0  0  0  0  0  0  0  0  0  0
   17.2853    5.0446    4.4533 S   0  0  0  0  0  0  0  0  0  0  0  0
   20.0234    3.8099    8.8498 C   0  0  0  0  0  0  0  0  0  0  0  0
   19.7670    3.7845   10.1893 C   0  0  0  0  0  0  0  0  0  0  0  0
   18.1364    4.2985   10.5622 S   0  0  0  0  0  0  0  0  0  0  0  0
   15.4165    5.2068    9.1782 C   0  0  0  0  0  0  0  0  0  0  0  0
   19.9464    3.9869    5.7904 C   0  0  0  0  0  0  0  0  0  0  0  0
   14.1228    4.8381    8.9342 C   0  0  0  0  0  0  0  0  0  0  0  0
   13.2309    5.2307    9.9508 C   0  0  0  0  0  0  0  0  0  0  0  0
   13.8333    5.8994   10.9717 C   0  0  0  0  0  0  0  0  0  0  0  0
   15.5371    6.0526   10.6950 S   0  0  0  0  0  0  0  0  0  0  0  0
   20.3614    4.6222    4.6534 C   0  0  0  0  0  0  0  0  0  0  0  0
   21.4409    3.9799    4.0164 C   0  0  0  0  0  0  0  0  0  0  0  0
   21.8454    2.8433    4.6464 C   0  0  0  0  0  0  0  0  0  0  0  0
   20.8972    2.5524    6.0662 S   0  0  0  0  0  0  0  0  0  0  0  0
   13.2081    6.5077   12.1794 C   0  0  0  0  0  0  0  0  0  0  0  0
   13.0765    8.0248   12.0265 C   0  0  0  0  0  0  0  0  0  0  0  0
   22.9624    1.9257    4.2867 C   0  0  0  0  0  0  0  0  0  0  0  0
   24.1217    2.0451    5.2781 C   0  0  0  0  0  0  0  0  0  0  0  0
   14.7325    5.9463    3.8224 C   0  0  0  0  0  0  0  0  0  0  0  0
   20.6478    3.3848   11.2343 C   0  0  0  0  0  0  0  0  0  0  0  0
   20.4270    3.4308   12.5886 C   0  0  0  0  0  0  0  0  0  0  0  0
   21.4976    2.9146   13.3312 C   0  0  0  0  0  0  0  0  0  0  0  0
   22.5451    2.4540   12.5628 C   0  0  0  0  0  0  0  0  0  0  0  0
   22.2087    2.7101   10.8762 S   0  0  0  0  0  0  0  0  0  0  0  0
   23.7813    1.8723   12.9832 C   0  0  0  0  0  0  0  0  0  0  0  0
   25.2723    2.3816   12.2568 S   0  0  0  0  0  0  0  0  0  0  0  0
   26.2218    1.3449   13.2974 C   0  0  0  0  0  0  0  0  0  0  0  0
   25.3828    0.6616   14.1825 C   0  0  0  0  0  0  0  0  0  0  0  0
   23.9997    0.9409   13.9731 C   0  0  0  0  0  0  0  0  0  0  0  0
   25.8143   -0.2231   15.2501 C   0  0  0  0  0  0  0  0  0  0  0  0
   24.7461   -0.7212   16.1115 C   0  0  0  0  0  0  0  0  0  0  0  0
   23.3572   -0.5353   15.8171 C   0  0  0  0  0  0  0  0  0  0  0  0
   22.9169    0.1863   14.6226 C   0  0  0  0  0  0  0  0  0  0  0  0
   24.9568   -1.4169   17.2772 C   0  0  0  0  0  0  0  0  0  0  0  0
   23.4537   -1.8377   18.0213 S   0  0  0  0  0  0  0  0  0  0  0  0
   22.5303   -1.0980   16.7526 C   0  0  0  0  0  0  0  0  0  0  0  0
   27.6300    1.2899   13.1171 C   0  0  0  0  0  0  0  0  0  0  0  0
   28.3920    2.0190   12.2053 C   0  0  0  0  0  0  0  0  0  0  0  0
   29.7522    1.7110   12.1865 C   0  0  0  0  0  0  0  0  0  0  0  0
   28.6801    0.1981   13.9869 S   0  0  0  0  0  0  0  0  0  0  0  0
   26.9893   -0.5223   15.4493 O   0  0  0  0  0  0  0  0  0  0  0  0
   21.7831    0.1447   14.1779 O   0  0  0  0  0  0  0  0  0  0  0  0
   26.2394   -1.8287   17.9055 C   0  0  0  0  0  0  0  0  0  0  0  0
   26.7833   -3.1094   17.2655 C   0  0  0  0  0  0  0  0  0  0  0  0
   21.0470   -1.0635   16.8312 C   0  0  0  0  0  0  0  0  0  0  0  0
   20.5824   -0.0137   17.8444 C   0  0  0  0  0  0  0  0  0  0  0  0
   33.4315   -2.4201   14.9958 C   0  0  0  0  0  0  0  0  0  0  0  0
   32.8931   -1.3611   14.2380 C   0  0  0  0  0  0  0  0  0  0  0  0
   33.7151   -0.6208   13.3534 C   0  0  0  0  0  0  0  0  0  0  0  0
   35.0743   -0.8680   13.1899 C   0  0  0  0  0  0  0  0  0  0  0  0
   35.6245   -1.8965   13.9839 C   0  0  0  0  0  0  0  0  0  0  0  0
   34.7959   -2.6412   14.8614 C   0  0  0  0  0  0  0  0  0  0  0  0
   31.5562   -0.9038   14.2247 C   0  0  0  0  0  0  0  0  0  0  0  0
   31.3270    0.1084   13.3382 C   0  0  0  0  0  0  0  0  0  0  0  0
   32.7853    0.5769   12.4871 S   0  0  0  0  0  0  0  0  0  0  0  0
   36.9699   -2.3321   14.0424 C   0  0  0  0  0  0  0  0  0  0  0  0
   37.1730   -3.3836   14.8888 C   0  0  0  0  0  0  0  0  0  0  0  0
   35.6957   -3.8826   15.6872 S   0  0  0  0  0  0  0  0  0  0  0  0
   32.5807   -3.2376   15.8364 C   0  0  0  0  0  0  0  0  0  0  0  0
   35.8608   -0.1172   12.2331 C   0  0  0  0  0  0  0  0  0  0  0  0
   31.3365   -3.7272   15.5512 C   0  0  0  0  0  0  0  0  0  0  0  0
   30.7837   -4.4891   16.5988 C   0  0  0  0  0  0  0  0  0  0  0  0
   31.5934   -4.5773   17.6892 C   0  0  0  0  0  0  0  0  0  0  0  0
   33.0804   -3.7254   17.4309 S   0  0  0  0  0  0  0  0  0  0  0  0
   35.7765    1.2144   11.9342 C   0  0  0  0  0  0  0  0  0  0  0  0
   36.6630    1.6156   10.9163 C   0  0  0  0  0  0  0  0  0  0  0  0
   37.4132    0.5954   10.4176 C   0  0  0  0  0  0  0  0  0  0  0  0
   37.0452   -0.8945   11.2191 S   0  0  0  0  0  0  0  0  0  0  0  0
   31.3623   -5.3195   18.9601 C   0  0  0  0  0  0  0  0  0  0  0  0
   32.2261   -6.5807   19.0261 C   0  0  0  0  0  0  0  0  0  0  0  0
   38.4773    0.6438    9.3762 C   0  0  0  0  0  0  0  0  0  0  0  0
   39.8631    0.4800   10.0036 C   0  0  0  0  0  0  0  0  0  0  0  0
   30.0688    0.7219   13.0870 C   0  0  0  0  0  0  0  0  0  0  0  0
   38.3925   -4.0709   15.1407 C   0  0  0  0  0  0  0  0  0  0  0  0
   38.5688   -5.1570   15.9655 C   0  0  0  0  0  0  0  0  0  0  0  0
   39.8831   -5.6170   15.9576 C   0  0  0  0  0  0  0  0  0  0  0  0
   40.7585   -4.8982   15.1436 C   0  0  0  0  0  0  0  0  0  0  0  0
   39.8784   -3.5904   14.3829 S   0  0  0  0  0  0  0  0  0  0  0  0
   42.1310   -5.1897   14.9129 C   0  0  0  0  0  0  0  0  0  0  0  0
   42.7812   -6.6613   15.5819 S   0  0  0  0  0  0  0  0  0  0  0  0
   44.3674   -6.3975   14.9118 C   0  0  0  0  0  0  0  0  0  0  0  0
   44.3900   -5.1881   14.2195 C   0  0  0  0  0  0  0  0  0  0  0  0
   43.1264   -4.5132   14.2094 C   0  0  0  0  0  0  0  0  0  0  0  0
   45.5741   -4.6285   13.5885 C   0  0  0  0  0  0  0  0  0  0  0  0
   45.3889   -3.3298   12.9526 C   0  0  0  0  0  0  0  0  0  0  0  0
   44.1250   -2.6663   12.9356 C   0  0  0  0  0  0  0  0  0  0  0  0
   42.9311   -3.2413   13.5364 C   0  0  0  0  0  0  0  0  0  0  0  0
   46.3694   -2.6272   12.2969 C   0  0  0  0  0  0  0  0  0  0  0  0
   45.7455   -1.1376   11.6760 S   0  0  0  0  0  0  0  0  0  0  0  0
   44.1580   -1.4584   12.2804 C   0  0  0  0  0  0  0  0  0  0  0  0
   45.3647   -7.3902   15.1437 C   0  0  0  0  0  0  0  0  0  0  0  0
   45.2051   -8.5756   15.8542 C   0  0  0  0  0  0  0  0  0  0  0  0
   46.3466   -9.3898   15.9078 C   0  0  0  0  0  0  0  0  0  0  0  0
   47.3885   -8.8327   15.2361 C   0  0  0  0  0  0  0  0  0  0  0  0
   47.0063   -7.3169   14.5410 S   0  0  0  0  0  0  0  0  0  0  0  0
   46.6678   -5.1881   13.5931 O   0  0  0  0  0  0  0  0  0  0  0  0
   41.8425   -2.6725   13.4588 O   0  0  0  0  0  0  0  0  0  0  0  0
   47.8063   -2.9608   12.1209 C   0  0  0  0  0  0  0  0  0  0  0  0
   48.6095   -2.5781   13.3675 C   0  0  0  0  0  0  0  0  0  0  0  0
   43.0396   -0.5035   12.0752 C   0  0  0  0  0  0  0  0  0  0  0  0
   43.4554    0.7579   11.3332 C   0  0  0  0  0  0  0  0  0  0  0  0
   10.7041    7.6528   -2.3043 Cl  0  0  0  0  0  0  0  0  0  0  0  0
   13.8021    6.5679    0.0772 Cl  0  0  0  0  0  0  0  0  0  0  0  0
   21.5232    2.9382   15.0400 Cl  0  0  0  0  0  0  0  0  0  0  0  0
   27.7542    3.2154   11.1532 Cl  0  0  0  0  0  0  0  0  0  0  0  0
   40.3156   -6.9745   16.9163 Cl  0  0  0  0  0  0  0  0  0  0  0  0
   43.7625   -9.0817   16.6345 Cl  0  0  0  0  0  0  0  0  0  0  0  0
    1.2251   11.2053   -7.3848 H   0  0  0  0  0  0  0  0  0  0  0  0
   -1.0148   11.8516   -6.2226 H   0  0  0  0  0  0  0  0  0  0  0  0
    4.4506    9.5403   -1.2112 H   0  0  0  0  0  0  0  0  0  0  0  0
    3.2771   12.3848   -7.7197 H   0  0  0  0  0  0  0  0  0  0  0  0
    4.4955   11.8609   -9.9511 H   0  0  0  0  0  0  0  0  0  0  0  0
   -0.2073    9.8835   -1.7819 H   0  0  0  0  0  0  0  0  0  0  0  0
   -0.5710   10.4148    0.7267 H   0  0  0  0  0  0  0  0  0  0  0  0
    6.8384    8.9396   -9.8034 H   0  0  0  0  0  0  0  0  0  0  0  0
    6.1555   10.1062  -10.9478 H   0  0  0  0  0  0  0  0  0  0  0  0
    4.8591    7.4606  -10.1193 H   0  0  0  0  0  0  0  0  0  0  0  0
    5.6775    7.7653  -11.6558 H   0  0  0  0  0  0  0  0  0  0  0  0
    4.1757    8.6128  -11.2696 H   0  0  0  0  0  0  0  0  0  0  0  0
    0.6634   11.4804    2.7454 H   0  0  0  0  0  0  0  0  0  0  0  0
    2.0044   12.5495    2.3059 H   0  0  0  0  0  0  0  0  0  0  0  0
    2.2674    9.5605    2.8818 H   0  0  0  0  0  0  0  0  0  0  0  0
    2.7343   10.8631    3.9841 H   0  0  0  0  0  0  0  0  0  0  0  0
    3.5936   10.6423    2.4527 H   0  0  0  0  0  0  0  0  0  0  0  0
    8.4008    8.5863   -3.7947 H   0  0  0  0  0  0  0  0  0  0  0  0
   15.8677    5.8192    1.9757 H   0  0  0  0  0  0  0  0  0  0  0  0
    9.8968    7.2491    7.3616 H   0  0  0  0  0  0  0  0  0  0  0  0
    9.7188    5.5704    6.9218 H   0  0  0  0  0  0  0  0  0  0  0  0
    7.8558    7.0971    8.8230 H   0  0  0  0  0  0  0  0  0  0  0  0
    9.0848    5.9249    9.3015 H   0  0  0  0  0  0  0  0  0  0  0  0
    7.6738    5.3983    8.3810 H   0  0  0  0  0  0  0  0  0  0  0  0
    4.8616    7.2639    3.1492 H   0  0  0  0  0  0  0  0  0  0  0  0
    5.0147    8.8828    3.7832 H   0  0  0  0  0  0  0  0  0  0  0  0
    3.8673    6.5098    5.3474 H   0  0  0  0  0  0  0  0  0  0  0  0
    2.9241    7.8035    4.6061 H   0  0  0  0  0  0  0  0  0  0  0  0
    4.0022    8.1608    5.9559 H   0  0  0  0  0  0  0  0  0  0  0  0
   14.4896    5.9046    6.5937 H   0  0  0  0  0  0  0  0  0  0  0  0
   20.9844    3.5423    8.4499 H   0  0  0  0  0  0  0  0  0  0  0  0
   13.8253    4.2670    8.0732 H   0  0  0  0  0  0  0  0  0  0  0  0
   12.1768    5.0171    9.9260 H   0  0  0  0  0  0  0  0  0  0  0  0
   19.9320    5.5431    4.3028 H   0  0  0  0  0  0  0  0  0  0  0  0
   21.9000    4.3489    3.1164 H   0  0  0  0  0  0  0  0  0  0  0  0
   13.8168    6.2881   13.0594 H   0  0  0  0  0  0  0  0  0  0  0  0
   12.2201    6.0658   12.3260 H   0  0  0  0  0  0  0  0  0  0  0  0
   14.0576    8.4745   11.8935 H   0  0  0  0  0  0  0  0  0  0  0  0
   12.6124    8.4552   12.9103 H   0  0  0  0  0  0  0  0  0  0  0  0
   12.4661    8.2657   11.1590 H   0  0  0  0  0  0  0  0  0  0  0  0
   23.3089    2.1737    3.2813 H   0  0  0  0  0  0  0  0  0  0  0  0
   22.6033    0.8933    4.2801 H   0  0  0  0  0  0  0  0  0  0  0  0
   24.5013    3.0643    5.2956 H   0  0  0  0  0  0  0  0  0  0  0  0
   24.9309    1.3771    4.9942 H   0  0  0  0  0  0  0  0  0  0  0  0
   23.7893    1.7830    6.2801 H   0  0  0  0  0  0  0  0  0  0  0  0
   19.5288    3.8225   13.0299 H   0  0  0  0  0  0  0  0  0  0  0  0
   30.4616    2.1896   11.5357 H   0  0  0  0  0  0  0  0  0  0  0  0
   26.0844   -1.9889   18.9743 H   0  0  0  0  0  0  0  0  0  0  0  0
   26.9745   -1.0340   17.7621 H   0  0  0  0  0  0  0  0  0  0  0  0
   26.0609   -3.9184   17.3516 H   0  0  0  0  0  0  0  0  0  0  0  0
   27.7043   -3.4033   17.7621 H   0  0  0  0  0  0  0  0  0  0  0  0
   26.9981   -2.9318   16.2154 H   0  0  0  0  0  0  0  0  0  0  0  0
   20.6741   -2.0453   17.1321 H   0  0  0  0  0  0  0  0  0  0  0  0
   20.6530   -0.8211   15.8438 H   0  0  0  0  0  0  0  0  0  0  0  0
   20.9816   -0.2315   18.8333 H   0  0  0  0  0  0  0  0  0  0  0  0
   19.4972   -0.0064   17.8994 H   0  0  0  0  0  0  0  0  0  0  0  0
   20.9197    0.9752   17.5422 H   0  0  0  0  0  0  0  0  0  0  0  0
   30.7807   -1.2926   14.8590 H   0  0  0  0  0  0  0  0  0  0  0  0
   37.7782   -1.8911   13.4887 H   0  0  0  0  0  0  0  0  0  0  0  0
   30.8493   -3.5831   14.6037 H   0  0  0  0  0  0  0  0  0  0  0  0
   29.8150   -4.9538   16.5427 H   0  0  0  0  0  0  0  0  0  0  0  0
   35.1269    1.8951   12.4536 H   0  0  0  0  0  0  0  0  0  0  0  0
   36.7382    2.6290   10.5633 H   0  0  0  0  0  0  0  0  0  0  0  0
   30.3065   -5.5921   19.0219 H   0  0  0  0  0  0  0  0  0  0  0  0
   31.6018   -4.6772   19.8110 H   0  0  0  0  0  0  0  0  0  0  0  0
   31.9946   -7.2410   18.1934 H   0  0  0  0  0  0  0  0  0  0  0  0
   32.0452   -7.1148   19.9555 H   0  0  0  0  0  0  0  0  0  0  0  0
   33.2798   -6.3164   18.9742 H   0  0  0  0  0  0  0  0  0  0  0  0
   38.4174    1.6018    8.8553 H   0  0  0  0  0  0  0  0  0  0  0  0
   38.3178   -0.1541    8.6467 H   0  0  0  0  0  0  0  0  0  0  0  0
   40.0425    1.2731   10.7263 H   0  0  0  0  0  0  0  0  0  0  0  0
   40.6335    0.5216    9.2376 H   0  0  0  0  0  0  0  0  0  0  0  0
   39.9299   -0.4760   10.5183 H   0  0  0  0  0  0  0  0  0  0  0  0
   37.7857   -5.6100   16.5465 H   0  0  0  0  0  0  0  0  0  0  0  0
   46.3664  -10.3328   16.4223 H   0  0  0  0  0  0  0  0  0  0  0  0
   48.3745   -9.2366   15.1182 H   0  0  0  0  0  0  0  0  0  0  0  0
   48.1998   -2.4292   11.2522 H   0  0  0  0  0  0  0  0  0  0  0  0
   47.9023   -4.0366   11.9621 H   0  0  0  0  0  0  0  0  0  0  0  0
   48.4978   -1.5179   13.5855 H   0  0  0  0  0  0  0  0  0  0  0  0
   49.6622   -2.7943   13.2088 H   0  0  0  0  0  0  0  0  0  0  0  0
   48.2627   -3.1550   14.2204 H   0  0  0  0  0  0  0  0  0  0  0  0
   42.6176   -0.2513   13.0532 H   0  0  0  0  0  0  0  0  0  0  0  0
   42.2418   -1.0204   11.5329 H   0  0  0  0  0  0  0  0  0  0  0  0
   44.2398    1.2811   11.8765 H   0  0  0  0  0  0  0  0  0  0  0  0
   42.6060    1.4263   11.2250 H   0  0  0  0  0  0  0  0  0  0  0  0
   43.8304    0.5128   10.3416 H   0  0  0  0  0  0  0  0  0  0  0  0
  1  2  2  0  0  0  0
  1  6  1  0  0  0  0
  2  3  1  0  0  0  0
  3  9  1  0  0  0  0
  3  4  2  0  0  0  0
  4 14  1  0  0  0  0
  5  4  1  0  0  0  0
  5 10  1  0  0  0  0
  6  5  2  0  0  0  0
  7  8  2  0  0  0  0
  7  2  1  0  0  0  0
  8  9  1  0  0  0  0
 10171  1  0  0  0  0
 11 10  2  0  0  0  0
 11 27  1  0  0  0  0
 12  6  1  0  0  0  0
 12 11  1  0  0  0  0
 13  1  1  0  0  0  0
 14 19  2  0  0  0  0
 14 22  1  0  0  0  0
 15172  1  0  0  0  0
 15 13  2  0  0  0  0
 16 17  2  0  0  0  0
 16 15  1  0  0  0  0
 17 18  1  0  0  0  0
 18 13  1  0  0  0  0
 19 20  1  0  0  0  0
 20175  1  0  0  0  0
 20 21  2  0  0  0  0
 21 25  1  0  0  0  0
 22 21  1  0  0  0  0
 23176  1  0  0  0  0
 23 17  1  0  0  0  0
 24 23  1  0  0  0  0
 24178  1  0  0  0  0
 25182  1  0  0  0  0
 25181  1  0  0  0  0
 25 26  1  0  0  0  0
 26184  1  0  0  0  0
 27 31  1  0  0  0  0
 28 27  2  0  0  0  0
 28 29  1  0  0  0  0
 29 30  2  0  0  0  0
 30 31  1  0  0  0  0
 30 32  1  0  0  0  0
 32 36  2  0  0  0  0
 33 32  1  0  0  0  0
 33 34  1  0  0  0  0
 34 44  1  0  0  0  0
 34 35  2  0  0  0  0
 35 37  1  0  0  0  0
 36 40  1  0  0  0  0
 36 35  1  0  0  0  0
 37 38  1  0  0  0  0
 37 48  2  0  0  0  0
 38 41  2  0  0  0  0
 39 43  2  0  0  0  0
 39 38  1  0  0  0  0
 40 39  1  0  0  0  0
 41 42  1  0  0  0  0
 41 50  1  0  0  0  0
 43 42  1  0  0  0  0
 44 47  1  0  0  0  0
 45 46  1  0  0  0  0
 45 44  2  0  0  0  0
 46 80  2  0  0  0  0
 49 40  2  0  0  0  0
 50188  1  0  0  0  0
 50 51  1  0  0  0  0
 51190  1  0  0  0  0
 51191  1  0  0  0  0
 52 43  1  0  0  0  0
 52 53  1  0  0  0  0
 53195  1  0  0  0  0
 53197  1  0  0  0  0
 54 59  1  0  0  0  0
 54 66  1  0  0  0  0
 55 54  2  0  0  0  0
 56 57  2  0  0  0  0
 56 55  1  0  0  0  0
 57 58  1  0  0  0  0
 58 63  1  0  0  0  0
 58 59  2  0  0  0  0
 59 65  1  0  0  0  0
 60198  1  0  0  0  0
 60 55  1  0  0  0  0
 61 60  2  0  0  0  0
 62 61  1  0  0  0  0
 62 56  1  0  0  0  0
 63 64  2  0  0  0  0
 64 65  1  0  0  0  0
 64 81  1  0  0  0  0
 66 71  1  0  0  0  0
 67 75  1  0  0  0  0
 67 57  1  0  0  0  0
 68 66  2  0  0  0  0
 68 69  1  0  0  0  0
 69 70  2  0  0  0  0
 70 76  1  0  0  0  0
 71 70  1  0  0  0  0
 72 67  2  0  0  0  0
 73 74  2  0  0  0  0
 73 72  1  0  0  0  0
 74 75  1  0  0  0  0
 76205  1  0  0  0  0
 76204  1  0  0  0  0
 77 76  1  0  0  0  0
 77207  1  0  0  0  0
 78 74  1  0  0  0  0
 78 79  1  0  0  0  0
 79211  1  0  0  0  0
 79213  1  0  0  0  0
 80 47  1  0  0  0  0
 80 61  1  0  0  0  0
 81 82  2  0  0  0  0
 82214  1  0  0  0  0
 82 83  1  0  0  0  0
 83165  1  0  0  0  0
 84 86  1  0  0  0  0
 84 83  2  0  0  0  0
 85 81  1  0  0  0  0
 85 84  1  0  0  0  0
 86 90  2  0  0  0  0
 87 86  1  0  0  0  0
 87 88  1  0  0  0  0
 88 89  2  0  0  0  0
 89 91  1  0  0  0  0
 90 89  1  0  0  0  0
 90 94  1  0  0  0  0
 91102  2  0  0  0  0
 91 92  1  0  0  0  0
 92 95  2  0  0  0  0
 93 92  1  0  0  0  0
 93 97  2  0  0  0  0
 94 93  1  0  0  0  0
 95104  1  0  0  0  0
 95 96  1  0  0  0  0
 97106  1  0  0  0  0
 97 96  1  0  0  0  0
 98 88  1  0  0  0  0
 98101  1  0  0  0  0
 99 98  2  0  0  0  0
100 99  1  0  0  0  0
100134  2  0  0  0  0
103 94  2  0  0  0  0
104216  1  0  0  0  0
105218  1  0  0  0  0
105219  1  0  0  0  0
105104  1  0  0  0  0
106221  1  0  0  0  0
106107  1  0  0  0  0
107224  1  0  0  0  0
107223  1  0  0  0  0
108120  1  0  0  0  0
109108  2  0  0  0  0
110109  1  0  0  0  0
111110  2  0  0  0  0
111112  1  0  0  0  0
112117  1  0  0  0  0
112113  2  0  0  0  0
113108  1  0  0  0  0
113119  1  0  0  0  0
114109  1  0  0  0  0
114226  1  0  0  0  0
115114  2  0  0  0  0
116115  1  0  0  0  0
116110  1  0  0  0  0
117118  2  0  0  0  0
118135  1  0  0  0  0
118119  1  0  0  0  0
120125  1  0  0  0  0
121111  1  0  0  0  0
122120  2  0  0  0  0
122123  1  0  0  0  0
123124  2  0  0  0  0
124130  1  0  0  0  0
125124  1  0  0  0  0
126121  2  0  0  0  0
126230  1  0  0  0  0
127126  1  0  0  0  0
128127  2  0  0  0  0
128129  1  0  0  0  0
129121  1  0  0  0  0
130232  1  0  0  0  0
130131  1  0  0  0  0
130233  1  0  0  0  0
131235  1  0  0  0  0
132133  1  0  0  0  0
132128  1  0  0  0  0
133241  1  0  0  0  0
133239  1  0  0  0  0
134115  1  0  0  0  0
134101  1  0  0  0  0
135136  2  0  0  0  0
136242  1  0  0  0  0
137136  1  0  0  0  0
137167  1  0  0  0  0
138137  2  0  0  0  0
139135  1  0  0  0  0
139138  1  0  0  0  0
140138  1  0  0  0  0
140141  1  0  0  0  0
142152  1  0  0  0  0
142141  1  0  0  0  0
143142  2  0  0  0  0
144143  1  0  0  0  0
144140  2  0  0  0  0
145157  2  0  0  0  0
145143  1  0  0  0  0
146145  1  0  0  0  0
147146  1  0  0  0  0
147148  1  0  0  0  0
148144  1  0  0  0  0
149146  2  0  0  0  0
150151  1  0  0  0  0
150149  1  0  0  0  0
151147  2  0  0  0  0
152153  2  0  0  0  0
153154  1  0  0  0  0
153168  1  0  0  0  0
154243  1  0  0  0  0
155154  2  0  0  0  0
156152  1  0  0  0  0
156155  1  0  0  0  0
158148  2  0  0  0  0
159149  1  0  0  0  0
159160  1  0  0  0  0
160247  1  0  0  0  0
160249  1  0  0  0  0
161151  1  0  0  0  0
161250  1  0  0  0  0
162252  1  0  0  0  0
162161  1  0  0  0  0
163 29  1  0  0  0  0
164 45  1  0  0  0  0
166 99  1  0  0  0  0
169  7  1  0  0  0  0
170  8  1  0  0  0  0
173 16  1  0  0  0  0
174 19  1  0  0  0  0
177 23  1  0  0  0  0
179 24  1  0  0  0  0
180 24  1  0  0  0  0
183 26  1  0  0  0  0
185 26  1  0  0  0  0
186 28  1  0  0  0  0
187 46  1  0  0  0  0
189 50  1  0  0  0  0
192 51  1  0  0  0  0
193 52  1  0  0  0  0
194 52  1  0  0  0  0
196 53  1  0  0  0  0
199 63  1  0  0  0  0
200 68  1  0  0  0  0
201 69  1  0  0  0  0
202 72  1  0  0  0  0
203 73  1  0  0  0  0
206 77  1  0  0  0  0
208 77  1  0  0  0  0
209 78  1  0  0  0  0
210 78  1  0  0  0  0
212 79  1  0  0  0  0
215100  1  0  0  0  0
217104  1  0  0  0  0
220105  1  0  0  0  0
222106  1  0  0  0  0
225107  1  0  0  0  0
227117  1  0  0  0  0
228122  1  0  0  0  0
229123  1  0  0  0  0
231127  1  0  0  0  0
234131  1  0  0  0  0
236131  1  0  0  0  0
237132  1  0  0  0  0
238132  1  0  0  0  0
240133  1  0  0  0  0
244155  1  0  0  0  0
245159  1  0  0  0  0
246159  1  0  0  0  0
248160  1  0  0  0  0
251161  1  0  0  0  0
253162  1  0  0  0  0
254162  1  0  0  0  0
M  END
