PDBT-Cl.mol
  xtb     01102217553D
 energy: -501.639886978393 gnorm: 0.000301742752 xtb: 6.4.1 (unknown)
272307  0     0  0            999 V2000
    5.4926   -4.8095   -3.4617 C   0  0  0  0  0  0  0  0  0  0  0  0
    5.1286   -5.9281   -2.7418 C   0  0  0  0  0  0  0  0  0  0  0  0
    4.7609   -5.6017   -1.4308 C   0  0  0  0  0  0  0  0  0  0  0  0
    4.0054   -6.4956   -0.1364 S   0  0  0  0  0  0  0  0  0  0  0  0
    4.8603   -4.2486   -1.1355 C   0  0  0  0  0  0  0  0  0  0  0  0
    5.4644   -3.3559   -2.4792 S   0  0  0  0  0  0  0  0  0  0  0  0
    4.2466   -3.8723    0.0832 C   0  0  0  0  0  0  0  0  0  0  0  0
    3.6751   -4.9975    0.7225 C   0  0  0  0  0  0  0  0  0  0  0  0
    2.8236   -4.8887    1.8157 C   0  0  0  0  0  0  0  0  0  0  0  0
    2.2382   -6.0860    2.3982 C   0  0  0  0  0  0  0  0  0  0  0  0
    0.5171   -6.3102    2.4620 S   0  0  0  0  0  0  0  0  0  0  0  0
    0.6869   -7.8834    3.1575 C   0  0  0  0  0  0  0  0  0  0  0  0
   -0.5086   -8.6723    3.5604 C   0  0  0  0  0  0  0  0  0  0  0  0
   -1.0249   -8.2119    4.9256 C   0  0  0  0  0  0  0  0  0  0  0  0
    2.0069   -8.1887    3.3123 C   0  0  0  0  0  0  0  0  0  0  0  0
    2.5572   -9.6739    3.9853 Cl  0  0  0  0  0  0  0  0  0  0  0  0
    2.8943   -7.1841    2.8674 C   0  0  0  0  0  0  0  0  0  0  0  0
    2.5182   -3.5927    2.2674 C   0  0  0  0  0  0  0  0  0  0  0  0
    1.6681   -3.1480    3.3156 C   0  0  0  0  0  0  0  0  0  0  0  0
    0.6624   -3.9039    4.5017 S   0  0  0  0  0  0  0  0  0  0  0  0
    1.6171   -1.7647    3.4484 C   0  0  0  0  0  0  0  0  0  0  0  0
    2.6137   -0.9414    2.2945 S   0  0  0  0  0  0  0  0  0  0  0  0
    0.7680   -1.3054    4.4554 C   0  0  0  0  0  0  0  0  0  0  0  0
    0.1611   -2.3453    5.1241 C   0  0  0  0  0  0  0  0  0  0  0  0
   -0.8100   -2.2442    6.1584 C   0  0  0  0  0  0  0  0  0  0  0  0
   -1.4189   -3.6370    6.9962 S   0  0  0  0  0  0  0  0  0  0  0  0
   -1.4074   -1.0760    6.5985 C   0  0  0  0  0  0  0  0  0  0  0  0
   -2.3536   -1.3025    7.5824 C   0  0  0  0  0  0  0  0  0  0  0  0
   -2.5024   -2.6400    7.9271 C   0  0  0  0  0  0  0  0  0  0  0  0
   -3.4374   -3.0989    8.8877 C   0  0  0  0  0  0  0  0  0  0  0  0
   -4.4656   -1.8940    9.6228 S   0  0  0  0  0  0  0  0  0  0  0  0
   -5.3142   -3.0725   10.5923 C   0  0  0  0  0  0  0  0  0  0  0  0
   -6.3528   -2.5791   11.4285 C   0  0  0  0  0  0  0  0  0  0  0  0
   -6.7212   -1.2463   11.4922 C   0  0  0  0  0  0  0  0  0  0  0  0
   -7.7685   -0.9954   12.3801 C   0  0  0  0  0  0  0  0  0  0  0  0
   -8.1981   -2.1364   12.9937 C   0  0  0  0  0  0  0  0  0  0  0  0
   -7.3393   -3.5325   12.5030 S   0  0  0  0  0  0  0  0  0  0  0  0
   -4.8023   -4.3412   10.3568 C   0  0  0  0  0  0  0  0  0  0  0  0
   -5.2747   -5.5458   11.0208 C   0  0  0  0  0  0  0  0  0  0  0  0
   -4.5882   -6.7712   10.6231 C   0  0  0  0  0  0  0  0  0  0  0  0
   -4.8939   -8.0257   11.0887 C   0  0  0  0  0  0  0  0  0  0  0  0
   -5.9095   -8.4309   12.0945 C   0  0  0  0  0  0  0  0  0  0  0  0
   -5.3766   -8.2339   13.5166 C   0  0  0  0  0  0  0  0  0  0  0  0
   -3.8616   -9.2173   10.3744 S   0  0  0  0  0  0  0  0  0  0  0  0
   -3.0187   -8.0357    9.4349 C   0  0  0  0  0  0  0  0  0  0  0  0
   -1.9085   -8.4098    8.5235 C   0  0  0  0  0  0  0  0  0  0  0  0
   -1.7491   -9.9129    8.3493 C   0  0  0  0  0  0  0  0  0  0  0  0
   -3.5213   -6.7784    9.6705 C   0  0  0  0  0  0  0  0  0  0  0  0
   -6.1744   -5.5430   11.8562 O   0  0  0  0  0  0  0  0  0  0  0  0
   -3.7426   -4.3563    9.3930 C   0  0  0  0  0  0  0  0  0  0  0  0
   -3.0526   -5.5721    9.0025 C   0  0  0  0  0  0  0  0  0  0  0  0
   -2.1473   -5.5965    8.1695 O   0  0  0  0  0  0  0  0  0  0  0  0
    3.1125   -2.4741    1.6289 C   0  0  0  0  0  0  0  0  0  0  0  0
    3.9979   -2.5820    0.5720 C   0  0  0  0  0  0  0  0  0  0  0  0
    4.5943   -1.4324   -0.0827 C   0  0  0  0  0  0  0  0  0  0  0  0
    3.6132   -0.1675   -0.7603 S   0  0  0  0  0  0  0  0  0  0  0  0
    5.9118   -1.2331   -0.3636 C   0  0  0  0  0  0  0  0  0  0  0  0
    6.1255   -0.0828   -1.1547 C   0  0  0  0  0  0  0  0  0  0  0  0
    7.6968    0.3689   -1.6804 Cl  0  0  0  0  0  0  0  0  0  0  0  0
    4.9889    0.5959   -1.4829 C   0  0  0  0  0  0  0  0  0  0  0  0
    4.8115    1.7378   -2.4195 C   0  0  0  0  0  0  0  0  0  0  0  0
    4.2056    1.2612   -3.7420 C   0  0  0  0  0  0  0  0  0  0  0  0
   -6.3927    4.2334   -3.3643 C   0  0  0  0  0  0  0  0  0  0  0  0
   -5.3401    5.0089   -3.7904 C   0  0  0  0  0  0  0  0  0  0  0  0
   -5.0359    4.7783   -5.1340 C   0  0  0  0  0  0  0  0  0  0  0  0
   -3.6853    5.2550   -6.1167 S   0  0  0  0  0  0  0  0  0  0  0  0
   -5.8535    3.8437   -5.7583 C   0  0  0  0  0  0  0  0  0  0  0  0
   -7.0733    3.2740   -4.6690 S   0  0  0  0  0  0  0  0  0  0  0  0
   -5.3659    3.4056   -7.0185 C   0  0  0  0  0  0  0  0  0  0  0  0
   -4.1276    4.0386   -7.2990 C   0  0  0  0  0  0  0  0  0  0  0  0
   -3.2914    3.6221   -8.3213 C   0  0  0  0  0  0  0  0  0  0  0  0
   -1.9794    4.2102   -8.5495 C   0  0  0  0  0  0  0  0  0  0  0  0
   -1.5329    4.8416  -10.1069 S   0  0  0  0  0  0  0  0  0  0  0  0
    0.0740    5.1964   -9.5716 C   0  0  0  0  0  0  0  0  0  0  0  0
    1.0696    5.8199  -10.4856 C   0  0  0  0  0  0  0  0  0  0  0  0
    0.7486    7.2944  -10.7369 C   0  0  0  0  0  0  0  0  0  0  0  0
    0.2144    4.8548   -8.2593 C   0  0  0  0  0  0  0  0  0  0  0  0
    1.6840    5.0449   -7.3853 Cl  0  0  0  0  0  0  0  0  0  0  0  0
   -0.9439    4.3013   -7.6694 C   0  0  0  0  0  0  0  0  0  0  0  0
   -3.7004    2.4937   -9.0460 C   0  0  0  0  0  0  0  0  0  0  0  0
   -2.9079    1.6786   -9.8877 C   0  0  0  0  0  0  0  0  0  0  0  0
   -1.2223    1.6536  -10.2363 S   0  0  0  0  0  0  0  0  0  0  0  0
   -3.5292    0.5111  -10.3079 C   0  0  0  0  0  0  0  0  0  0  0  0
   -5.1917    0.4434   -9.7835 S   0  0  0  0  0  0  0  0  0  0  0  0
   -2.6565   -0.4267  -10.8752 C   0  0  0  0  0  0  0  0  0  0  0  0
   -1.3519    0.0199  -10.8584 C   0  0  0  0  0  0  0  0  0  0  0  0
   -0.1389   -0.7105  -11.0021 C   0  0  0  0  0  0  0  0  0  0  0  0
    1.3418    0.0746  -10.5397 S   0  0  0  0  0  0  0  0  0  0  0  0
    0.0517   -2.0603  -11.2354 C   0  0  0  0  0  0  0  0  0  0  0  0
    1.3414   -2.4730  -10.9245 C   0  0  0  0  0  0  0  0  0  0  0  0
    2.1661   -1.4546  -10.4651 C   0  0  0  0  0  0  0  0  0  0  0  0
    3.3724   -1.6375   -9.7437 C   0  0  0  0  0  0  0  0  0  0  0  0
    3.7900   -3.2668   -9.2590 S   0  0  0  0  0  0  0  0  0  0  0  0
    4.9762   -2.6991   -8.1047 C   0  0  0  0  0  0  0  0  0  0  0  0
    5.4165   -3.6130   -7.1123 C   0  0  0  0  0  0  0  0  0  0  0  0
    5.1829   -4.9797   -7.1117 C   0  0  0  0  0  0  0  0  0  0  0  0
    5.3154   -5.5711   -5.8614 C   0  0  0  0  0  0  0  0  0  0  0  0
    5.6218   -4.6547   -4.8709 C   0  0  0  0  0  0  0  0  0  0  0  0
    5.9246   -3.0779   -5.5371 S   0  0  0  0  0  0  0  0  0  0  0  0
    5.1303   -1.3238   -8.2095 C   0  0  0  0  0  0  0  0  0  0  0  0
    6.1204   -0.5624   -7.4622 C   0  0  0  0  0  0  0  0  0  0  0  0
    6.1638    0.8592   -7.7920 C   0  0  0  0  0  0  0  0  0  0  0  0
    7.0724    1.7539   -7.2837 C   0  0  0  0  0  0  0  0  0  0  0  0
    8.2440    1.5104   -6.4033 C   0  0  0  0  0  0  0  0  0  0  0  0
    7.8358    1.4823   -4.9298 C   0  0  0  0  0  0  0  0  0  0  0  0
    6.7020    3.3637   -7.8010 S   0  0  0  0  0  0  0  0  0  0  0  0
    5.3379    2.8393   -8.7253 C   0  0  0  0  0  0  0  0  0  0  0  0
    4.5292    3.8251   -9.4879 C   0  0  0  0  0  0  0  0  0  0  0  0
    5.0093    3.9234  -10.9384 C   0  0  0  0  0  0  0  0  0  0  0  0
    5.1928    1.4758   -8.6466 C   0  0  0  0  0  0  0  0  0  0  0  0
    6.8477   -1.0682   -6.6125 O   0  0  0  0  0  0  0  0  0  0  0  0
    4.2205   -0.7221   -9.1301 C   0  0  0  0  0  0  0  0  0  0  0  0
    4.1789    0.7110   -9.3628 C   0  0  0  0  0  0  0  0  0  0  0  0
    3.3742    1.2395  -10.1276 O   0  0  0  0  0  0  0  0  0  0  0  0
   -4.9674    1.9007   -8.8241 C   0  0  0  0  0  0  0  0  0  0  0  0
   -5.8404    2.3689   -7.8476 C   0  0  0  0  0  0  0  0  0  0  0  0
   -7.1537    1.8046   -7.6148 C   0  0  0  0  0  0  0  0  0  0  0  0
   -7.4557    0.0927   -7.6540 S   0  0  0  0  0  0  0  0  0  0  0  0
   -8.2980    2.4929   -7.3260 C   0  0  0  0  0  0  0  0  0  0  0  0
   -9.4080    1.6430   -7.1397 C   0  0  0  0  0  0  0  0  0  0  0  0
  -10.9764    2.2449   -6.7675 Cl  0  0  0  0  0  0  0  0  0  0  0  0
   -9.1271    0.3137   -7.2681 C   0  0  0  0  0  0  0  0  0  0  0  0
  -10.0533   -0.8478   -7.1752 C   0  0  0  0  0  0  0  0  0  0  0  0
  -10.5074   -1.2995   -8.5654 C   0  0  0  0  0  0  0  0  0  0  0  0
   11.5001    1.7634    0.4118 C   0  0  0  0  0  0  0  0  0  0  0  0
   11.0538    0.8021    1.2608 C   0  0  0  0  0  0  0  0  0  0  0  0
    9.6695    0.9316    1.4830 C   0  0  0  0  0  0  0  0  0  0  0  0
    8.5366    0.0699    2.4752 S   0  0  0  0  0  0  0  0  0  0  0  0
    9.0807    1.9754    0.7905 C   0  0  0  0  0  0  0  0  0  0  0  0
   10.2582    2.8292   -0.1401 S   0  0  0  0  0  0  0  0  0  0  0  0
    7.6906    2.1240    1.0435 C   0  0  0  0  0  0  0  0  0  0  0  0
    7.2540    1.1619    1.9878 C   0  0  0  0  0  0  0  0  0  0  0  0
    5.9724    1.1501    2.5351 C   0  0  0  0  0  0  0  0  0  0  0  0
    5.6086    0.1642    3.5367 C   0  0  0  0  0  0  0  0  0  0  0  0
    6.0584   -1.5095    3.3451 S   0  0  0  0  0  0  0  0  0  0  0  0
    5.3893   -1.9383    4.8810 C   0  0  0  0  0  0  0  0  0  0  0  0
    5.5300   -3.3118    5.4434 C   0  0  0  0  0  0  0  0  0  0  0  0
    4.2738   -4.1628    5.2619 C   0  0  0  0  0  0  0  0  0  0  0  0
    4.8225   -0.8414    5.4621 C   0  0  0  0  0  0  0  0  0  0  0  0
    4.0280   -0.8953    6.9867 Cl  0  0  0  0  0  0  0  0  0  0  0  0
    4.9550    0.3514    4.7192 C   0  0  0  0  0  0  0  0  0  0  0  0
    5.0756    2.1324    2.0749 C   0  0  0  0  0  0  0  0  0  0  0  0
    3.7142    2.3849    2.4035 C   0  0  0  0  0  0  0  0  0  0  0  0
    2.5992    1.8324    3.6049 S   0  0  0  0  0  0  0  0  0  0  0  0
    3.1037    3.3256    1.5831 C   0  0  0  0  0  0  0  0  0  0  0  0
    4.1961    4.0297    0.4366 S   0  0  0  0  0  0  0  0  0  0  0  0
    1.7475    3.5404    1.8420 C   0  0  0  0  0  0  0  0  0  0  0  0
    1.3138    2.7963    2.9117 C   0  0  0  0  0  0  0  0  0  0  0  0
   -0.0186    2.7107    3.4074 C   0  0  0  0  0  0  0  0  0  0  0  0
   -1.3371    3.1206    2.3609 S   0  0  0  0  0  0  0  0  0  0  0  0
   -0.4829    2.2862    4.6321 C   0  0  0  0  0  0  0  0  0  0  0  0
   -1.8766    2.2841    4.7350 C   0  0  0  0  0  0  0  0  0  0  0  0
   -2.5158    2.6930    3.5843 C   0  0  0  0  0  0  0  0  0  0  0  0
   -3.8861    2.8075    3.1994 C   0  0  0  0  0  0  0  0  0  0  0  0
   -4.1255    3.5058    1.6250 S   0  0  0  0  0  0  0  0  0  0  0  0
   -5.8449    3.2707    1.6733 C   0  0  0  0  0  0  0  0  0  0  0  0
   -6.5170    3.5272    0.4403 C   0  0  0  0  0  0  0  0  0  0  0  0
   -7.6791    3.0269   -0.1065 C   0  0  0  0  0  0  0  0  0  0  0  0
   -7.8033    3.2735   -1.4768 C   0  0  0  0  0  0  0  0  0  0  0  0
   -6.7527    3.9871   -2.0087 C   0  0  0  0  0  0  0  0  0  0  0  0
   -5.6093    4.4057   -0.7685 S   0  0  0  0  0  0  0  0  0  0  0  0
   -6.2213    2.7302    2.8953 C   0  0  0  0  0  0  0  0  0  0  0  0
   -7.6193    2.5359    3.2946 C   0  0  0  0  0  0  0  0  0  0  0  0
   -7.7883    1.9177    4.6086 C   0  0  0  0  0  0  0  0  0  0  0  0
   -9.0008    1.6267    5.1819 C   0  0  0  0  0  0  0  0  0  0  0  0
  -10.3695    1.8355    4.6424 C   0  0  0  0  0  0  0  0  0  0  0  0
  -10.7952    0.6460    3.7766 C   0  0  0  0  0  0  0  0  0  0  0  0
   -8.7869    0.8500    6.7141 S   0  0  0  0  0  0  0  0  0  0  0  0
   -7.0635    0.9253    6.5951 C   0  0  0  0  0  0  0  0  0  0  0  0
   -6.2223    0.3939    7.6986 C   0  0  0  0  0  0  0  0  0  0  0  0
   -5.7509    1.5206    8.6218 C   0  0  0  0  0  0  0  0  0  0  0  0
   -6.6785    1.5346    5.4259 C   0  0  0  0  0  0  0  0  0  0  0  0
   -8.5638    2.8723    2.5960 O   0  0  0  0  0  0  0  0  0  0  0  0
   -5.1095    2.4434    3.7557 C   0  0  0  0  0  0  0  0  0  0  0  0
   -5.2861    1.7811    5.0524 C   0  0  0  0  0  0  0  0  0  0  0  0
   -4.3589    1.4537    5.7797 O   0  0  0  0  0  0  0  0  0  0  0  0
    5.4885    3.0134    1.0408 C   0  0  0  0  0  0  0  0  0  0  0  0
    6.7797    3.0563    0.5309 C   0  0  0  0  0  0  0  0  0  0  0  0
    7.1321    4.0502   -0.4720 C   0  0  0  0  0  0  0  0  0  0  0  0
    7.8314    3.6204   -2.0030 S   0  0  0  0  0  0  0  0  0  0  0  0
    6.9140    5.3950   -0.4019 C   0  0  0  0  0  0  0  0  0  0  0  0
    7.3173    6.0719   -1.5730 C   0  0  0  0  0  0  0  0  0  0  0  0
    7.1724    7.7774   -1.7532 Cl  0  0  0  0  0  0  0  0  0  0  0  0
    7.8322    5.2614   -2.5418 C   0  0  0  0  0  0  0  0  0  0  0  0
    8.2792    5.6208   -3.9160 C   0  0  0  0  0  0  0  0  0  0  0  0
    7.0891    5.6927   -4.8763 C   0  0  0  0  0  0  0  0  0  0  0  0
    5.0823   -6.9183   -3.1541 H   0  0  0  0  0  0  0  0  0  0  0  0
   -0.2350   -9.7283    3.6078 H   0  0  0  0  0  0  0  0  0  0  0  0
   -1.2956   -8.5497    2.8138 H   0  0  0  0  0  0  0  0  0  0  0  0
   -1.2981   -7.1596    4.8950 H   0  0  0  0  0  0  0  0  0  0  0  0
   -0.2537   -8.3423    5.6807 H   0  0  0  0  0  0  0  0  0  0  0  0
   -1.8977   -8.7955    5.2069 H   0  0  0  0  0  0  0  0  0  0  0  0
    3.9641   -7.2686    2.9190 H   0  0  0  0  0  0  0  0  0  0  0  0
    0.6065   -0.2679    4.6752 H   0  0  0  0  0  0  0  0  0  0  0  0
   -1.1826   -0.1033    6.2041 H   0  0  0  0  0  0  0  0  0  0  0  0
   -2.9328   -0.5184    8.0383 H   0  0  0  0  0  0  0  0  0  0  0  0
   -6.2375   -0.4833   10.9084 H   0  0  0  0  0  0  0  0  0  0  0  0
   -8.1826   -0.0184   12.5554 H   0  0  0  0  0  0  0  0  0  0  0  0
   -8.9843   -2.2277   13.7175 H   0  0  0  0  0  0  0  0  0  0  0  0
   -6.1742   -9.4793   11.9426 H   0  0  0  0  0  0  0  0  0  0  0  0
   -6.7989   -7.8106   11.9678 H   0  0  0  0  0  0  0  0  0  0  0  0
   -4.4604   -8.8017   13.6655 H   0  0  0  0  0  0  0  0  0  0  0  0
   -6.1173   -8.5681   14.2377 H   0  0  0  0  0  0  0  0  0  0  0  0
   -5.1746   -7.1806   13.6911 H   0  0  0  0  0  0  0  0  0  0  0  0
   -0.9816   -7.9750    8.9123 H   0  0  0  0  0  0  0  0  0  0  0  0
   -2.0816   -7.9233    7.5593 H   0  0  0  0  0  0  0  0  0  0  0  0
   -2.6581  -10.3498    7.9411 H   0  0  0  0  0  0  0  0  0  0  0  0
   -0.9282  -10.1266    7.6703 H   0  0  0  0  0  0  0  0  0  0  0  0
   -1.5392  -10.3904    9.3045 H   0  0  0  0  0  0  0  0  0  0  0  0
    6.7017   -1.8755   -0.0208 H   0  0  0  0  0  0  0  0  0  0  0  0
    4.1579    2.4911   -1.9743 H   0  0  0  0  0  0  0  0  0  0  0  0
    5.7866    2.1882   -2.6053 H   0  0  0  0  0  0  0  0  0  0  0  0
    3.2187    0.8362   -3.5740 H   0  0  0  0  0  0  0  0  0  0  0  0
    4.1127    2.0952   -4.4332 H   0  0  0  0  0  0  0  0  0  0  0  0
    4.8356    0.4995   -4.1961 H   0  0  0  0  0  0  0  0  0  0  0  0
   -4.7867    5.6644   -3.1435 H   0  0  0  0  0  0  0  0  0  0  0  0
    1.0747    5.2819  -11.4362 H   0  0  0  0  0  0  0  0  0  0  0  0
    2.0583    5.7299  -10.0323 H   0  0  0  0  0  0  0  0  0  0  0  0
    1.4876    7.7312  -11.4036 H   0  0  0  0  0  0  0  0  0  0  0  0
   -0.2344    7.3941  -11.1914 H   0  0  0  0  0  0  0  0  0  0  0  0
    0.7549    7.8468   -9.8002 H   0  0  0  0  0  0  0  0  0  0  0  0
   -0.9881    3.9617   -6.6512 H   0  0  0  0  0  0  0  0  0  0  0  0
   -2.9523   -1.4010  -11.2160 H   0  0  0  0  0  0  0  0  0  0  0  0
   -0.7237   -2.7253  -11.5711 H   0  0  0  0  0  0  0  0  0  0  0  0
    1.6710   -3.4966  -10.9762 H   0  0  0  0  0  0  0  0  0  0  0  0
    4.8786   -5.5102   -7.9976 H   0  0  0  0  0  0  0  0  0  0  0  0
    5.1383   -6.6145   -5.6729 H   0  0  0  0  0  0  0  0  0  0  0  0
    8.9840    2.2971   -6.5653 H   0  0  0  0  0  0  0  0  0  0  0  0
    8.6837    0.5446   -6.6595 H   0  0  0  0  0  0  0  0  0  0  0  0
    7.3076    2.3933   -4.6593 H   0  0  0  0  0  0  0  0  0  0  0  0
    8.7179    1.3942   -4.3024 H   0  0  0  0  0  0  0  0  0  0  0  0
    7.1931    0.6270   -4.7445 H   0  0  0  0  0  0  0  0  0  0  0  0
    3.4868    3.5001   -9.4853 H   0  0  0  0  0  0  0  0  0  0  0  0
    4.6048    4.8027   -9.0068 H   0  0  0  0  0  0  0  0  0  0  0  0
    6.0621    4.1959  -10.9766 H   0  0  0  0  0  0  0  0  0  0  0  0
    4.8712    2.9677  -11.4366 H   0  0  0  0  0  0  0  0  0  0  0  0
    4.4328    4.6762  -11.4691 H   0  0  0  0  0  0  0  0  0  0  0  0
   -8.3599    3.5646   -7.2827 H   0  0  0  0  0  0  0  0  0  0  0  0
   -9.5494   -1.6759   -6.6728 H   0  0  0  0  0  0  0  0  0  0  0  0
  -10.9223   -0.5569   -6.5818 H   0  0  0  0  0  0  0  0  0  0  0  0
  -11.0286   -0.4913   -9.0728 H   0  0  0  0  0  0  0  0  0  0  0  0
  -11.1797   -2.1492   -8.4819 H   0  0  0  0  0  0  0  0  0  0  0  0
   -9.6485   -1.5899   -9.1660 H   0  0  0  0  0  0  0  0  0  0  0  0
   12.5016    1.9189    0.0627 H   0  0  0  0  0  0  0  0  0  0  0  0
   11.6721    0.0466    1.7082 H   0  0  0  0  0  0  0  0  0  0  0  0
    6.3759   -3.8059    4.9624 H   0  0  0  0  0  0  0  0  0  0  0  0
    5.7452   -3.2193    6.5114 H   0  0  0  0  0  0  0  0  0  0  0  0
    4.0745   -4.3235    4.2061 H   0  0  0  0  0  0  0  0  0  0  0  0
    3.4149   -3.6717    5.7117 H   0  0  0  0  0  0  0  0  0  0  0  0
    4.4066   -5.1301    5.7393 H   0  0  0  0  0  0  0  0  0  0  0  0
    4.6373    1.3081    5.0887 H   0  0  0  0  0  0  0  0  0  0  0  0
    1.1159    4.2074    1.2848 H   0  0  0  0  0  0  0  0  0  0  0  0
    0.1800    2.0121    5.4353 H   0  0  0  0  0  0  0  0  0  0  0  0
   -2.4136    1.9866    5.6152 H   0  0  0  0  0  0  0  0  0  0  0  0
   -8.3993    2.4749    0.4668 H   0  0  0  0  0  0  0  0  0  0  0  0
   -8.6223    2.9172   -2.0765 H   0  0  0  0  0  0  0  0  0  0  0  0
  -10.3726    2.7377    4.0288 H   0  0  0  0  0  0  0  0  0  0  0  0
  -11.0730    1.9561    5.4686 H   0  0  0  0  0  0  0  0  0  0  0  0
  -11.8053    0.7996    3.4074 H   0  0  0  0  0  0  0  0  0  0  0  0
  -10.1256    0.5493    2.9260 H   0  0  0  0  0  0  0  0  0  0  0  0
  -10.7684   -0.2765    4.3532 H   0  0  0  0  0  0  0  0  0  0  0  0
   -5.3466   -0.0942    7.2662 H   0  0  0  0  0  0  0  0  0  0  0  0
   -6.7943   -0.3383    8.2722 H   0  0  0  0  0  0  0  0  0  0  0  0
   -6.6012    2.0348    9.0646 H   0  0  0  0  0  0  0  0  0  0  0  0
   -5.1308    1.1133    9.4163 H   0  0  0  0  0  0  0  0  0  0  0  0
   -5.1591    2.2360    8.0575 H   0  0  0  0  0  0  0  0  0  0  0  0
    6.5028    5.8923    0.4571 H   0  0  0  0  0  0  0  0  0  0  0  0
    8.7772    6.5924   -3.8848 H   0  0  0  0  0  0  0  0  0  0  0  0
    8.9919    4.8745   -4.2707 H   0  0  0  0  0  0  0  0  0  0  0  0
    7.4292    5.9373   -5.8790 H   0  0  0  0  0  0  0  0  0  0  0  0
    6.3866    6.4547   -4.5489 H   0  0  0  0  0  0  0  0  0  0  0  0
    6.5692    4.7380   -4.9106 H   0  0  0  0  0  0  0  0  0  0  0  0
  1  2  2  0  0  0  0
  2  3  1  0  0  0  0
  3  4  1  0  0  0  0
  3  5  2  0  0  0  0
  5  6  1  0  0  0  0
  1  6  1  0  0  0  0
  5  7  1  0  0  0  0
  7  8  2  0  0  0  0
  4  8  1  0  0  0  0
  8  9  1  0  0  0  0
  9 10  1  0  0  0  0
 10 11  1  0  0  0  0
 11 12  1  0  0  0  0
 12 13  1  0  0  0  0
 13 14  1  0  0  0  0
 12 15  2  0  0  0  0
 15 16  1  0  0  0  0
 10 17  2  0  0  0  0
 15 17  1  0  0  0  0
  9 18  2  0  0  0  0
 18 19  1  0  0  0  0
 19 20  1  0  0  0  0
 19 21  2  0  0  0  0
 21 22  1  0  0  0  0
 21 23  1  0  0  0  0
 23 24  2  0  0  0  0
 20 24  1  0  0  0  0
 24 25  1  0  0  0  0
 25 26  1  0  0  0  0
 25 27  2  0  0  0  0
 27 28  1  0  0  0  0
 28 29  2  0  0  0  0
 26 29  1  0  0  0  0
 29 30  1  0  0  0  0
 30 31  1  0  0  0  0
 31 32  1  0  0  0  0
 32 33  1  0  0  0  0
 33 34  2  0  0  0  0
 34 35  1  0  0  0  0
 35 36  2  0  0  0  0
 36 37  1  0  0  0  0
 33 37  1  0  0  0  0
 32 38  2  0  0  0  0
 38 39  1  0  0  0  0
 39 40  1  0  0  0  0
 40 41  2  0  0  0  0
 41 42  1  0  0  0  0
 42 43  1  0  0  0  0
 41 44  1  0  0  0  0
 44 45  1  0  0  0  0
 45 46  1  0  0  0  0
 46 47  1  0  0  0  0
 45 48  2  0  0  0  0
 40 48  1  0  0  0  0
 39 49  2  0  0  0  0
 30 50  2  0  0  0  0
 38 50  1  0  0  0  0
 50 51  1  0  0  0  0
 48 51  1  0  0  0  0
 51 52  2  0  0  0  0
 18 53  1  0  0  0  0
 22 53  1  0  0  0  0
 53 54  2  0  0  0  0
  7 54  1  0  0  0  0
 54 55  1  0  0  0  0
 55 56  1  0  0  0  0
 55 57  2  0  0  0  0
 57 58  1  0  0  0  0
 58 59  1  0  0  0  0
 58 60  2  0  0  0  0
 56 60  1  0  0  0  0
 60 61  1  0  0  0  0
 61 62  1  0  0  0  0
 63 64  2  0  0  0  0
 64 65  1  0  0  0  0
 65 66  1  0  0  0  0
 65 67  2  0  0  0  0
 67 68  1  0  0  0  0
 63 68  1  0  0  0  0
 67 69  1  0  0  0  0
 69 70  2  0  0  0  0
 66 70  1  0  0  0  0
 70 71  1  0  0  0  0
 71 72  1  0  0  0  0
 72 73  1  0  0  0  0
 73 74  1  0  0  0  0
 74 75  1  0  0  0  0
 75 76  1  0  0  0  0
 74 77  2  0  0  0  0
 77 78  1  0  0  0  0
 72 79  2  0  0  0  0
 77 79  1  0  0  0  0
 71 80  2  0  0  0  0
 80 81  1  0  0  0  0
 81 82  1  0  0  0  0
 81 83  2  0  0  0  0
 83 84  1  0  0  0  0
 83 85  1  0  0  0  0
 85 86  2  0  0  0  0
 82 86  1  0  0  0  0
 86 87  1  0  0  0  0
 87 88  1  0  0  0  0
 87 89  2  0  0  0  0
 89 90  1  0  0  0  0
 90 91  2  0  0  0  0
 88 91  1  0  0  0  0
 91 92  1  0  0  0  0
 92 93  1  0  0  0  0
 93 94  1  0  0  0  0
 94 95  1  0  0  0  0
 95 96  2  0  0  0  0
 96 97  1  0  0  0  0
 97 98  2  0  0  0  0
 98 99  1  0  0  0  0
 95 99  1  0  0  0  0
 94100  2  0  0  0  0
100101  1  0  0  0  0
101102  1  0  0  0  0
102103  2  0  0  0  0
103104  1  0  0  0  0
104105  1  0  0  0  0
103106  1  0  0  0  0
106107  1  0  0  0  0
107108  1  0  0  0  0
108109  1  0  0  0  0
107110  2  0  0  0  0
102110  1  0  0  0  0
101111  2  0  0  0  0
 92112  2  0  0  0  0
100112  1  0  0  0  0
112113  1  0  0  0  0
110113  1  0  0  0  0
113114  2  0  0  0  0
 80115  1  0  0  0  0
 84115  1  0  0  0  0
115116  2  0  0  0  0
 69116  1  0  0  0  0
116117  1  0  0  0  0
117118  1  0  0  0  0
117119  2  0  0  0  0
119120  1  0  0  0  0
120121  1  0  0  0  0
120122  2  0  0  0  0
118122  1  0  0  0  0
122123  1  0  0  0  0
123124  1  0  0  0  0
125126  2  0  0  0  0
126127  1  0  0  0  0
127128  1  0  0  0  0
127129  2  0  0  0  0
129130  1  0  0  0  0
125130  1  0  0  0  0
129131  1  0  0  0  0
131132  2  0  0  0  0
128132  1  0  0  0  0
132133  1  0  0  0  0
133134  1  0  0  0  0
134135  1  0  0  0  0
135136  1  0  0  0  0
136137  1  0  0  0  0
137138  1  0  0  0  0
136139  2  0  0  0  0
139140  1  0  0  0  0
134141  2  0  0  0  0
139141  1  0  0  0  0
133142  2  0  0  0  0
142143  1  0  0  0  0
143144  1  0  0  0  0
143145  2  0  0  0  0
145146  1  0  0  0  0
145147  1  0  0  0  0
147148  2  0  0  0  0
144148  1  0  0  0  0
148149  1  0  0  0  0
149150  1  0  0  0  0
149151  2  0  0  0  0
151152  1  0  0  0  0
152153  2  0  0  0  0
150153  1  0  0  0  0
153154  1  0  0  0  0
154155  1  0  0  0  0
155156  1  0  0  0  0
156157  1  0  0  0  0
157158  2  0  0  0  0
158159  1  0  0  0  0
159160  2  0  0  0  0
160161  1  0  0  0  0
157161  1  0  0  0  0
156162  2  0  0  0  0
162163  1  0  0  0  0
163164  1  0  0  0  0
164165  2  0  0  0  0
165166  1  0  0  0  0
166167  1  0  0  0  0
165168  1  0  0  0  0
168169  1  0  0  0  0
169170  1  0  0  0  0
170171  1  0  0  0  0
169172  2  0  0  0  0
164172  1  0  0  0  0
163173  2  0  0  0  0
154174  2  0  0  0  0
162174  1  0  0  0  0
174175  1  0  0  0  0
172175  1  0  0  0  0
175176  2  0  0  0  0
142177  1  0  0  0  0
146177  1  0  0  0  0
177178  2  0  0  0  0
131178  1  0  0  0  0
178179  1  0  0  0  0
179180  1  0  0  0  0
179181  2  0  0  0  0
181182  1  0  0  0  0
182183  1  0  0  0  0
182184  2  0  0  0  0
180184  1  0  0  0  0
184185  1  0  0  0  0
185186  1  0  0  0  0
160 63  1  0  0  0  0
 98  1  1  0  0  0  0
  2187  1  0  0  0  0
 13188  1  0  0  0  0
 13189  1  0  0  0  0
 14190  1  0  0  0  0
 14191  1  0  0  0  0
 14192  1  0  0  0  0
 17193  1  0  0  0  0
 23194  1  0  0  0  0
 27195  1  0  0  0  0
 28196  1  0  0  0  0
 34197  1  0  0  0  0
 35198  1  0  0  0  0
 36199  1  0  0  0  0
 42200  1  0  0  0  0
 42201  1  0  0  0  0
 43202  1  0  0  0  0
 43203  1  0  0  0  0
 43204  1  0  0  0  0
 46205  1  0  0  0  0
 46206  1  0  0  0  0
 47207  1  0  0  0  0
 47208  1  0  0  0  0
 47209  1  0  0  0  0
 57210  1  0  0  0  0
 61211  1  0  0  0  0
 61212  1  0  0  0  0
 62213  1  0  0  0  0
 62214  1  0  0  0  0
 62215  1  0  0  0  0
 64216  1  0  0  0  0
 75217  1  0  0  0  0
 75218  1  0  0  0  0
 76219  1  0  0  0  0
 76220  1  0  0  0  0
 76221  1  0  0  0  0
 79222  1  0  0  0  0
 85223  1  0  0  0  0
 89224  1  0  0  0  0
 90225  1  0  0  0  0
 96226  1  0  0  0  0
 97227  1  0  0  0  0
104228  1  0  0  0  0
104229  1  0  0  0  0
105230  1  0  0  0  0
105231  1  0  0  0  0
105232  1  0  0  0  0
108233  1  0  0  0  0
108234  1  0  0  0  0
109235  1  0  0  0  0
109236  1  0  0  0  0
109237  1  0  0  0  0
119238  1  0  0  0  0
123239  1  0  0  0  0
123240  1  0  0  0  0
124241  1  0  0  0  0
124242  1  0  0  0  0
124243  1  0  0  0  0
125244  1  0  0  0  0
126245  1  0  0  0  0
137246  1  0  0  0  0
137247  1  0  0  0  0
138248  1  0  0  0  0
138249  1  0  0  0  0
138250  1  0  0  0  0
141251  1  0  0  0  0
147252  1  0  0  0  0
151253  1  0  0  0  0
152254  1  0  0  0  0
158255  1  0  0  0  0
159256  1  0  0  0  0
166257  1  0  0  0  0
166258  1  0  0  0  0
167259  1  0  0  0  0
167260  1  0  0  0  0
167261  1  0  0  0  0
170262  1  0  0  0  0
170263  1  0  0  0  0
171264  1  0  0  0  0
171265  1  0  0  0  0
171266  1  0  0  0  0
181267  1  0  0  0  0
185268  1  0  0  0  0
185269  1  0  0  0  0
186270  1  0  0  0  0
186271  1  0  0  0  0
186272  1  0  0  0  0
M  END
