PDBT-F.mol
  xtb     01102218123D
 energy: -502.653986235476 gnorm: 0.000210304036 xtb: 6.4.1 (unknown)
272307  0     0  0            999 V2000
   -1.0419    1.0165    1.0510 O   0  0  0  0  0  0  0  0  0  0  0  0
   -1.8206    0.7825    0.1386 C   0  0  0  0  0  0  0  0  0  0  0  0
   -3.1468    1.4013    0.0385 C   0  0  0  0  0  0  0  0  0  0  0  0
   -3.9613    1.2759   -1.1364 C   0  0  0  0  0  0  0  0  0  0  0  0
   -5.1224    2.0061   -1.0704 C   0  0  0  0  0  0  0  0  0  0  0  0
   -6.2274    2.1069   -2.0599 C   0  0  0  0  0  0  0  0  0  0  0  0
   -7.1587    0.8949   -1.9583 C   0  0  0  0  0  0  0  0  0  0  0  0
   -3.7286    2.1929    0.9983 C   0  0  0  0  0  0  0  0  0  0  0  0
   -5.2520    2.8164    0.4488 S   0  0  0  0  0  0  0  0  0  0  0  0
   -3.2753    2.5245    2.3730 C   0  0  0  0  0  0  0  0  0  0  0  0
   -4.3377    2.1621    3.4124 C   0  0  0  0  0  0  0  0  0  0  0  0
   -1.5206   -0.1618   -0.9463 C   0  0  0  0  0  0  0  0  0  0  0  0
   -0.4429   -1.0288   -0.9518 C   0  0  0  0  0  0  0  0  0  0  0  0
    0.6526   -1.1878   -0.0480 C   0  0  0  0  0  0  0  0  0  0  0  0
    1.1644   -2.8092    0.3511 S   0  0  0  0  0  0  0  0  0  0  0  0
    1.4425   -0.2577    0.5817 C   0  0  0  0  0  0  0  0  0  0  0  0
    2.4226   -0.8273    1.3977 C   0  0  0  0  0  0  0  0  0  0  0  0
    2.3953   -2.2033    1.4162 C   0  0  0  0  0  0  0  0  0  0  0  0
    3.0978   -3.0897    2.2790 C   0  0  0  0  0  0  0  0  0  0  0  0
    2.9759   -4.4584    2.3345 C   0  0  0  0  0  0  0  0  0  0  0  0
    3.5900   -4.9847    3.4746 C   0  0  0  0  0  0  0  0  0  0  0  0
    4.2111   -4.0400    4.2803 C   0  0  0  0  0  0  0  0  0  0  0  0
    4.0616   -2.4553    3.6031 S   0  0  0  0  0  0  0  0  0  0  0  0
    4.5775   -4.5282    5.5612 C   0  0  0  0  0  0  0  0  0  0  0  0
    5.1163   -3.8168    6.6508 C   0  0  0  0  0  0  0  0  0  0  0  0
    5.6925   -2.5047    6.4456 C   0  0  0  0  0  0  0  0  0  0  0  0
    6.5235   -2.1267    5.4281 C   0  0  0  0  0  0  0  0  0  0  0  0
    6.9078   -0.7781    5.5364 C   0  0  0  0  0  0  0  0  0  0  0  0
    7.7425   -0.2020    4.6534 F   0  0  0  0  0  0  0  0  0  0  0  0
    6.3789   -0.1038    6.5972 C   0  0  0  0  0  0  0  0  0  0  0  0
    6.6258    1.2999    7.0264 C   0  0  0  0  0  0  0  0  0  0  0  0
    7.7149    1.3610    8.0999 C   0  0  0  0  0  0  0  0  0  0  0  0
    5.3768   -1.1696    7.5159 S   0  0  0  0  0  0  0  0  0  0  0  0
    4.9740   -4.4067    7.9002 C   0  0  0  0  0  0  0  0  0  0  0  0
    5.2378   -3.5846    9.4327 S   0  0  0  0  0  0  0  0  0  0  0  0
    4.2221   -4.7566   10.2234 C   0  0  0  0  0  0  0  0  0  0  0  0
    3.9295   -5.8381    9.4050 C   0  0  0  0  0  0  0  0  0  0  0  0
    4.3838   -5.6842    8.0691 C   0  0  0  0  0  0  0  0  0  0  0  0
    4.0858   -6.4929    6.9569 C   0  0  0  0  0  0  0  0  0  0  0  0
    3.6697   -7.8663    7.1414 C   0  0  0  0  0  0  0  0  0  0  0  0
    4.4948   -8.8528    8.3198 S   0  0  0  0  0  0  0  0  0  0  0  0
    2.7108   -8.5872    6.4890 C   0  0  0  0  0  0  0  0  0  0  0  0
    2.6452   -9.9138    6.9554 C   0  0  0  0  0  0  0  0  0  0  0  0
    1.7590  -10.7996    6.4655 F   0  0  0  0  0  0  0  0  0  0  0  0
    3.5317  -10.2360    7.9404 C   0  0  0  0  0  0  0  0  0  0  0  0
    3.7317  -11.5494    8.6132 C   0  0  0  0  0  0  0  0  0  0  0  0
    5.0924  -12.1548    8.2659 C   0  0  0  0  0  0  0  0  0  0  0  0
    4.1518   -5.8718    5.7143 C   0  0  0  0  0  0  0  0  0  0  0  0
    3.5296   -6.5537    4.2204 S   0  0  0  0  0  0  0  0  0  0  0  0
    3.3659   -4.6156   11.3220 C   0  0  0  0  0  0  0  0  0  0  0  0
    2.3685   -5.5624   11.3216 C   0  0  0  0  0  0  0  0  0  0  0  0
    2.6333   -6.7800   10.0697 S   0  0  0  0  0  0  0  0  0  0  0  0
    1.0147   -5.3158   11.7251 C   0  0  0  0  0  0  0  0  0  0  0  0
   -0.0975   -6.1227   11.7485 C   0  0  0  0  0  0  0  0  0  0  0  0
   -1.3036   -5.4325   11.5473 C   0  0  0  0  0  0  0  0  0  0  0  0
   -1.1324   -4.0842   11.3297 C   0  0  0  0  0  0  0  0  0  0  0  0
   -1.9004   -3.1372   10.5818 C   0  0  0  0  0  0  0  0  0  0  0  0
   -3.2404   -2.9756   10.2775 C   0  0  0  0  0  0  0  0  0  0  0  0
   -3.4760   -2.0352    9.2199 C   0  0  0  0  0  0  0  0  0  0  0  0
   -4.8320   -1.7019    8.7754 C   0  0  0  0  0  0  0  0  0  0  0  0
   -5.8982   -2.3326    9.5568 C   0  0  0  0  0  0  0  0  0  0  0  0
   -7.2342   -2.0649    9.3870 C   0  0  0  0  0  0  0  0  0  0  0  0
   -7.8998   -1.1806    8.3955 C   0  0  0  0  0  0  0  0  0  0  0  0
   -8.0981   -1.9126    7.0650 C   0  0  0  0  0  0  0  0  0  0  0  0
   -8.1946   -2.9722   10.5049 S   0  0  0  0  0  0  0  0  0  0  0  0
   -6.8018   -3.7174   11.2110 C   0  0  0  0  0  0  0  0  0  0  0  0
   -6.9628   -4.7215   12.2938 C   0  0  0  0  0  0  0  0  0  0  0  0
   -7.0387   -6.1352   11.7093 C   0  0  0  0  0  0  0  0  0  0  0  0
   -5.6525   -3.2789   10.6030 C   0  0  0  0  0  0  0  0  0  0  0  0
   -4.3048   -3.6962   10.9824 C   0  0  0  0  0  0  0  0  0  0  0  0
   -4.0789   -4.5573   11.8197 O   0  0  0  0  0  0  0  0  0  0  0  0
   -5.0738   -0.9430    7.8470 O   0  0  0  0  0  0  0  0  0  0  0  0
   -2.2990   -1.5004    8.6986 C   0  0  0  0  0  0  0  0  0  0  0  0
   -1.9517   -0.6964    7.5716 C   0  0  0  0  0  0  0  0  0  0  0  0
   -0.2391   -0.3975    7.3328 S   0  0  0  0  0  0  0  0  0  0  0  0
   -2.6720   -0.1725    6.5186 C   0  0  0  0  0  0  0  0  0  0  0  0
   -1.8780    0.4323    5.5423 C   0  0  0  0  0  0  0  0  0  0  0  0
   -0.5287    0.3969    5.8169 C   0  0  0  0  0  0  0  0  0  0  0  0
    0.5678    0.8810    5.0506 C   0  0  0  0  0  0  0  0  0  0  0  0
    0.3371    1.7764    3.5622 S   0  0  0  0  0  0  0  0  0  0  0  0
    1.9009    0.7067    5.3510 C   0  0  0  0  0  0  0  0  0  0  0  0
    2.7230    1.2919    4.3895 C   0  0  0  0  0  0  0  0  0  0  0  0
    2.0439    1.9216    3.3500 C   0  0  0  0  0  0  0  0  0  0  0  0
    2.9010    2.4707    2.3568 C   0  0  0  0  0  0  0  0  0  0  0  0
    2.6032    3.1157    1.1424 C   0  0  0  0  0  0  0  0  0  0  0  0
    1.2482    3.4685    0.7492 C   0  0  0  0  0  0  0  0  0  0  0  0
    0.3145    4.1565    1.4672 C   0  0  0  0  0  0  0  0  0  0  0  0
   -0.8259    4.4448    0.6952 C   0  0  0  0  0  0  0  0  0  0  0  0
   -1.8601    5.1628    1.1797 F   0  0  0  0  0  0  0  0  0  0  0  0
   -0.8039    3.9834   -0.5876 C   0  0  0  0  0  0  0  0  0  0  0  0
   -1.8343    4.1749   -1.6502 C   0  0  0  0  0  0  0  0  0  0  0  0
   -1.5805    3.3085   -2.8755 C   0  0  0  0  0  0  0  0  0  0  0  0
    0.6811    3.1540   -0.8675 S   0  0  0  0  0  0  0  0  0  0  0  0
    3.6785    3.4632    0.3286 C   0  0  0  0  0  0  0  0  0  0  0  0
    3.5388    4.3148   -1.2016 S   0  0  0  0  0  0  0  0  0  0  0  0
    5.2701    4.3839   -1.3442 C   0  0  0  0  0  0  0  0  0  0  0  0
    5.9082    3.7672   -0.2766 C   0  0  0  0  0  0  0  0  0  0  0  0
    5.0272    3.2300    0.6933 C   0  0  0  0  0  0  0  0  0  0  0  0
    5.3277    2.5960    1.9064 C   0  0  0  0  0  0  0  0  0  0  0  0
    6.7050    2.3513    2.3051 C   0  0  0  0  0  0  0  0  0  0  0  0
    7.3251    3.0230    3.7832 S   0  0  0  0  0  0  0  0  0  0  0  0
    7.6671    1.6511    1.6431 C   0  0  0  0  0  0  0  0  0  0  0  0
    8.8926    1.6568    2.3407 C   0  0  0  0  0  0  0  0  0  0  0  0
    9.9839    1.0281    1.8689 F   0  0  0  0  0  0  0  0  0  0  0  0
    8.8941    2.3473    3.5139 C   0  0  0  0  0  0  0  0  0  0  0  0
   10.0084    2.5255    4.4854 C   0  0  0  0  0  0  0  0  0  0  0  0
   10.2653    3.9977    4.7996 C   0  0  0  0  0  0  0  0  0  0  0  0
    4.2571    2.2301    2.7062 C   0  0  0  0  0  0  0  0  0  0  0  0
    4.4474    1.3627    4.2164 S   0  0  0  0  0  0  0  0  0  0  0  0
    6.1381    4.9350   -2.2921 C   0  0  0  0  0  0  0  0  0  0  0  0
    7.4561    4.7485   -1.9429 C   0  0  0  0  0  0  0  0  0  0  0  0
    7.6225    3.8782   -0.4279 S   0  0  0  0  0  0  0  0  0  0  0  0
    8.6146    5.1629   -2.6522 C   0  0  0  0  0  0  0  0  0  0  0  0
    9.9294    4.9793   -2.2677 C   0  0  0  0  0  0  0  0  0  0  0  0
   10.8273    5.4958   -3.1873 C   0  0  0  0  0  0  0  0  0  0  0  0
   10.2285    6.0816   -4.2953 C   0  0  0  0  0  0  0  0  0  0  0  0
   10.9564    6.6684   -5.3606 C   0  0  0  0  0  0  0  0  0  0  0  0
   12.6980    6.6584   -5.2263 S   0  0  0  0  0  0  0  0  0  0  0  0
   10.5741    7.2739   -6.5516 C   0  0  0  0  0  0  0  0  0  0  0  0
   11.6807    7.7202   -7.3436 C   0  0  0  0  0  0  0  0  0  0  0  0
   11.5069    8.3789   -8.6281 C   0  0  0  0  0  0  0  0  0  0  0  0
   10.1195    8.5185   -9.0620 C   0  0  0  0  0  0  0  0  0  0  0  0
    9.7302    9.0746  -10.2553 C   0  0  0  0  0  0  0  0  0  0  0  0
   10.5653    9.6777  -11.3259 C   0  0  0  0  0  0  0  0  0  0  0  0
   10.9268   11.1255  -10.9811 C   0  0  0  0  0  0  0  0  0  0  0  0
    8.0062    9.0676  -10.4018 S   0  0  0  0  0  0  0  0  0  0  0  0
    7.7993    8.3103   -8.8607 C   0  0  0  0  0  0  0  0  0  0  0  0
    6.4372    7.9661   -8.3769 C   0  0  0  0  0  0  0  0  0  0  0  0
    6.1068    6.5024   -8.6834 C   0  0  0  0  0  0  0  0  0  0  0  0
    9.0152    8.0688   -8.2698 C   0  0  0  0  0  0  0  0  0  0  0  0
    9.1933    7.4343   -6.9683 C   0  0  0  0  0  0  0  0  0  0  0  0
    8.2404    7.0605   -6.2868 O   0  0  0  0  0  0  0  0  0  0  0  0
   12.4458    8.7928   -9.3020 O   0  0  0  0  0  0  0  0  0  0  0  0
   12.9144    7.4632   -6.7612 C   0  0  0  0  0  0  0  0  0  0  0  0
   14.2540    7.7170   -7.1629 C   0  0  0  0  0  0  0  0  0  0  0  0
   15.3628    7.3499   -6.4197 C   0  0  0  0  0  0  0  0  0  0  0  0
   16.5764    7.7061   -7.0100 C   0  0  0  0  0  0  0  0  0  0  0  0
   16.3929    8.3455   -8.2021 C   0  0  0  0  0  0  0  0  0  0  0  0
   14.7459    8.5235   -8.6276 S   0  0  0  0  0  0  0  0  0  0  0  0
    8.4935    5.9836   -4.1781 S   0  0  0  0  0  0  0  0  0  0  0  0
   -0.9295   -2.0853    9.5959 S   0  0  0  0  0  0  0  0  0  0  0  0
    0.5377   -3.6393   11.5870 S   0  0  0  0  0  0  0  0  0  0  0  0
   -0.5547   -2.1605   -2.2701 S   0  0  0  0  0  0  0  0  0  0  0  0
   -2.0504   -1.4665   -2.8403 C   0  0  0  0  0  0  0  0  0  0  0  0
   -2.7202   -2.1280   -3.9009 C   0  0  0  0  0  0  0  0  0  0  0  0
   -2.2811   -3.3075   -4.4863 C   0  0  0  0  0  0  0  0  0  0  0  0
   -3.1790   -3.8602   -5.3881 C   0  0  0  0  0  0  0  0  0  0  0  0
   -4.3334   -3.1092   -5.5074 C   0  0  0  0  0  0  0  0  0  0  0  0
   -4.2718   -1.6715   -4.5378 S   0  0  0  0  0  0  0  0  0  0  0  0
   -5.5090   -3.4073   -6.2502 C   0  0  0  0  0  0  0  0  0  0  0  0
   -5.7631   -4.4712   -7.0871 C   0  0  0  0  0  0  0  0  0  0  0  0
   -7.0730   -4.4379   -7.5768 C   0  0  0  0  0  0  0  0  0  0  0  0
   -7.9983   -5.5097   -8.5864 S   0  0  0  0  0  0  0  0  0  0  0  0
   -9.4225   -4.5097   -8.3647 C   0  0  0  0  0  0  0  0  0  0  0  0
   -9.1673   -3.3578   -7.5790 C   0  0  0  0  0  0  0  0  0  0  0  0
  -10.1968   -2.4472   -7.3034 C   0  0  0  0  0  0  0  0  0  0  0  0
   -9.9618   -1.2370   -6.5286 C   0  0  0  0  0  0  0  0  0  0  0  0
   -8.8136   -0.0467   -7.0679 S   0  0  0  0  0  0  0  0  0  0  0  0
   -9.1186    0.9642   -5.6984 C   0  0  0  0  0  0  0  0  0  0  0  0
   -8.3966    2.2509   -5.4921 C   0  0  0  0  0  0  0  0  0  0  0  0
   -8.5880    3.2044   -6.6704 C   0  0  0  0  0  0  0  0  0  0  0  0
  -10.0727    0.3891   -4.9147 C   0  0  0  0  0  0  0  0  0  0  0  0
  -10.5052    0.9548   -3.7706 F   0  0  0  0  0  0  0  0  0  0  0  0
  -10.5678   -0.8494   -5.3720 C   0  0  0  0  0  0  0  0  0  0  0  0
  -11.4573   -2.7543   -7.7960 C   0  0  0  0  0  0  0  0  0  0  0  0
  -11.7157   -3.9062   -8.5799 C   0  0  0  0  0  0  0  0  0  0  0  0
  -13.0979   -3.9735   -8.9030 C   0  0  0  0  0  0  0  0  0  0  0  0
  -14.1061   -5.1002   -9.7390 S   0  0  0  0  0  0  0  0  0  0  0  0
  -15.4985   -4.1325   -9.4038 C   0  0  0  0  0  0  0  0  0  0  0  0
  -15.2226   -3.0084   -8.6936 C   0  0  0  0  0  0  0  0  0  0  0  0
  -13.8472   -2.9209   -8.4036 C   0  0  0  0  0  0  0  0  0  0  0  0
  -12.8855   -1.7783   -7.5155 S   0  0  0  0  0  0  0  0  0  0  0  0
  -10.6746   -4.7935   -8.8933 C   0  0  0  0  0  0  0  0  0  0  0  0
  -10.9083   -5.9620   -9.7275 C   0  0  0  0  0  0  0  0  0  0  0  0
  -10.4898   -7.5564   -9.1715 S   0  0  0  0  0  0  0  0  0  0  0  0
  -11.4487   -6.0028  -10.9778 C   0  0  0  0  0  0  0  0  0  0  0  0
  -11.5150   -7.3195  -11.4768 C   0  0  0  0  0  0  0  0  0  0  0  0
  -12.0094   -7.5969  -12.6972 F   0  0  0  0  0  0  0  0  0  0  0  0
  -11.0496   -8.2859  -10.6370 C   0  0  0  0  0  0  0  0  0  0  0  0
  -10.9679   -9.7552  -10.8680 C   0  0  0  0  0  0  0  0  0  0  0  0
   -9.5169  -10.2353  -10.9111 C   0  0  0  0  0  0  0  0  0  0  0  0
   -7.8211   -3.3547   -7.1345 C   0  0  0  0  0  0  0  0  0  0  0  0
   -6.8962   -2.3541   -6.0798 S   0  0  0  0  0  0  0  0  0  0  0  0
   -2.4182   -0.3957   -2.0342 C   0  0  0  0  0  0  0  0  0  0  0  0
   -3.6063    0.4111   -2.2526 C   0  0  0  0  0  0  0  0  0  0  0  0
   -4.2739    0.3494   -3.2823 O   0  0  0  0  0  0  0  0  0  0  0  0
   -6.7946    3.0213   -1.8749 H   0  0  0  0  0  0  0  0  0  0  0  0
   -5.8037    2.1411   -3.0648 H   0  0  0  0  0  0  0  0  0  0  0  0
   -7.5319    0.7838   -0.9426 H   0  0  0  0  0  0  0  0  0  0  0  0
   -6.6248   -0.0079   -2.2424 H   0  0  0  0  0  0  0  0  0  0  0  0
   -8.0050    1.0202   -2.6264 H   0  0  0  0  0  0  0  0  0  0  0  0
   -2.3383    1.9993    2.5630 H   0  0  0  0  0  0  0  0  0  0  0  0
   -3.0823    3.5975    2.4384 H   0  0  0  0  0  0  0  0  0  0  0  0
   -5.2663    2.6900    3.2039 H   0  0  0  0  0  0  0  0  0  0  0  0
   -4.0029    2.4459    4.4068 H   0  0  0  0  0  0  0  0  0  0  0  0
   -4.5398    1.0928    3.4024 H   0  0  0  0  0  0  0  0  0  0  0  0
    1.3076    0.7978    0.4513 H   0  0  0  0  0  0  0  0  0  0  0  0
    3.1354   -0.2639    1.9716 H   0  0  0  0  0  0  0  0  0  0  0  0
    2.4218   -5.0337    1.6157 H   0  0  0  0  0  0  0  0  0  0  0  0
    6.8798   -2.7832    4.6561 H   0  0  0  0  0  0  0  0  0  0  0  0
    5.7023    1.7269    7.4211 H   0  0  0  0  0  0  0  0  0  0  0  0
    6.9311    1.8840    6.1565 H   0  0  0  0  0  0  0  0  0  0  0  0
    7.4124    0.7951    8.9782 H   0  0  0  0  0  0  0  0  0  0  0  0
    7.8932    2.3924    8.3924 H   0  0  0  0  0  0  0  0  0  0  0  0
    8.6442    0.9401    7.7223 H   0  0  0  0  0  0  0  0  0  0  0  0
    2.0532   -8.1974    5.7354 H   0  0  0  0  0  0  0  0  0  0  0  0
    2.9328  -12.2225    8.2951 H   0  0  0  0  0  0  0  0  0  0  0  0
    3.6617  -11.4183    9.6962 H   0  0  0  0  0  0  0  0  0  0  0  0
    5.2142  -13.1127    8.7645 H   0  0  0  0  0  0  0  0  0  0  0  0
    5.1760  -12.3086    7.1925 H   0  0  0  0  0  0  0  0  0  0  0  0
    5.8924  -11.4902    8.5844 H   0  0  0  0  0  0  0  0  0  0  0  0
    3.3878   -3.7815   11.9992 H   0  0  0  0  0  0  0  0  0  0  0  0
   -0.0382   -7.1936   11.8322 H   0  0  0  0  0  0  0  0  0  0  0  0
   -2.2622   -5.9120   11.4775 H   0  0  0  0  0  0  0  0  0  0  0  0
   -7.2696   -0.3062    8.2230 H   0  0  0  0  0  0  0  0  0  0  0  0
   -8.8675   -0.8593    8.7857 H   0  0  0  0  0  0  0  0  0  0  0  0
   -7.1324   -2.1828    6.6462 H   0  0  0  0  0  0  0  0  0  0  0  0
   -8.6138   -1.2662    6.3602 H   0  0  0  0  0  0  0  0  0  0  0  0
   -8.6874   -2.8159    7.2089 H   0  0  0  0  0  0  0  0  0  0  0  0
   -6.0996   -4.6631   12.9593 H   0  0  0  0  0  0  0  0  0  0  0  0
   -7.8727   -4.5087   12.8585 H   0  0  0  0  0  0  0  0  0  0  0  0
   -7.1842   -6.8584   12.5069 H   0  0  0  0  0  0  0  0  0  0  0  0
   -7.8662   -6.2156   11.0073 H   0  0  0  0  0  0  0  0  0  0  0  0
   -6.1123   -6.3701   11.1920 H   0  0  0  0  0  0  0  0  0  0  0  0
   -3.7419   -0.2397    6.4634 H   0  0  0  0  0  0  0  0  0  0  0  0
   -2.2647    0.8689    4.6408 H   0  0  0  0  0  0  0  0  0  0  0  0
    2.2534    0.1750    6.2160 H   0  0  0  0  0  0  0  0  0  0  0  0
    0.4426    4.4829    2.4822 H   0  0  0  0  0  0  0  0  0  0  0  0
   -1.8395    5.2302   -1.9448 H   0  0  0  0  0  0  0  0  0  0  0  0
   -2.8203    3.9584   -1.2295 H   0  0  0  0  0  0  0  0  0  0  0  0
   -1.5290    2.2581   -2.5980 H   0  0  0  0  0  0  0  0  0  0  0  0
   -0.6379    3.5828   -3.3444 H   0  0  0  0  0  0  0  0  0  0  0  0
   -2.3806    3.4338   -3.6005 H   0  0  0  0  0  0  0  0  0  0  0  0
    7.5132    1.1281    0.7177 H   0  0  0  0  0  0  0  0  0  0  0  0
    9.7634    1.9959    5.4106 H   0  0  0  0  0  0  0  0  0  0  0  0
   10.9043    2.0669    4.0619 H   0  0  0  0  0  0  0  0  0  0  0  0
   11.0825    4.0932    5.5100 H   0  0  0  0  0  0  0  0  0  0  0  0
   10.5273    4.5395    3.8937 H   0  0  0  0  0  0  0  0  0  0  0  0
    9.3747    4.4523    5.2283 H   0  0  0  0  0  0  0  0  0  0  0  0
    5.8332    5.4460   -3.1864 H   0  0  0  0  0  0  0  0  0  0  0  0
   10.2137    4.4873   -1.3538 H   0  0  0  0  0  0  0  0  0  0  0  0
   11.8960    5.4520   -3.0685 H   0  0  0  0  0  0  0  0  0  0  0  0
   11.4880    9.1023  -11.4215 H   0  0  0  0  0  0  0  0  0  0  0  0
   10.0208    9.6497  -12.2718 H   0  0  0  0  0  0  0  0  0  0  0  0
   10.0280   11.7200  -10.8299 H   0  0  0  0  0  0  0  0  0  0  0  0
   11.5053   11.5636  -11.7896 H   0  0  0  0  0  0  0  0  0  0  0  0
   11.5257   11.1495  -10.0748 H   0  0  0  0  0  0  0  0  0  0  0  0
    6.3979    8.1135   -7.2960 H   0  0  0  0  0  0  0  0  0  0  0  0
    5.7048    8.6172   -8.8582 H   0  0  0  0  0  0  0  0  0  0  0  0
    6.7934    5.8500   -8.1508 H   0  0  0  0  0  0  0  0  0  0  0  0
    6.1861    6.3066   -9.7508 H   0  0  0  0  0  0  0  0  0  0  0  0
    5.0944    6.2769   -8.3600 H   0  0  0  0  0  0  0  0  0  0  0  0
   15.2835    6.8371   -5.4768 H   0  0  0  0  0  0  0  0  0  0  0  0
   17.5373    7.4996   -6.5735 H   0  0  0  0  0  0  0  0  0  0  0  0
   17.1517    8.7239   -8.8591 H   0  0  0  0  0  0  0  0  0  0  0  0
   -1.3358   -3.7559   -4.2325 H   0  0  0  0  0  0  0  0  0  0  0  0
   -3.0042   -4.7778   -5.9199 H   0  0  0  0  0  0  0  0  0  0  0  0
   -5.0459   -5.2335   -7.3258 H   0  0  0  0  0  0  0  0  0  0  0  0
   -8.7713    2.7116   -4.5753 H   0  0  0  0  0  0  0  0  0  0  0  0
   -7.3301    2.0458   -5.3621 H   0  0  0  0  0  0  0  0  0  0  0  0
   -8.2082    2.7535   -7.5845 H   0  0  0  0  0  0  0  0  0  0  0  0
   -8.0535    4.1337   -6.4914 H   0  0  0  0  0  0  0  0  0  0  0  0
   -9.6427    3.4310   -6.8087 H   0  0  0  0  0  0  0  0  0  0  0  0
  -11.3112   -1.4226   -4.8502 H   0  0  0  0  0  0  0  0  0  0  0  0
  -16.4520   -4.4652   -9.7630 H   0  0  0  0  0  0  0  0  0  0  0  0
  -15.9540   -2.2830   -8.3901 H   0  0  0  0  0  0  0  0  0  0  0  0
  -11.7600   -5.1402  -11.5367 H   0  0  0  0  0  0  0  0  0  0  0  0
  -11.4973  -10.2806  -10.0686 H   0  0  0  0  0  0  0  0  0  0  0  0
  -11.4640   -9.9808  -11.8143 H   0  0  0  0  0  0  0  0  0  0  0  0
   -8.9767   -9.7383  -11.7134 H   0  0  0  0  0  0  0  0  0  0  0  0
   -9.4822  -11.3082  -11.0811 H   0  0  0  0  0  0  0  0  0  0  0  0
   -9.0192  -10.0135   -9.9696 H   0  0  0  0  0  0  0  0  0  0  0  0
  1  2  2  0  0  0  0
  2  3  1  0  0  0  0
  3  4  1  0  0  0  0
  4  5  2  0  0  0  0
  5  6  1  0  0  0  0
  6  7  1  0  0  0  0
  3  8  2  0  0  0  0
  8  9  1  0  0  0  0
  5  9  1  0  0  0  0
  8 10  1  0  0  0  0
 10 11  1  0  0  0  0
  2 12  1  0  0  0  0
 12 13  2  0  0  0  0
 13 14  1  0  0  0  0
 14 15  1  0  0  0  0
 14 16  2  0  0  0  0
 16 17  1  0  0  0  0
 17 18  2  0  0  0  0
 15 18  1  0  0  0  0
 18 19  1  0  0  0  0
 19 20  2  0  0  0  0
 20 21  1  0  0  0  0
 21 22  2  0  0  0  0
 22 23  1  0  0  0  0
 19 23  1  0  0  0  0
 22 24  1  0  0  0  0
 24 25  2  0  0  0  0
 25 26  1  0  0  0  0
 26 27  2  0  0  0  0
 27 28  1  0  0  0  0
 28 29  1  0  0  0  0
 28 30  2  0  0  0  0
 30 31  1  0  0  0  0
 31 32  1  0  0  0  0
 30 33  1  0  0  0  0
 26 33  1  0  0  0  0
 25 34  1  0  0  0  0
 34 35  1  0  0  0  0
 35 36  1  0  0  0  0
 36 37  2  0  0  0  0
 37 38  1  0  0  0  0
 34 38  2  0  0  0  0
 38 39  1  0  0  0  0
 39 40  1  0  0  0  0
 40 41  1  0  0  0  0
 40 42  2  0  0  0  0
 42 43  1  0  0  0  0
 43 44  1  0  0  0  0
 43 45  2  0  0  0  0
 41 45  1  0  0  0  0
 45 46  1  0  0  0  0
 46 47  1  0  0  0  0
 39 48  2  0  0  0  0
 24 48  1  0  0  0  0
 48 49  1  0  0  0  0
 21 49  1  0  0  0  0
 36 50  1  0  0  0  0
 50 51  2  0  0  0  0
 51 52  1  0  0  0  0
 37 52  1  0  0  0  0
 51 53  1  0  0  0  0
 53 54  2  0  0  0  0
 54 55  1  0  0  0  0
 55 56  2  0  0  0  0
 56 57  1  0  0  0  0
 57 58  2  0  0  0  0
 58 59  1  0  0  0  0
 59 60  1  0  0  0  0
 60 61  1  0  0  0  0
 61 62  2  0  0  0  0
 62 63  1  0  0  0  0
 63 64  1  0  0  0  0
 62 65  1  0  0  0  0
 65 66  1  0  0  0  0
 66 67  1  0  0  0  0
 67 68  1  0  0  0  0
 66 69  2  0  0  0  0
 61 69  1  0  0  0  0
 69 70  1  0  0  0  0
 58 70  1  0  0  0  0
 70 71  2  0  0  0  0
 60 72  2  0  0  0  0
 59 73  2  0  0  0  0
 73 74  1  0  0  0  0
 74 75  1  0  0  0  0
 74 76  2  0  0  0  0
 76 77  1  0  0  0  0
 77 78  2  0  0  0  0
 75 78  1  0  0  0  0
 78 79  1  0  0  0  0
 79 80  1  0  0  0  0
 79 81  2  0  0  0  0
 81 82  1  0  0  0  0
 82 83  2  0  0  0  0
 80 83  1  0  0  0  0
 83 84  1  0  0  0  0
 84 85  2  0  0  0  0
 85 86  1  0  0  0  0
 86 87  2  0  0  0  0
 87 88  1  0  0  0  0
 88 89  1  0  0  0  0
 88 90  2  0  0  0  0
 90 91  1  0  0  0  0
 91 92  1  0  0  0  0
 90 93  1  0  0  0  0
 86 93  1  0  0  0  0
 85 94  1  0  0  0  0
 94 95  1  0  0  0  0
 95 96  1  0  0  0  0
 96 97  2  0  0  0  0
 97 98  1  0  0  0  0
 94 98  2  0  0  0  0
 98 99  1  0  0  0  0
 99100  1  0  0  0  0
100101  1  0  0  0  0
100102  2  0  0  0  0
102103  1  0  0  0  0
103104  1  0  0  0  0
103105  2  0  0  0  0
101105  1  0  0  0  0
105106  1  0  0  0  0
106107  1  0  0  0  0
 99108  2  0  0  0  0
 84108  1  0  0  0  0
108109  1  0  0  0  0
 82109  1  0  0  0  0
 96110  1  0  0  0  0
110111  2  0  0  0  0
111112  1  0  0  0  0
 97112  1  0  0  0  0
111113  1  0  0  0  0
113114  2  0  0  0  0
114115  1  0  0  0  0
115116  2  0  0  0  0
116117  1  0  0  0  0
117118  1  0  0  0  0
117119  2  0  0  0  0
119120  1  0  0  0  0
120121  1  0  0  0  0
121122  1  0  0  0  0
122123  2  0  0  0  0
123124  1  0  0  0  0
124125  1  0  0  0  0
123126  1  0  0  0  0
126127  1  0  0  0  0
127128  1  0  0  0  0
128129  1  0  0  0  0
127130  2  0  0  0  0
122130  1  0  0  0  0
130131  1  0  0  0  0
119131  1  0  0  0  0
131132  2  0  0  0  0
121133  2  0  0  0  0
120134  2  0  0  0  0
118134  1  0  0  0  0
134135  1  0  0  0  0
135136  2  0  0  0  0
136137  1  0  0  0  0
137138  2  0  0  0  0
138139  1  0  0  0  0
135139  1  0  0  0  0
116140  1  0  0  0  0
113140  1  0  0  0  0
 73141  1  0  0  0  0
 57141  1  0  0  0  0
 56142  1  0  0  0  0
 53142  1  0  0  0  0
 13143  1  0  0  0  0
143144  1  0  0  0  0
144145  1  0  0  0  0
145146  2  0  0  0  0
146147  1  0  0  0  0
147148  2  0  0  0  0
148149  1  0  0  0  0
145149  1  0  0  0  0
148150  1  0  0  0  0
150151  2  0  0  0  0
151152  1  0  0  0  0
152153  1  0  0  0  0
153154  1  0  0  0  0
154155  2  0  0  0  0
155156  1  0  0  0  0
156157  1  0  0  0  0
157158  1  0  0  0  0
158159  1  0  0  0  0
159160  1  0  0  0  0
160161  1  0  0  0  0
159162  2  0  0  0  0
162163  1  0  0  0  0
157164  2  0  0  0  0
162164  1  0  0  0  0
156165  2  0  0  0  0
165166  1  0  0  0  0
166167  1  0  0  0  0
167168  1  0  0  0  0
168169  1  0  0  0  0
169170  2  0  0  0  0
167171  2  0  0  0  0
170171  1  0  0  0  0
171172  1  0  0  0  0
165172  1  0  0  0  0
166173  2  0  0  0  0
154173  1  0  0  0  0
173174  1  0  0  0  0
174175  1  0  0  0  0
174176  2  0  0  0  0
176177  1  0  0  0  0
177178  1  0  0  0  0
177179  2  0  0  0  0
175179  1  0  0  0  0
179180  1  0  0  0  0
180181  1  0  0  0  0
152182  2  0  0  0  0
155182  1  0  0  0  0
182183  1  0  0  0  0
150183  1  0  0  0  0
144184  2  0  0  0  0
 12184  1  0  0  0  0
184185  1  0  0  0  0
  4185  1  0  0  0  0
185186  2  0  0  0  0
  6187  1  0  0  0  0
  6188  1  0  0  0  0
  7189  1  0  0  0  0
  7190  1  0  0  0  0
  7191  1  0  0  0  0
 10192  1  0  0  0  0
 10193  1  0  0  0  0
 11194  1  0  0  0  0
 11195  1  0  0  0  0
 11196  1  0  0  0  0
 16197  1  0  0  0  0
 17198  1  0  0  0  0
 20199  1  0  0  0  0
 27200  1  0  0  0  0
 31201  1  0  0  0  0
 31202  1  0  0  0  0
 32203  1  0  0  0  0
 32204  1  0  0  0  0
 32205  1  0  0  0  0
 42206  1  0  0  0  0
 46207  1  0  0  0  0
 46208  1  0  0  0  0
 47209  1  0  0  0  0
 47210  1  0  0  0  0
 47211  1  0  0  0  0
 50212  1  0  0  0  0
 54213  1  0  0  0  0
 55214  1  0  0  0  0
 63215  1  0  0  0  0
 63216  1  0  0  0  0
 64217  1  0  0  0  0
 64218  1  0  0  0  0
 64219  1  0  0  0  0
 67220  1  0  0  0  0
 67221  1  0  0  0  0
 68222  1  0  0  0  0
 68223  1  0  0  0  0
 68224  1  0  0  0  0
 76225  1  0  0  0  0
 77226  1  0  0  0  0
 81227  1  0  0  0  0
 87228  1  0  0  0  0
 91229  1  0  0  0  0
 91230  1  0  0  0  0
 92231  1  0  0  0  0
 92232  1  0  0  0  0
 92233  1  0  0  0  0
102234  1  0  0  0  0
106235  1  0  0  0  0
106236  1  0  0  0  0
107237  1  0  0  0  0
107238  1  0  0  0  0
107239  1  0  0  0  0
110240  1  0  0  0  0
114241  1  0  0  0  0
115242  1  0  0  0  0
124243  1  0  0  0  0
124244  1  0  0  0  0
125245  1  0  0  0  0
125246  1  0  0  0  0
125247  1  0  0  0  0
128248  1  0  0  0  0
128249  1  0  0  0  0
129250  1  0  0  0  0
129251  1  0  0  0  0
129252  1  0  0  0  0
136253  1  0  0  0  0
137254  1  0  0  0  0
138255  1  0  0  0  0
146256  1  0  0  0  0
147257  1  0  0  0  0
151258  1  0  0  0  0
160259  1  0  0  0  0
160260  1  0  0  0  0
161261  1  0  0  0  0
161262  1  0  0  0  0
161263  1  0  0  0  0
164264  1  0  0  0  0
169265  1  0  0  0  0
170266  1  0  0  0  0
176267  1  0  0  0  0
180268  1  0  0  0  0
180269  1  0  0  0  0
181270  1  0  0  0  0
181271  1  0  0  0  0
181272  1  0  0  0  0
M  END
