SCF done       -395.663872349645          0.000203681852
 OpenBabel12282109573D

224250  0  0  0  0  0  0  0  0999 V2000
   -1.4578    6.2496    5.8173 C   0  0  0  0  0  0  0  0  0  0  0  0
   -1.8849    6.6476    7.0972 C   0  0  0  0  0  0  0  0  0  0  0  0
   -0.9548    7.1764    8.0225 C   0  0  0  0  0  0  0  0  0  0  0  0
    0.4026    7.3110    7.7500 C   0  0  0  0  0  0  0  0  0  0  0  0
    0.8268    6.9370    6.4620 C   0  0  0  0  0  0  0  0  0  0  0  0
   -0.1079    6.4263    5.5293 C   0  0  0  0  0  0  0  0  0  0  0  0
   -3.2030    6.6206    7.6407 C   0  0  0  0  0  0  0  0  0  0  0  0
   -3.2593    7.0776    8.9077 C   0  0  0  0  0  0  0  0  0  0  0  0
   -1.7274    7.5788    9.5319 S   0  0  0  0  0  0  0  0  0  0  0  0
    2.1317    7.0179    5.9145 C   0  0  0  0  0  0  0  0  0  0  0  0
    2.2168    6.5720    4.6291 C   0  0  0  0  0  0  0  0  0  0  0  0
    0.6655    6.0271    4.0188 S   0  0  0  0  0  0  0  0  0  0  0  0
   -2.3534    5.6646    4.8378 C   0  0  0  0  0  0  0  0  0  0  0  0
    1.3474    7.8061    8.7323 C   0  0  0  0  0  0  0  0  0  0  0  0
    2.5823    7.3107    9.0358 C   0  0  0  0  0  0  0  0  0  0  0  0
    3.2329    8.0565   10.0428 C   0  0  0  0  0  0  0  0  0  0  0  0
    2.5211    9.1251   10.5035 C   0  0  0  0  0  0  0  0  0  0  0  0
    0.9933    9.2124    9.6955 S   0  0  0  0  0  0  0  0  0  0  0  0
   -2.3802    5.8851    3.4906 C   0  0  0  0  0  0  0  0  0  0  0  0
   -4.0454    4.2557    3.6438 C   0  0  0  0  0  0  0  0  0  0  0  0
   -3.5258    4.4543    5.2811 S   0  0  0  0  0  0  0  0  0  0  0  0
    3.3663    6.5325    3.7911 C   0  0  0  0  0  0  0  0  0  0  0  0
    4.9387    6.9311    4.4177 S   0  0  0  0  0  0  0  0  0  0  0  0
    5.6713    6.6743    2.8583 C   0  0  0  0  0  0  0  0  0  0  0  0
    4.7263    6.3016    1.9298 C   0  0  0  0  0  0  0  0  0  0  0  0
    3.4352    6.2147    2.4542 C   0  0  0  0  0  0  0  0  0  0  0  0
    7.0784    6.8573    2.6607 C   0  0  0  0  0  0  0  0  0  0  0  0
    7.9593    7.0973    3.7064 C   0  0  0  0  0  0  0  0  0  0  0  0
    9.3256    7.2826    3.5201 C   0  0  0  0  0  0  0  0  0  0  0  0
    9.9286    7.2626    2.2698 C   0  0  0  0  0  0  0  0  0  0  0  0
    9.0598    7.0233    1.1791 C   0  0  0  0  0  0  0  0  0  0  0  0
    7.6612    6.8119    1.3723 C   0  0  0  0  0  0  0  0  0  0  0  0
    9.2971    6.9284   -0.1376 N   0  0  0  0  0  0  0  0  0  0  0  0
    8.1291    6.6801   -0.6604 N   0  0  0  0  0  0  0  0  0  0  0  0
    7.1214    6.5994    0.1630 N   0  0  0  0  0  0  0  0  0  0  0  0
   11.3323    7.4784    2.0828 C   0  0  0  0  0  0  0  0  0  0  0  0
    7.9525    6.5503   -2.0786 C   0  0  0  0  0  0  0  0  0  0  0  0
    7.6538    7.9093   -2.7047 C   0  0  0  0  0  0  0  0  0  0  0  0
   12.0139    7.6455    0.8987 C   0  0  0  0  0  0  0  0  0  0  0  0
   13.3826    7.8601    1.0703 C   0  0  0  0  0  0  0  0  0  0  0  0
   13.7764    7.8463    2.3889 C   0  0  0  0  0  0  0  0  0  0  0  0
   12.4188    7.5765    3.4411 S   0  0  0  0  0  0  0  0  0  0  0  0
    2.8796   10.1003   11.5697 C   0  0  0  0  0  0  0  0  0  0  0  0
   -5.1531    3.3262    3.2892 C   0  0  0  0  0  0  0  0  0  0  0  0
   -6.5121    4.0199    3.4123 C   0  0  0  0  0  0  0  0  0  0  0  0
    2.1044    9.8173   12.8581 C   0  0  0  0  0  0  0  0  0  0  0  0
   -3.3446    5.0958    2.8288 C   0  0  0  0  0  0  0  0  0  0  0  0
   -3.6008    5.1846    1.1285 Cl  0  0  0  0  0  0  0  0  0  0  0  0
    4.8008    7.6424   10.6242 Cl  0  0  0  0  0  0  0  0  0  0  0  0
   17.6164    7.9135    5.5993 C   0  0  0  0  0  0  0  0  0  0  0  0
   16.8717    8.0754    4.4139 C   0  0  0  0  0  0  0  0  0  0  0  0
   17.5232    8.4547    3.2148 C   0  0  0  0  0  0  0  0  0  0  0  0
   18.8894    8.7009    3.1276 C   0  0  0  0  0  0  0  0  0  0  0  0
   19.6319    8.5494    4.3154 C   0  0  0  0  0  0  0  0  0  0  0  0
   18.9853    8.1417    5.5081 C   0  0  0  0  0  0  0  0  0  0  0  0
   15.4913    7.8364    4.2101 C   0  0  0  0  0  0  0  0  0  0  0  0
   15.0850    8.0145    2.9203 C   0  0  0  0  0  0  0  0  0  0  0  0
   16.4055    8.5060    1.8782 S   0  0  0  0  0  0  0  0  0  0  0  0
   21.0109    8.7944    4.5212 C   0  0  0  0  0  0  0  0  0  0  0  0
   21.4286    8.5584    5.7981 C   0  0  0  0  0  0  0  0  0  0  0  0
   20.1159    8.0261    6.8300 S   0  0  0  0  0  0  0  0  0  0  0  0
   17.0030    7.5406    6.8582 C   0  0  0  0  0  0  0  0  0  0  0  0
   19.5004    9.0675    1.8660 C   0  0  0  0  0  0  0  0  0  0  0  0
   18.9924    9.8843    0.8961 C   0  0  0  0  0  0  0  0  0  0  0  0
   19.8274    9.9675   -0.2379 C   0  0  0  0  0  0  0  0  0  0  0  0
   20.9686    9.2241   -0.1575 C   0  0  0  0  0  0  0  0  0  0  0  0
   21.0234    8.3905    1.3563 S   0  0  0  0  0  0  0  0  0  0  0  0
   17.4947    6.6989    7.8145 C   0  0  0  0  0  0  0  0  0  0  0  0
   15.5295    7.3772    8.8777 C   0  0  0  0  0  0  0  0  0  0  0  0
   15.4911    8.2350    7.3764 S   0  0  0  0  0  0  0  0  0  0  0  0
   22.7469    8.6801    6.3185 C   0  0  0  0  0  0  0  0  0  0  0  0
   24.0156    9.3900    5.3643 S   0  0  0  0  0  0  0  0  0  0  0  0
   25.1766    9.1267    6.6361 C   0  0  0  0  0  0  0  0  0  0  0  0
   24.5847    8.5203    7.7205 C   0  0  0  0  0  0  0  0  0  0  0  0
   23.2206    8.2785    7.5466 C   0  0  0  0  0  0  0  0  0  0  0  0
   26.5442    9.5259    6.4844 C   0  0  0  0  0  0  0  0  0  0  0  0
   26.9844   10.3097    5.4267 C   0  0  0  0  0  0  0  0  0  0  0  0
   28.3085   10.7107    5.2795 C   0  0  0  0  0  0  0  0  0  0  0  0
   29.3134   10.3448    6.1646 C   0  0  0  0  0  0  0  0  0  0  0  0
   28.9035    9.5327    7.2481 C   0  0  0  0  0  0  0  0  0  0  0  0
   27.5400    9.1427    7.4133 C   0  0  0  0  0  0  0  0  0  0  0  0
   29.5944    9.0008    8.2672 N   0  0  0  0  0  0  0  0  0  0  0  0
   28.7004    8.3550    8.9627 N   0  0  0  0  0  0  0  0  0  0  0  0
   27.4732    8.3944    8.5243 N   0  0  0  0  0  0  0  0  0  0  0  0
   30.6758   10.7566    6.0018 C   0  0  0  0  0  0  0  0  0  0  0  0
   29.0430    7.6713   10.1770 C   0  0  0  0  0  0  0  0  0  0  0  0
   28.9815    8.6283   11.3638 C   0  0  0  0  0  0  0  0  0  0  0  0
   31.7805   10.3356    6.7067 C   0  0  0  0  0  0  0  0  0  0  0  0
   32.9704   10.9311    6.2837 C   0  0  0  0  0  0  0  0  0  0  0  0
   32.7962   11.8303    5.2565 C   0  0  0  0  0  0  0  0  0  0  0  0
   31.1232   11.9292    4.7935 S   0  0  0  0  0  0  0  0  0  0  0  0
   22.0351    9.0413   -1.1799 C   0  0  0  0  0  0  0  0  0  0  0  0
   14.4115    7.4884    9.8542 C   0  0  0  0  0  0  0  0  0  0  0  0
   13.2183    6.6324    9.4225 C   0  0  0  0  0  0  0  0  0  0  0  0
   21.7551    7.8141   -2.0509 C   0  0  0  0  0  0  0  0  0  0  0  0
   16.6517    6.6042    8.9422 C   0  0  0  0  0  0  0  0  0  0  0  0
   17.0253    5.5963   10.2875 Cl  0  0  0  0  0  0  0  0  0  0  0  0
   19.4331   10.9383   -1.6043 Cl  0  0  0  0  0  0  0  0  0  0  0  0
   34.8984   15.3050    2.3293 C   0  0  0  0  0  0  0  0  0  0  0  0
   34.7603   14.2558    3.2600 C   0  0  0  0  0  0  0  0  0  0  0  0
   35.9103   13.6735    3.8485 C   0  0  0  0  0  0  0  0  0  0  0  0
   37.2079   14.0585    3.5351 C   0  0  0  0  0  0  0  0  0  0  0  0
   37.3471   15.1169    2.6150 C   0  0  0  0  0  0  0  0  0  0  0  0
   36.1977   15.7041    2.0326 C   0  0  0  0  0  0  0  0  0  0  0  0
   33.5708   13.6280    3.7005 C   0  0  0  0  0  0  0  0  0  0  0  0
   33.7772   12.6303    4.6078 C   0  0  0  0  0  0  0  0  0  0  0  0
   35.4788   12.3985    4.9556 S   0  0  0  0  0  0  0  0  0  0  0  0
   38.5380   15.7645    2.2053 C   0  0  0  0  0  0  0  0  0  0  0  0
   38.3331   16.7960    1.3363 C   0  0  0  0  0  0  0  0  0  0  0  0
   36.6323   17.0172    0.9715 S   0  0  0  0  0  0  0  0  0  0  0  0
   33.7609   15.9702    1.7268 C   0  0  0  0  0  0  0  0  0  0  0  0
   38.3713   13.4049    4.1000 C   0  0  0  0  0  0  0  0  0  0  0  0
   39.5195   13.0408    3.4561 C   0  0  0  0  0  0  0  0  0  0  0  0
   40.4460   12.4111    4.3138 C   0  0  0  0  0  0  0  0  0  0  0  0
   40.0312   12.2992    5.6088 C   0  0  0  0  0  0  0  0  0  0  0  0
   38.4452   12.9671    5.7834 S   0  0  0  0  0  0  0  0  0  0  0  0
   33.6459   16.4403    0.4494 C   0  0  0  0  0  0  0  0  0  0  0  0
   31.5924   17.1522    1.3027 C   0  0  0  0  0  0  0  0  0  0  0  0
   32.3370   16.3656    2.6509 S   0  0  0  0  0  0  0  0  0  0  0  0
   39.3051   17.6433    0.7364 C   0  0  0  0  0  0  0  0  0  0  0  0
   41.0036   17.3974    1.0210 S   0  0  0  0  0  0  0  0  0  0  0  0
   41.4134   18.7461   -0.0027 C   0  0  0  0  0  0  0  0  0  0  0  0
   40.2788   19.3307   -0.5177 C   0  0  0  0  0  0  0  0  0  0  0  0
   39.0974   18.7121   -0.1053 C   0  0  0  0  0  0  0  0  0  0  0  0
   42.7778   19.1230   -0.2264 C   0  0  0  0  0  0  0  0  0  0  0  0
   43.8488   18.4403    0.3321 C   0  0  0  0  0  0  0  0  0  0  0  0
   45.1762   18.7988    0.1118 C   0  0  0  0  0  0  0  0  0  0  0  0
   45.5488   19.8713   -0.6846 C   0  0  0  0  0  0  0  0  0  0  0  0
   44.4817   20.5947   -1.2668 C   0  0  0  0  0  0  0  0  0  0  0  0
   43.1204   20.2268   -1.0426 C   0  0  0  0  0  0  0  0  0  0  0  0
   44.4746   21.6668   -2.0736 N   0  0  0  0  0  0  0  0  0  0  0  0
   43.2112   21.8965   -2.2967 N   0  0  0  0  0  0  0  0  0  0  0  0
   42.3575   21.0939   -1.7245 N   0  0  0  0  0  0  0  0  0  0  0  0
   46.9197   20.2328   -0.9118 C   0  0  0  0  0  0  0  0  0  0  0  0
   42.7774   23.0102   -3.0910 C   0  0  0  0  0  0  0  0  0  0  0  0
   42.5682   24.2404   -2.2129 C   0  0  0  0  0  0  0  0  0  0  0  0
   47.4102   21.2600   -1.6770 C   0  0  0  0  0  0  0  0  0  0  0  0
   48.8150   21.3257   -1.6825 C   0  0  0  0  0  0  0  0  0  0  0  0
   49.3897   20.3539   -0.9250 C   0  0  0  0  0  0  0  0  0  0  0  0
   48.2254   19.3329   -0.1858 S   0  0  0  0  0  0  0  0  0  0  0  0
   40.7260   11.6508    6.7547 C   0  0  0  0  0  0  0  0  0  0  0  0
   30.2600   17.8037    1.4301 C   0  0  0  0  0  0  0  0  0  0  0  0
   30.3854   19.1945    2.0567 C   0  0  0  0  0  0  0  0  0  0  0  0
   40.3106   10.1830    6.8826 C   0  0  0  0  0  0  0  0  0  0  0  0
   32.4211   17.1020    0.2202 C   0  0  0  0  0  0  0  0  0  0  0  0
   32.0134   17.7802   -1.3092 Cl  0  0  0  0  0  0  0  0  0  0  0  0
   41.9748   11.8402    3.7620 Cl  0  0  0  0  0  0  0  0  0  0  0  0
   -4.0649    6.2818    7.0969 H   0  0  0  0  0  0  0  0  0  0  0  0
   -4.1223    7.1642    9.5383 H   0  0  0  0  0  0  0  0  0  0  0  0
    2.9777    7.4188    6.4424 H   0  0  0  0  0  0  0  0  0  0  0  0
    3.0013    6.4255    8.5940 H   0  0  0  0  0  0  0  0  0  0  0  0
   -1.7640    6.6047    2.9848 H   0  0  0  0  0  0  0  0  0  0  0  0
    4.9836    6.1021    0.9062 H   0  0  0  0  0  0  0  0  0  0  0  0
    2.5667    5.9357    1.8837 H   0  0  0  0  0  0  0  0  0  0  0  0
    7.5641    7.1402    4.7112 H   0  0  0  0  0  0  0  0  0  0  0  0
    9.9466    7.4596    4.3865 H   0  0  0  0  0  0  0  0  0  0  0  0
    7.1220    5.8618   -2.2455 H   0  0  0  0  0  0  0  0  0  0  0  0
    8.8746    6.1339   -2.4883 H   0  0  0  0  0  0  0  0  0  0  0  0
    6.7466    8.3281   -2.2759 H   0  0  0  0  0  0  0  0  0  0  0  0
    7.5176    7.8003   -3.7768 H   0  0  0  0  0  0  0  0  0  0  0  0
    8.4774    8.5954   -2.5232 H   0  0  0  0  0  0  0  0  0  0  0  0
   11.5166    7.6117   -0.0528 H   0  0  0  0  0  0  0  0  0  0  0  0
   14.0778    8.0164    0.2641 H   0  0  0  0  0  0  0  0  0  0  0  0
    2.6534   11.1131   11.2285 H   0  0  0  0  0  0  0  0  0  0  0  0
    3.9521   10.0306   11.7605 H   0  0  0  0  0  0  0  0  0  0  0  0
   -5.1267    2.4580    3.9504 H   0  0  0  0  0  0  0  0  0  0  0  0
   -5.0099    2.9863    2.2614 H   0  0  0  0  0  0  0  0  0  0  0  0
   -6.6734    4.3565    4.4339 H   0  0  0  0  0  0  0  0  0  0  0  0
   -7.3094    3.3329    3.1413 H   0  0  0  0  0  0  0  0  0  0  0  0
   -6.5555    4.8823    2.7515 H   0  0  0  0  0  0  0  0  0  0  0  0
    1.0343    9.8864   12.6760 H   0  0  0  0  0  0  0  0  0  0  0  0
    2.3763   10.5378   13.6251 H   0  0  0  0  0  0  0  0  0  0  0  0
    2.3301    8.8180   13.2228 H   0  0  0  0  0  0  0  0  0  0  0  0
   14.8133    7.5188    4.9806 H   0  0  0  0  0  0  0  0  0  0  0  0
   21.6830    9.1402    3.7575 H   0  0  0  0  0  0  0  0  0  0  0  0
   18.0759   10.4361    0.9909 H   0  0  0  0  0  0  0  0  0  0  0  0
   18.4031    6.1351    7.7130 H   0  0  0  0  0  0  0  0  0  0  0  0
   25.1407    8.2684    8.6044 H   0  0  0  0  0  0  0  0  0  0  0  0
   22.5877    7.8170    8.2842 H   0  0  0  0  0  0  0  0  0  0  0  0
   26.2622   10.6281    4.6886 H   0  0  0  0  0  0  0  0  0  0  0  0
   28.5701   11.3312    4.4344 H   0  0  0  0  0  0  0  0  0  0  0  0
   30.0533    7.2744   10.0597 H   0  0  0  0  0  0  0  0  0  0  0  0
   28.3305    6.8543   10.3045 H   0  0  0  0  0  0  0  0  0  0  0  0
   29.6768    9.4512   11.2172 H   0  0  0  0  0  0  0  0  0  0  0  0
   29.2467    8.1023   12.2764 H   0  0  0  0  0  0  0  0  0  0  0  0
   27.9773    9.0313   11.4700 H   0  0  0  0  0  0  0  0  0  0  0  0
   31.7073    9.6156    7.5005 H   0  0  0  0  0  0  0  0  0  0  0  0
   33.9365   10.7273    6.7112 H   0  0  0  0  0  0  0  0  0  0  0  0
   22.9998    8.9215   -0.6830 H   0  0  0  0  0  0  0  0  0  0  0  0
   22.0749    9.9333   -1.8087 H   0  0  0  0  0  0  0  0  0  0  0  0
   14.0976    8.5315    9.9334 H   0  0  0  0  0  0  0  0  0  0  0  0
   14.7671    7.1571   10.8318 H   0  0  0  0  0  0  0  0  0  0  0  0
   12.8540    6.9563    8.4501 H   0  0  0  0  0  0  0  0  0  0  0  0
   12.4115    6.7223   10.1451 H   0  0  0  0  0  0  0  0  0  0  0  0
   13.5095    5.5870    9.3537 H   0  0  0  0  0  0  0  0  0  0  0  0
   21.7167    6.9168   -1.4375 H   0  0  0  0  0  0  0  0  0  0  0  0
   22.5388    7.6956   -2.7945 H   0  0  0  0  0  0  0  0  0  0  0  0
   20.8024    7.9254   -2.5630 H   0  0  0  0  0  0  0  0  0  0  0  0
   32.5864   13.8930    3.3611 H   0  0  0  0  0  0  0  0  0  0  0  0
   39.5165   15.5028    2.5642 H   0  0  0  0  0  0  0  0  0  0  0  0
   39.6872   13.1737    2.4033 H   0  0  0  0  0  0  0  0  0  0  0  0
   34.3854   16.2961   -0.3159 H   0  0  0  0  0  0  0  0  0  0  0  0
   40.3259   20.1802   -1.1733 H   0  0  0  0  0  0  0  0  0  0  0  0
   38.1124   19.0256   -0.4041 H   0  0  0  0  0  0  0  0  0  0  0  0
   43.6420   17.5896    0.9656 H   0  0  0  0  0  0  0  0  0  0  0  0
   45.9529   18.2131    0.5823 H   0  0  0  0  0  0  0  0  0  0  0  0
   41.8428   22.7243   -3.5773 H   0  0  0  0  0  0  0  0  0  0  0  0
   43.5483   23.2004   -3.8401 H   0  0  0  0  0  0  0  0  0  0  0  0
   41.8123   24.0375   -1.4581 H   0  0  0  0  0  0  0  0  0  0  0  0
   42.2407   25.0782   -2.8217 H   0  0  0  0  0  0  0  0  0  0  0  0
   43.4974   24.5089   -1.7160 H   0  0  0  0  0  0  0  0  0  0  0  0
   46.7664   21.9339   -2.2106 H   0  0  0  0  0  0  0  0  0  0  0  0
   49.3769   22.0641   -2.2265 H   0  0  0  0  0  0  0  0  0  0  0  0
   50.4316   20.1700   -0.7520 H   0  0  0  0  0  0  0  0  0  0  0  0
   40.4793   12.1798    7.6770 H   0  0  0  0  0  0  0  0  0  0  0  0
   41.8044   11.7129    6.5944 H   0  0  0  0  0  0  0  0  0  0  0  0
   29.6093   17.1846    2.0511 H   0  0  0  0  0  0  0  0  0  0  0  0
   29.8157   17.8885    0.4363 H   0  0  0  0  0  0  0  0  0  0  0  0
   30.8227   19.1225    3.0500 H   0  0  0  0  0  0  0  0  0  0  0  0
   29.4059   19.6582    2.1391 H   0  0  0  0  0  0  0  0  0  0  0  0
   31.0208   19.8285    1.4429 H   0  0  0  0  0  0  0  0  0  0  0  0
   39.2371   10.1081    7.0406 H   0  0  0  0  0  0  0  0  0  0  0  0
   40.8216    9.7201    7.7228 H   0  0  0  0  0  0  0  0  0  0  0  0
   40.5665    9.6393    5.9764 H   0  0  0  0  0  0  0  0  0  0  0  0
  1  2  1  0  0  0  0
  2  7  1  0  0  0  0
  2  3  2  0  0  0  0
  3  9  1  0  0  0  0
  4  3  1  0  0  0  0
  4 14  1  0  0  0  0
  5  4  2  0  0  0  0
  6  1  2  0  0  0  0
  6  5  1  0  0  0  0
  7  8  2  0  0  0  0
  8  9  1  0  0  0  0
  8149  1  0  0  0  0
 10150  1  0  0  0  0
 10  5  1  0  0  0  0
 11 10  2  0  0  0  0
 12 11  1  0  0  0  0
 12  6  1  0  0  0  0
 13 21  1  0  0  0  0
 13  1  1  0  0  0  0
 14 15  2  0  0  0  0
 14 18  1  0  0  0  0
 15 16  1  0  0  0  0
 16 17  2  0  0  0  0
 16 49  1  0  0  0  0
 17 43  1  0  0  0  0
 18 17  1  0  0  0  0
 19 13  2  0  0  0  0
 20 21  1  0  0  0  0
 22 23  1  0  0  0  0
 22 11  1  0  0  0  0
 24 23  1  0  0  0  0
 25 26  1  0  0  0  0
 25 24  2  0  0  0  0
 26 22  2  0  0  0  0
 27 24  1  0  0  0  0
 27 28  2  0  0  0  0
 28155  1  0  0  0  0
 29 28  1  0  0  0  0
 29156  1  0  0  0  0
 30 29  2  0  0  0  0
 31 32  1  0  0  0  0
 31 30  1  0  0  0  0
 32 27  1  0  0  0  0
 33 31  2  0  0  0  0
 34 33  1  0  0  0  0
 34 35  1  0  0  0  0
 35 32  2  0  0  0  0
 36 30  1  0  0  0  0
 36 42  1  0  0  0  0
 37 34  1  0  0  0  0
 38161  1  0  0  0  0
 38159  1  0  0  0  0
 38 37  1  0  0  0  0
 39 40  1  0  0  0  0
 39 36  2  0  0  0  0
 40 41  2  0  0  0  0
 41 57  1  0  0  0  0
 41 42  1  0  0  0  0
 43165  1  0  0  0  0
 43 46  1  0  0  0  0
 44 45  1  0  0  0  0
 44 20  1  0  0  0  0
 44166  1  0  0  0  0
 45168  1  0  0  0  0
 46173  1  0  0  0  0
 46172  1  0  0  0  0
 47 19  1  0  0  0  0
 47 20  2  0  0  0  0
 48 47  1  0  0  0  0
 50 62  1  0  0  0  0
 51 50  2  0  0  0  0
 52 51  1  0  0  0  0
 53 52  2  0  0  0  0
 53 54  1  0  0  0  0
 54 59  1  0  0  0  0
 54 55  2  0  0  0  0
 55 50  1  0  0  0  0
 55 61  1  0  0  0  0
 56 51  1  0  0  0  0
 56174  1  0  0  0  0
 57 56  2  0  0  0  0
 58 57  1  0  0  0  0
 58 52  1  0  0  0  0
 59 60  2  0  0  0  0
 60 71  1  0  0  0  0
 60 61  1  0  0  0  0
 62 70  1  0  0  0  0
 62 68  2  0  0  0  0
 63 53  1  0  0  0  0
 64176  1  0  0  0  0
 64 63  2  0  0  0  0
 65 66  2  0  0  0  0
 65 64  1  0  0  0  0
 66 67  1  0  0  0  0
 67 63  1  0  0  0  0
 68 96  1  0  0  0  0
 69 96  2  0  0  0  0
 69 93  1  0  0  0  0
 70 69  1  0  0  0  0
 71 75  2  0  0  0  0
 72 71  1  0  0  0  0
 72 73  1  0  0  0  0
 73 74  2  0  0  0  0
 74178  1  0  0  0  0
 75 74  1  0  0  0  0
 75179  1  0  0  0  0
 76 73  1  0  0  0  0
 76 81  1  0  0  0  0
 77 76  2  0  0  0  0
 78 77  1  0  0  0  0
 78 79  2  0  0  0  0
 79 80  1  0  0  0  0
 80 81  1  0  0  0  0
 80 82  2  0  0  0  0
 81 84  2  0  0  0  0
 82 83  1  0  0  0  0
 83 86  1  0  0  0  0
 84 83  1  0  0  0  0
 85 79  1  0  0  0  0
 85 88  2  0  0  0  0
 86183  1  0  0  0  0
 86 87  1  0  0  0  0
 87186  1  0  0  0  0
 87185  1  0  0  0  0
 88187  1  0  0  0  0
 89 88  1  0  0  0  0
 89188  1  0  0  0  0
 90 89  2  0  0  0  0
 91 90  1  0  0  0  0
 91 85  1  0  0  0  0
 92189  1  0  0  0  0
 92 66  1  0  0  0  0
 93191  1  0  0  0  0
 93192  1  0  0  0  0
 94 93  1  0  0  0  0
 94194  1  0  0  0  0
 95196  1  0  0  0  0
 95 92  1  0  0  0  0
 96 97  1  0  0  0  0
 98 65  1  0  0  0  0
 99100  1  0  0  0  0
100105  1  0  0  0  0
100101  2  0  0  0  0
101107  1  0  0  0  0
102101  1  0  0  0  0
102112  1  0  0  0  0
103102  2  0  0  0  0
104 99  2  0  0  0  0
104103  1  0  0  0  0
105106  2  0  0  0  0
106107  1  0  0  0  0
106 90  1  0  0  0  0
108200  1  0  0  0  0
108103  1  0  0  0  0
109108  2  0  0  0  0
110109  1  0  0  0  0
110104  1  0  0  0  0
111 99  1  0  0  0  0
111119  1  0  0  0  0
112116  1  0  0  0  0
113112  2  0  0  0  0
113114  1  0  0  0  0
114115  2  0  0  0  0
115116  1  0  0  0  0
115141  1  0  0  0  0
117111  2  0  0  0  0
118142  1  0  0  0  0
118119  1  0  0  0  0
120121  1  0  0  0  0
120109  1  0  0  0  0
122121  1  0  0  0  0
123124  1  0  0  0  0
123122  2  0  0  0  0
124120  2  0  0  0  0
125122  1  0  0  0  0
125126  2  0  0  0  0
126205  1  0  0  0  0
127126  1  0  0  0  0
127206  1  0  0  0  0
128127  2  0  0  0  0
129130  1  0  0  0  0
129128  1  0  0  0  0
130125  1  0  0  0  0
131129  2  0  0  0  0
132131  1  0  0  0  0
132133  1  0  0  0  0
133130  2  0  0  0  0
134128  1  0  0  0  0
134140  1  0  0  0  0
135132  1  0  0  0  0
135136  1  0  0  0  0
136211  1  0  0  0  0
136209  1  0  0  0  0
137134  2  0  0  0  0
138137  1  0  0  0  0
138139  2  0  0  0  0
139214  1  0  0  0  0
139140  1  0  0  0  0
141144  1  0  0  0  0
141215  1  0  0  0  0
142217  1  0  0  0  0
142143  1  0  0  0  0
143220  1  0  0  0  0
143219  1  0  0  0  0
144222  1  0  0  0  0
144223  1  0  0  0  0
145117  1  0  0  0  0
145118  2  0  0  0  0
146145  1  0  0  0  0
147114  1  0  0  0  0
148  7  1  0  0  0  0
151 15  1  0  0  0  0
152 19  1  0  0  0  0
153 25  1  0  0  0  0
154 26  1  0  0  0  0
157 37  1  0  0  0  0
158 37  1  0  0  0  0
160 38  1  0  0  0  0
162 39  1  0  0  0  0
163 40  1  0  0  0  0
164 43  1  0  0  0  0
167 44  1  0  0  0  0
169 45  1  0  0  0  0
170 45  1  0  0  0  0
171 46  1  0  0  0  0
175 59  1  0  0  0  0
177 68  1  0  0  0  0
180 77  1  0  0  0  0
181 78  1  0  0  0  0
182 86  1  0  0  0  0
184 87  1  0  0  0  0
190 92  1  0  0  0  0
193 94  1  0  0  0  0
195 94  1  0  0  0  0
197 95  1  0  0  0  0
198 95  1  0  0  0  0
199105  1  0  0  0  0
201113  1  0  0  0  0
202117  1  0  0  0  0
203123  1  0  0  0  0
204124  1  0  0  0  0
207135  1  0  0  0  0
208135  1  0  0  0  0
210136  1  0  0  0  0
212137  1  0  0  0  0
213138  1  0  0  0  0
216141  1  0  0  0  0
218142  1  0  0  0  0
221143  1  0  0  0  0
224144  1  0  0  0  0
M  END
