SCF done       -439.017198327067          0.000905118399
 OpenBabel12282109573D

248274  0  0  0  0  0  0  0  0999 V2000
   -0.7924    6.8178    6.7465 C   0  0  0  0  0  0  0  0  0  0  0  0
   -0.9888    7.4882    7.9674 C   0  0  0  0  0  0  0  0  0  0  0  0
    0.1150    8.0318    8.6656 C   0  0  0  0  0  0  0  0  0  0  0  0
    1.4282    7.9327    8.2151 C   0  0  0  0  0  0  0  0  0  0  0  0
    1.6203    7.2969    6.9735 C   0  0  0  0  0  0  0  0  0  0  0  0
    0.5150    6.7520    6.2760 C   0  0  0  0  0  0  0  0  0  0  0  0
   -2.2144    7.7336    8.6541 C   0  0  0  0  0  0  0  0  0  0  0  0
   -2.0438    8.3991    9.8138 C   0  0  0  0  0  0  0  0  0  0  0  0
   -0.3927    8.7818   10.1549 S   0  0  0  0  0  0  0  0  0  0  0  0
    2.8335    7.1032    6.2694 C   0  0  0  0  0  0  0  0  0  0  0  0
    2.6933    6.3981    5.1106 C   0  0  0  0  0  0  0  0  0  0  0  0
    1.0234    5.9624    4.8063 S   0  0  0  0  0  0  0  0  0  0  0  0
   -1.8764    6.2051    6.0023 C   0  0  0  0  0  0  0  0  0  0  0  0
    2.5574    8.4284    8.9759 C   0  0  0  0  0  0  0  0  0  0  0  0
    3.7770    7.8358    9.1457 C   0  0  0  0  0  0  0  0  0  0  0  0
    4.6505    8.6101    9.9376 C   0  0  0  0  0  0  0  0  0  0  0  0
    4.1229    9.7901   10.3744 C   0  0  0  0  0  0  0  0  0  0  0  0
    2.4962    9.9557    9.8099 S   0  0  0  0  0  0  0  0  0  0  0  0
   -2.0627    6.2064    4.6498 C   0  0  0  0  0  0  0  0  0  0  0  0
   -3.8709    4.8727    5.2836 C   0  0  0  0  0  0  0  0  0  0  0  0
   -3.1104    5.2596    6.7879 S   0  0  0  0  0  0  0  0  0  0  0  0
    3.7289    6.0003    4.2202 C   0  0  0  0  0  0  0  0  0  0  0  0
    5.3809    6.4326    4.5489 S   0  0  0  0  0  0  0  0  0  0  0  0
    5.9282    5.5672    3.1420 C   0  0  0  0  0  0  0  0  0  0  0  0
    4.8668    4.9909    2.4770 C   0  0  0  0  0  0  0  0  0  0  0  0
    3.6324    5.2359    3.0795 C   0  0  0  0  0  0  0  0  0  0  0  0
    7.3341    5.5244    2.8615 C   0  0  0  0  0  0  0  0  0  0  0  0
    7.9279    4.8860    1.7716 C   0  0  0  0  0  0  0  0  0  0  0  0
    9.3343    4.8227    1.5919 C   0  0  0  0  0  0  0  0  0  0  0  0
   10.2365    5.4625    2.4441 C   0  0  0  0  0  0  0  0  0  0  0  0
    9.6419    6.1536    3.5233 C   0  0  0  0  0  0  0  0  0  0  0  0
    8.2397    6.1623    3.7376 C   0  0  0  0  0  0  0  0  0  0  0  0
   10.2013    6.8636    4.5119 N   0  0  0  0  0  0  0  0  0  0  0  0
    9.1938    7.2532    5.2431 N   0  0  0  0  0  0  0  0  0  0  0  0
    8.0100    6.8758    4.8477 N   0  0  0  0  0  0  0  0  0  0  0  0
   11.6646    5.4396    2.3143 C   0  0  0  0  0  0  0  0  0  0  0  0
    9.3785    8.0283    6.4364 C   0  0  0  0  0  0  0  0  0  0  0  0
    9.9654    7.1656    7.5481 C   0  0  0  0  0  0  0  0  0  0  0  0
   12.4604    4.8896    1.3317 C   0  0  0  0  0  0  0  0  0  0  0  0
   13.8259    5.0545    1.5634 C   0  0  0  0  0  0  0  0  0  0  0  0
   14.1003    5.7417    2.7245 C   0  0  0  0  0  0  0  0  0  0  0  0
   12.6364    6.1932    3.5470 S   0  0  0  0  0  0  0  0  0  0  0  0
    4.7352   10.8112   11.2681 C   0  0  0  0  0  0  0  0  0  0  0  0
   -5.1209    4.0656    5.2323 C   0  0  0  0  0  0  0  0  0  0  0  0
   -6.3543    4.9561    5.4025 C   0  0  0  0  0  0  0  0  0  0  0  0
    4.3300   10.5710   12.7247 C   0  0  0  0  0  0  0  0  0  0  0  0
   -3.1956    5.4632    4.2558 C   0  0  0  0  0  0  0  0  0  0  0  0
   -3.6736    5.3125    2.6086 Cl  0  0  0  0  0  0  0  0  0  0  0  0
    6.2555    8.1021   10.3033 Cl  0  0  0  0  0  0  0  0  0  0  0  0
    7.1251    4.2478    0.8467 O   0  0  0  0  0  0  0  0  0  0  0  0
    7.0858    4.8640   -0.4297 C   0  0  0  0  0  0  0  0  0  0  0  0
    9.8166    4.1143    0.5086 O   0  0  0  0  0  0  0  0  0  0  0  0
    9.6687    2.7076    0.6082 C   0  0  0  0  0  0  0  0  0  0  0  0
   17.5770    7.8514    5.6387 C   0  0  0  0  0  0  0  0  0  0  0  0
   16.9893    7.0830    4.6134 C   0  0  0  0  0  0  0  0  0  0  0  0
   17.8080    6.4101    3.6726 C   0  0  0  0  0  0  0  0  0  0  0  0
   19.1959    6.4493    3.7031 C   0  0  0  0  0  0  0  0  0  0  0  0
   19.7848    7.1793    4.7549 C   0  0  0  0  0  0  0  0  0  0  0  0
   18.9675    7.8727    5.6808 C   0  0  0  0  0  0  0  0  0  0  0  0
   15.6146    6.8653    4.3587 C   0  0  0  0  0  0  0  0  0  0  0  0
   15.3697    6.1056    3.2523 C   0  0  0  0  0  0  0  0  0  0  0  0
   16.8497    5.5887    2.4702 S   0  0  0  0  0  0  0  0  0  0  0  0
   21.1624    7.3385    5.0409 C   0  0  0  0  0  0  0  0  0  0  0  0
   21.4137    8.1619    6.1004 C   0  0  0  0  0  0  0  0  0  0  0  0
   19.9361    8.7654    6.8219 S   0  0  0  0  0  0  0  0  0  0  0  0
   16.7869    8.5937    6.6002 C   0  0  0  0  0  0  0  0  0  0  0  0
   20.0124    5.8014    2.6953 C   0  0  0  0  0  0  0  0  0  0  0  0
   21.1149    6.3004    2.0629 C   0  0  0  0  0  0  0  0  0  0  0  0
   21.6649    5.3916    1.1339 C   0  0  0  0  0  0  0  0  0  0  0  0
   21.0086    4.1982    1.0544 C   0  0  0  0  0  0  0  0  0  0  0  0
   19.6578    4.1915    2.1351 S   0  0  0  0  0  0  0  0  0  0  0  0
   17.0358    8.7720    7.9314 C   0  0  0  0  0  0  0  0  0  0  0  0
   15.0792   10.0311    7.7393 C   0  0  0  0  0  0  0  0  0  0  0  0
   15.3460    9.4534    6.1308 S   0  0  0  0  0  0  0  0  0  0  0  0
   22.6813    8.5451    6.6271 C   0  0  0  0  0  0  0  0  0  0  0  0
   22.8438    9.9235    7.6718 S   0  0  0  0  0  0  0  0  0  0  0  0
   24.5564    9.6767    7.7928 C   0  0  0  0  0  0  0  0  0  0  0  0
   24.9539    8.5814    7.0547 C   0  0  0  0  0  0  0  0  0  0  0  0
   23.9028    7.9487    6.3938 C   0  0  0  0  0  0  0  0  0  0  0  0
   25.3923   10.5492    8.5570 C   0  0  0  0  0  0  0  0  0  0  0  0
   24.8948   11.6765    9.2130 C   0  0  0  0  0  0  0  0  0  0  0  0
   25.7172   12.6052    9.8970 C   0  0  0  0  0  0  0  0  0  0  0  0
   27.0888   12.4001   10.0540 C   0  0  0  0  0  0  0  0  0  0  0  0
   27.5879   11.2207    9.4559 C   0  0  0  0  0  0  0  0  0  0  0  0
   26.7818   10.3326    8.6935 C   0  0  0  0  0  0  0  0  0  0  0  0
   28.8396   10.7486    9.4310 N   0  0  0  0  0  0  0  0  0  0  0  0
   28.7660    9.6686    8.7052 N   0  0  0  0  0  0  0  0  0  0  0  0
   27.5876    9.3614    8.2363 N   0  0  0  0  0  0  0  0  0  0  0  0
   28.0006   13.2964   10.7049 C   0  0  0  0  0  0  0  0  0  0  0  0
   29.9245    8.8646    8.4347 C   0  0  0  0  0  0  0  0  0  0  0  0
   31.0194    9.7085    7.7942 C   0  0  0  0  0  0  0  0  0  0  0  0
   27.7777   14.5052   11.3300 C   0  0  0  0  0  0  0  0  0  0  0  0
   28.9428   15.1178   11.7950 C   0  0  0  0  0  0  0  0  0  0  0  0
   30.0774   14.3791   11.5488 C   0  0  0  0  0  0  0  0  0  0  0  0
   29.6946   12.8988   10.7200 S   0  0  0  0  0  0  0  0  0  0  0  0
   21.2871    3.0426    0.1580 C   0  0  0  0  0  0  0  0  0  0  0  0
   13.8705   10.8357    8.0682 C   0  0  0  0  0  0  0  0  0  0  0  0
   12.6166    9.9579    8.0631 C   0  0  0  0  0  0  0  0  0  0  0  0
   20.4826    3.1531   -1.1396 C   0  0  0  0  0  0  0  0  0  0  0  0
   16.0624    9.5729    8.5660 C   0  0  0  0  0  0  0  0  0  0  0  0
   16.1243    9.9335   10.2493 Cl  0  0  0  0  0  0  0  0  0  0  0  0
   23.0568    5.7656    0.1894 Cl  0  0  0  0  0  0  0  0  0  0  0  0
   23.5382   11.9059    9.1115 O   0  0  0  0  0  0  0  0  0  0  0  0
   22.8134   11.8721   10.3300 C   0  0  0  0  0  0  0  0  0  0  0  0
   25.1371   13.7350   10.4375 O   0  0  0  0  0  0  0  0  0  0  0  0
   24.6492   14.6662    9.4846 C   0  0  0  0  0  0  0  0  0  0  0  0
   35.0049   13.7824   12.0857 C   0  0  0  0  0  0  0  0  0  0  0  0
   33.7383   14.4010   12.0727 C   0  0  0  0  0  0  0  0  0  0  0  0
   33.5977   15.7475   12.4905 C   0  0  0  0  0  0  0  0  0  0  0  0
   34.6649   16.5288   12.9205 C   0  0  0  0  0  0  0  0  0  0  0  0
   35.9355   15.9179   12.9140 C   0  0  0  0  0  0  0  0  0  0  0  0
   36.0713   14.5651   12.5148 C   0  0  0  0  0  0  0  0  0  0  0  0
   32.4931   13.8273   11.7280 C   0  0  0  0  0  0  0  0  0  0  0  0
   31.4333   14.6758   11.8595 C   0  0  0  0  0  0  0  0  0  0  0  0
   31.9281   16.2536   12.4373 S   0  0  0  0  0  0  0  0  0  0  0  0
   37.1871   16.5030   13.2218 C   0  0  0  0  0  0  0  0  0  0  0  0
   38.2442   15.6505   13.0932 C   0  0  0  0  0  0  0  0  0  0  0  0
   37.7370   14.0553   12.5733 S   0  0  0  0  0  0  0  0  0  0  0  0
   35.2020   12.4072   11.6734 C   0  0  0  0  0  0  0  0  0  0  0  0
   34.4668   17.8954   13.3595 C   0  0  0  0  0  0  0  0  0  0  0  0
   33.6264   18.8345   12.8339 C   0  0  0  0  0  0  0  0  0  0  0  0
   33.6658   20.0568   13.5389 C   0  0  0  0  0  0  0  0  0  0  0  0
   34.5083   20.0661   14.6115 C   0  0  0  0  0  0  0  0  0  0  0  0
   35.2910   18.5298   14.7574 S   0  0  0  0  0  0  0  0  0  0  0  0
   36.0516   11.4857   12.2174 C   0  0  0  0  0  0  0  0  0  0  0  0
   35.1612   10.2018   10.4835 C   0  0  0  0  0  0  0  0  0  0  0  0
   34.3696   11.7277   10.3012 S   0  0  0  0  0  0  0  0  0  0  0  0
   39.6164   15.9262   13.3399 C   0  0  0  0  0  0  0  0  0  0  0  0
   40.1389   17.5181   13.8091 S   0  0  0  0  0  0  0  0  0  0  0  0
   41.7864   16.9820   13.9196 C   0  0  0  0  0  0  0  0  0  0  0  0
   41.8982   15.6470   13.5948 C   0  0  0  0  0  0  0  0  0  0  0  0
   40.6798   15.0537   13.2678 C   0  0  0  0  0  0  0  0  0  0  0  0
   42.8403   17.8655   14.3142 C   0  0  0  0  0  0  0  0  0  0  0  0
   42.6177   19.2066   14.6256 C   0  0  0  0  0  0  0  0  0  0  0  0
   43.6562   20.1007   14.9860 C   0  0  0  0  0  0  0  0  0  0  0  0
   44.9780   19.6838   15.1306 C   0  0  0  0  0  0  0  0  0  0  0  0
   45.2103   18.3206   14.8425 C   0  0  0  0  0  0  0  0  0  0  0  0
   44.1809   17.4325   14.4235 C   0  0  0  0  0  0  0  0  0  0  0  0
   46.3537   17.6245   14.8716 N   0  0  0  0  0  0  0  0  0  0  0  0
   46.0121   16.4246   14.4966 N   0  0  0  0  0  0  0  0  0  0  0  0
   44.7517   16.2364   14.2155 N   0  0  0  0  0  0  0  0  0  0  0  0
   46.0717   20.5369   15.5115 C   0  0  0  0  0  0  0  0  0  0  0  0
   46.9800   15.3734   14.3650 C   0  0  0  0  0  0  0  0  0  0  0  0
   47.9015   15.6481   13.1816 C   0  0  0  0  0  0  0  0  0  0  0  0
   46.0551   21.8118   16.0216 C   0  0  0  0  0  0  0  0  0  0  0  0
   47.3390   22.3273   16.2681 C   0  0  0  0  0  0  0  0  0  0  0  0
   48.3260   21.4477   15.9479 C   0  0  0  0  0  0  0  0  0  0  0  0
   47.7090   19.9631   15.3480 S   0  0  0  0  0  0  0  0  0  0  0  0
   34.8278   21.1782   15.5486 C   0  0  0  0  0  0  0  0  0  0  0  0
   34.8189    9.0476    9.6075 C   0  0  0  0  0  0  0  0  0  0  0  0
   33.6459    8.2564   10.1929 C   0  0  0  0  0  0  0  0  0  0  0  0
   36.2714   21.6529   15.3725 C   0  0  0  0  0  0  0  0  0  0  0  0
   36.0121   10.2441   11.5487 C   0  0  0  0  0  0  0  0  0  0  0  0
   36.9664    8.8979   12.0409 Cl  0  0  0  0  0  0  0  0  0  0  0  0
   32.7170   21.4159   13.0706 Cl  0  0  0  0  0  0  0  0  0  0  0  0
   41.3247   19.6715   14.5034 O   0  0  0  0  0  0  0  0  0  0  0  0
   40.7151   20.1474   15.6916 C   0  0  0  0  0  0  0  0  0  0  0  0
   43.3318   21.4276   15.2035 O   0  0  0  0  0  0  0  0  0  0  0  0
   43.0261   22.1492   14.0224 C   0  0  0  0  0  0  0  0  0  0  0  0
   -3.1753    7.4287    8.2840 H   0  0  0  0  0  0  0  0  0  0  0  0
   -2.7956    8.7078   10.5134 H   0  0  0  0  0  0  0  0  0  0  0  0
    3.7845    7.4850    6.5913 H   0  0  0  0  0  0  0  0  0  0  0  0
    4.0347    6.8659    8.7630 H   0  0  0  0  0  0  0  0  0  0  0  0
   -1.4407    6.7409    3.9564 H   0  0  0  0  0  0  0  0  0  0  0  0
    4.9897    4.3963    1.5919 H   0  0  0  0  0  0  0  0  0  0  0  0
    2.6941    4.8628    2.7074 H   0  0  0  0  0  0  0  0  0  0  0  0
    8.3974    8.4146    6.7175 H   0  0  0  0  0  0  0  0  0  0  0  0
   10.0557    8.8540    6.2048 H   0  0  0  0  0  0  0  0  0  0  0  0
    9.2905    6.3473    7.7863 H   0  0  0  0  0  0  0  0  0  0  0  0
   10.1141    7.7668    8.4402 H   0  0  0  0  0  0  0  0  0  0  0  0
   10.9214    6.7557    7.2326 H   0  0  0  0  0  0  0  0  0  0  0  0
   12.0584    4.3969    0.4670 H   0  0  0  0  0  0  0  0  0  0  0  0
   14.5980    4.6925    0.9071 H   0  0  0  0  0  0  0  0  0  0  0  0
    4.4094   11.8069   10.9611 H   0  0  0  0  0  0  0  0  0  0  0  0
    5.8219   10.7557   11.1760 H   0  0  0  0  0  0  0  0  0  0  0  0
   -5.1031    3.3138    6.0235 H   0  0  0  0  0  0  0  0  0  0  0  0
   -5.1699    3.5559    4.2678 H   0  0  0  0  0  0  0  0  0  0  0  0
   -6.3186    5.4716    6.3597 H   0  0  0  0  0  0  0  0  0  0  0  0
   -7.2591    4.3552    5.3636 H   0  0  0  0  0  0  0  0  0  0  0  0
   -6.3946    5.6987    4.6094 H   0  0  0  0  0  0  0  0  0  0  0  0
    3.2482   10.6168   12.8266 H   0  0  0  0  0  0  0  0  0  0  0  0
    4.7744   11.3265   13.3675 H   0  0  0  0  0  0  0  0  0  0  0  0
    4.6679    9.5911   13.0536 H   0  0  0  0  0  0  0  0  0  0  0  0
    6.4569    4.2262   -1.0485 H   0  0  0  0  0  0  0  0  0  0  0  0
    8.0811    4.9408   -0.8729 H   0  0  0  0  0  0  0  0  0  0  0  0
    6.6413    5.8628   -0.3607 H   0  0  0  0  0  0  0  0  0  0  0  0
   10.0460    2.3015   -0.3288 H   0  0  0  0  0  0  0  0  0  0  0  0
    8.6235    2.4190    0.7398 H   0  0  0  0  0  0  0  0  0  0  0  0
   10.2608    2.3172    1.4430 H   0  0  0  0  0  0  0  0  0  0  0  0
   14.8161    7.2482    4.9665 H   0  0  0  0  0  0  0  0  0  0  0  0
   21.9410    6.8564    4.4804 H   0  0  0  0  0  0  0  0  0  0  0  0
   21.4989    7.2919    2.2168 H   0  0  0  0  0  0  0  0  0  0  0  0
   17.8566    8.3220    8.4577 H   0  0  0  0  0  0  0  0  0  0  0  0
   25.9807    8.2698    7.0087 H   0  0  0  0  0  0  0  0  0  0  0  0
   24.0243    7.0759    5.7778 H   0  0  0  0  0  0  0  0  0  0  0  0
   29.5994    8.0571    7.7767 H   0  0  0  0  0  0  0  0  0  0  0  0
   30.2826    8.4420    9.3787 H   0  0  0  0  0  0  0  0  0  0  0  0
   30.6814   10.1109    6.8424 H   0  0  0  0  0  0  0  0  0  0  0  0
   31.9016    9.0992    7.6228 H   0  0  0  0  0  0  0  0  0  0  0  0
   31.2782   10.5356    8.4504 H   0  0  0  0  0  0  0  0  0  0  0  0
   26.7972   14.9251   11.4503 H   0  0  0  0  0  0  0  0  0  0  0  0
   28.9649   16.0676   12.3002 H   0  0  0  0  0  0  0  0  0  0  0  0
   21.0258    2.1145    0.6695 H   0  0  0  0  0  0  0  0  0  0  0  0
   22.3543    3.0250   -0.0730 H   0  0  0  0  0  0  0  0  0  0  0  0
   13.7526   11.6370    7.3351 H   0  0  0  0  0  0  0  0  0  0  0  0
   14.0054   11.2844    9.0539 H   0  0  0  0  0  0  0  0  0  0  0  0
   12.4867    9.4990    7.0854 H   0  0  0  0  0  0  0  0  0  0  0  0
   11.7378   10.5551    8.2927 H   0  0  0  0  0  0  0  0  0  0  0  0
   12.7074    9.1693    8.8064 H   0  0  0  0  0  0  0  0  0  0  0  0
   19.4171    3.1708   -0.9228 H   0  0  0  0  0  0  0  0  0  0  0  0
   20.6947    2.3044   -1.7846 H   0  0  0  0  0  0  0  0  0  0  0  0
   20.7441    4.0663   -1.6684 H   0  0  0  0  0  0  0  0  0  0  0  0
   22.9007   10.8895   10.8037 H   0  0  0  0  0  0  0  0  0  0  0  0
   21.7754   12.0525   10.0579 H   0  0  0  0  0  0  0  0  0  0  0  0
   23.1579   12.6402   11.0252 H   0  0  0  0  0  0  0  0  0  0  0  0
   25.4721   15.0656    8.8824 H   0  0  0  0  0  0  0  0  0  0  0  0
   24.1950   15.4706   10.0607 H   0  0  0  0  0  0  0  0  0  0  0  0
   23.9023   14.2206    8.8238 H   0  0  0  0  0  0  0  0  0  0  0  0
   32.3611   12.8117   11.4054 H   0  0  0  0  0  0  0  0  0  0  0  0
   37.3210   17.5273   13.5161 H   0  0  0  0  0  0  0  0  0  0  0  0
   33.0263   18.6834   11.9563 H   0  0  0  0  0  0  0  0  0  0  0  0
   36.6578   11.6638   13.0857 H   0  0  0  0  0  0  0  0  0  0  0  0
   42.8437   15.1377   13.6027 H   0  0  0  0  0  0  0  0  0  0  0  0
   40.5652   14.0205   12.9899 H   0  0  0  0  0  0  0  0  0  0  0  0
   46.4235   14.4451   14.2269 H   0  0  0  0  0  0  0  0  0  0  0  0
   47.5615   15.3262   15.2892 H   0  0  0  0  0  0  0  0  0  0  0  0
   47.3317   15.6772   12.2560 H   0  0  0  0  0  0  0  0  0  0  0  0
   48.6515   14.8661   13.1069 H   0  0  0  0  0  0  0  0  0  0  0  0
   48.3987   16.6050   13.3194 H   0  0  0  0  0  0  0  0  0  0  0  0
   45.1471   22.3480   16.2229 H   0  0  0  0  0  0  0  0  0  0  0  0
   47.5192   23.3095   16.6678 H   0  0  0  0  0  0  0  0  0  0  0  0
   49.3861   21.5822   16.0346 H   0  0  0  0  0  0  0  0  0  0  0  0
   34.6837   20.8422   16.5787 H   0  0  0  0  0  0  0  0  0  0  0  0
   34.1391   22.0027   15.3560 H   0  0  0  0  0  0  0  0  0  0  0  0
   35.6914    8.3969    9.5209 H   0  0  0  0  0  0  0  0  0  0  0  0
   34.5552    9.4128    8.6131 H   0  0  0  0  0  0  0  0  0  0  0  0
   33.9158    7.8530   11.1657 H   0  0  0  0  0  0  0  0  0  0  0  0
   33.3817    7.4313    9.5362 H   0  0  0  0  0  0  0  0  0  0  0  0
   32.7804    8.9036   10.3147 H   0  0  0  0  0  0  0  0  0  0  0  0
   36.9616   20.8370   15.5767 H   0  0  0  0  0  0  0  0  0  0  0  0
   36.4844   22.4705   16.0563 H   0  0  0  0  0  0  0  0  0  0  0  0
   36.4338   21.9987   14.3542 H   0  0  0  0  0  0  0  0  0  0  0  0
   40.6124   19.3393   16.4226 H   0  0  0  0  0  0  0  0  0  0  0  0
   39.7279   20.4957   15.3938 H   0  0  0  0  0  0  0  0  0  0  0  0
   41.2818   20.9678   16.1354 H   0  0  0  0  0  0  0  0  0  0  0  0
   43.9026   22.2050   13.3681 H   0  0  0  0  0  0  0  0  0  0  0  0
   42.7490   23.1507   14.3467 H   0  0  0  0  0  0  0  0  0  0  0  0
   42.1953   21.6962   13.4756 H   0  0  0  0  0  0  0  0  0  0  0  0
  1  2  1  0  0  0  0
  2  7  1  0  0  0  0
  2  3  2  0  0  0  0
  3  9  1  0  0  0  0
  4  3  1  0  0  0  0
  4 14  1  0  0  0  0
  5  4  2  0  0  0  0
  6  1  2  0  0  0  0
  6  5  1  0  0  0  0
  7  8  2  0  0  0  0
  8  9  1  0  0  0  0
  8161  1  0  0  0  0
 10162  1  0  0  0  0
 10  5  1  0  0  0  0
 11 10  2  0  0  0  0
 12 11  1  0  0  0  0
 12  6  1  0  0  0  0
 13  1  1  0  0  0  0
 13 21  1  0  0  0  0
 14 15  2  0  0  0  0
 14 18  1  0  0  0  0
 15 16  1  0  0  0  0
 16 49  1  0  0  0  0
 16 17  2  0  0  0  0
 17 43  1  0  0  0  0
 18 17  1  0  0  0  0
 19 13  2  0  0  0  0
 20 21  1  0  0  0  0
 22 23  1  0  0  0  0
 22 11  1  0  0  0  0
 24 23  1  0  0  0  0
 25 26  1  0  0  0  0
 25 24  2  0  0  0  0
 26 22  2  0  0  0  0
 27 24  1  0  0  0  0
 27 32  1  0  0  0  0
 28 27  2  0  0  0  0
 29 28  1  0  0  0  0
 29 30  2  0  0  0  0
 30 31  1  0  0  0  0
 31 32  1  0  0  0  0
 31 33  2  0  0  0  0
 32 35  2  0  0  0  0
 33 34  1  0  0  0  0
 34 37  1  0  0  0  0
 35 34  1  0  0  0  0
 36 30  1  0  0  0  0
 36 42  1  0  0  0  0
 37167  1  0  0  0  0
 37 38  1  0  0  0  0
 38169  1  0  0  0  0
 38170  1  0  0  0  0
 39 40  1  0  0  0  0
 39 36  2  0  0  0  0
 40 41  2  0  0  0  0
 41 61  1  0  0  0  0
 41 42  1  0  0  0  0
 43 46  1  0  0  0  0
 44 20  1  0  0  0  0
 44 45  1  0  0  0  0
 44176  1  0  0  0  0
 45178  1  0  0  0  0
 46181  1  0  0  0  0
 46183  1  0  0  0  0
 46182  1  0  0  0  0
 47 19  1  0  0  0  0
 47 20  2  0  0  0  0
 48 47  1  0  0  0  0
 50 28  1  0  0  0  0
 51186  1  0  0  0  0
 51 50  1  0  0  0  0
 52 53  1  0  0  0  0
 52 29  1  0  0  0  0
 53188  1  0  0  0  0
 53189  1  0  0  0  0
 54 59  1  0  0  0  0
 54 66  1  0  0  0  0
 55 54  2  0  0  0  0
 56 57  2  0  0  0  0
 56 55  1  0  0  0  0
 57 58  1  0  0  0  0
 58 63  1  0  0  0  0
 58 59  2  0  0  0  0
 59 65  1  0  0  0  0
 60 55  1  0  0  0  0
 60190  1  0  0  0  0
 61 60  2  0  0  0  0
 62 61  1  0  0  0  0
 62 56  1  0  0  0  0
 63 64  2  0  0  0  0
 64 75  1  0  0  0  0
 64 65  1  0  0  0  0
 66 72  2  0  0  0  0
 67 57  1  0  0  0  0
 68192  1  0  0  0  0
 68 67  2  0  0  0  0
 69 68  1  0  0  0  0
 70 69  2  0  0  0  0
 70 71  1  0  0  0  0
 71 67  1  0  0  0  0
 72193  1  0  0  0  0
 72100  1  0  0  0  0
 73 97  1  0  0  0  0
 73100  2  0  0  0  0
 74 66  1  0  0  0  0
 74 73  1  0  0  0  0
 75 76  1  0  0  0  0
 76 77  1  0  0  0  0
 77 80  1  0  0  0  0
 78 77  2  0  0  0  0
 79 75  2  0  0  0  0
 79 78  1  0  0  0  0
 80 85  1  0  0  0  0
 80 81  2  0  0  0  0
 81 82  1  0  0  0  0
 82 83  2  0  0  0  0
 82105  1  0  0  0  0
 83 89  1  0  0  0  0
 84 83  1  0  0  0  0
 85 84  1  0  0  0  0
 86 84  2  0  0  0  0
 87 86  1  0  0  0  0
 88 85  2  0  0  0  0
 88 87  1  0  0  0  0
 89 95  1  0  0  0  0
 89 92  2  0  0  0  0
 90 87  1  0  0  0  0
 90197  1  0  0  0  0
 91 90  1  0  0  0  0
 91200  1  0  0  0  0
 92201  1  0  0  0  0
 92 93  1  0  0  0  0
 93202  1  0  0  0  0
 94 93  2  0  0  0  0
 94114  1  0  0  0  0
 95 94  1  0  0  0  0
 96203  1  0  0  0  0
 96 70  1  0  0  0  0
 97206  1  0  0  0  0
 98 97  1  0  0  0  0
 98208  1  0  0  0  0
 98209  1  0  0  0  0
 99210  1  0  0  0  0
 99 96  1  0  0  0  0
100101  1  0  0  0  0
102 69  1  0  0  0  0
103 81  1  0  0  0  0
103104  1  0  0  0  0
104213  1  0  0  0  0
104215  1  0  0  0  0
106217  1  0  0  0  0
106105  1  0  0  0  0
107112  1  0  0  0  0
108107  2  0  0  0  0
108109  1  0  0  0  0
109110  2  0  0  0  0
110120  1  0  0  0  0
111110  1  0  0  0  0
111116  1  0  0  0  0
112118  1  0  0  0  0
112111  2  0  0  0  0
113114  2  0  0  0  0
113108  1  0  0  0  0
114115  1  0  0  0  0
115109  1  0  0  0  0
116220  1  0  0  0  0
117116  2  0  0  0  0
117128  1  0  0  0  0
118117  1  0  0  0  0
119107  1  0  0  0  0
119125  2  0  0  0  0
120124  1  0  0  0  0
121120  2  0  0  0  0
121122  1  0  0  0  0
122123  2  0  0  0  0
123124  1  0  0  0  0
123149  1  0  0  0  0
125222  1  0  0  0  0
126153  2  0  0  0  0
127126  1  0  0  0  0
127119  1  0  0  0  0
128129  1  0  0  0  0
129130  1  0  0  0  0
130133  1  0  0  0  0
131223  1  0  0  0  0
131130  2  0  0  0  0
132128  2  0  0  0  0
132131  1  0  0  0  0
133138  1  0  0  0  0
133134  2  0  0  0  0
134135  1  0  0  0  0
135136  2  0  0  0  0
135158  1  0  0  0  0
136142  1  0  0  0  0
137139  2  0  0  0  0
137136  1  0  0  0  0
138137  1  0  0  0  0
140139  1  0  0  0  0
141138  2  0  0  0  0
141140  1  0  0  0  0
142145  2  0  0  0  0
143140  1  0  0  0  0
143226  1  0  0  0  0
144229  1  0  0  0  0
144143  1  0  0  0  0
145230  1  0  0  0  0
145146  1  0  0  0  0
146231  1  0  0  0  0
147232  1  0  0  0  0
147146  2  0  0  0  0
148142  1  0  0  0  0
148147  1  0  0  0  0
149233  1  0  0  0  0
150151  1  0  0  0  0
150126  1  0  0  0  0
151239  1  0  0  0  0
151237  1  0  0  0  0
152149  1  0  0  0  0
152240  1  0  0  0  0
152241  1  0  0  0  0
153154  1  0  0  0  0
153125  1  0  0  0  0
155122  1  0  0  0  0
156134  1  0  0  0  0
156157  1  0  0  0  0
157245  1  0  0  0  0
157243  1  0  0  0  0
159247  1  0  0  0  0
159158  1  0  0  0  0
160  7  1  0  0  0  0
163 15  1  0  0  0  0
164 19  1  0  0  0  0
165 25  1  0  0  0  0
166 26  1  0  0  0  0
168 37  1  0  0  0  0
171 38  1  0  0  0  0
172 39  1  0  0  0  0
173 40  1  0  0  0  0
174 43  1  0  0  0  0
175 43  1  0  0  0  0
177 44  1  0  0  0  0
179 45  1  0  0  0  0
180 45  1  0  0  0  0
184 51  1  0  0  0  0
185 51  1  0  0  0  0
187 53  1  0  0  0  0
191 63  1  0  0  0  0
194 78  1  0  0  0  0
195 79  1  0  0  0  0
196 90  1  0  0  0  0
198 91  1  0  0  0  0
199 91  1  0  0  0  0
204 96  1  0  0  0  0
205 97  1  0  0  0  0
207 98  1  0  0  0  0
211 99  1  0  0  0  0
212 99  1  0  0  0  0
214104  1  0  0  0  0
216106  1  0  0  0  0
218106  1  0  0  0  0
219113  1  0  0  0  0
221121  1  0  0  0  0
224132  1  0  0  0  0
225143  1  0  0  0  0
227144  1  0  0  0  0
228144  1  0  0  0  0
234149  1  0  0  0  0
235150  1  0  0  0  0
236150  1  0  0  0  0
238151  1  0  0  0  0
242152  1  0  0  0  0
244157  1  0  0  0  0
246159  1  0  0  0  0
248159  1  0  0  0  0
M  END
