SCF done       -504.230301718414          0.000844659380
 OpenBabel12282109573D

278310  0  0  0  0  0  0  0  0999 V2000
   -0.4910   -0.3032   -5.4543 C   0  0  0  0  0  0  0  0  0  0  0  0
    0.2708   -1.3766   -4.9347 C   0  0  0  0  0  0  0  0  0  0  0  0
    1.6353   -1.2935   -4.6754 C   0  0  0  0  0  0  0  0  0  0  0  0
    2.2507   -0.0546   -4.9374 C   0  0  0  0  0  0  0  0  0  0  0  0
    1.4902    1.0134   -5.4686 C   0  0  0  0  0  0  0  0  0  0  0  0
    0.1260    0.9301   -5.7308 C   0  0  0  0  0  0  0  0  0  0  0  0
   -1.8476   -0.6836   -5.6734 C   0  0  0  0  0  0  0  0  0  0  0  0
   -2.0963   -1.9643   -5.3337 C   0  0  0  0  0  0  0  0  0  0  0  0
   -0.7120   -2.8005   -4.7243 S   0  0  0  0  0  0  0  0  0  0  0  0
    3.5892    0.3289   -4.6806 C   0  0  0  0  0  0  0  0  0  0  0  0
    3.8760    1.6222   -5.0148 C   0  0  0  0  0  0  0  0  0  0  0  0
    2.4700    2.4380   -5.6729 S   0  0  0  0  0  0  0  0  0  0  0  0
    2.4021   -2.4150   -4.1719 C   0  0  0  0  0  0  0  0  0  0  0  0
   -0.5978    2.0812   -6.2343 C   0  0  0  0  0  0  0  0  0  0  0  0
    5.1385    2.2656   -4.8526 C   0  0  0  0  0  0  0  0  0  0  0  0
    5.5542    3.5368   -5.1961 C   0  0  0  0  0  0  0  0  0  0  0  0
    6.8949    3.7391   -4.8230 C   0  0  0  0  0  0  0  0  0  0  0  0
    7.5134    2.6486   -4.2131 C   0  0  0  0  0  0  0  0  0  0  0  0
    6.4187    1.3198   -4.0852 S   0  0  0  0  0  0  0  0  0  0  0  0
   -0.1738    2.9966   -7.1547 C   0  0  0  0  0  0  0  0  0  0  0  0
   -1.1035    4.0389   -7.3551 C   0  0  0  0  0  0  0  0  0  0  0  0
   -2.2356    3.9405   -6.6003 C   0  0  0  0  0  0  0  0  0  0  0  0
   -2.1618    2.5257   -5.6084 S   0  0  0  0  0  0  0  0  0  0  0  0
   -3.3851    4.8829   -6.5191 C   0  0  0  0  0  0  0  0  0  0  0  0
   -3.1863    5.8919   -5.3853 C   0  0  0  0  0  0  0  0  0  0  0  0
   -0.8241    5.3215   -8.4695 Cl  0  0  0  0  0  0  0  0  0  0  0  0
    3.6416   -2.8288   -4.5692 C   0  0  0  0  0  0  0  0  0  0  0  0
    4.0887   -3.9619   -3.8570 C   0  0  0  0  0  0  0  0  0  0  0  0
    3.2173   -4.4136   -2.9091 C   0  0  0  0  0  0  0  0  0  0  0  0
    1.7912   -3.4350   -2.9001 S   0  0  0  0  0  0  0  0  0  0  0  0
    5.6149   -4.6999   -4.1630 Cl  0  0  0  0  0  0  0  0  0  0  0  0
    3.3438   -5.5970   -2.0149 C   0  0  0  0  0  0  0  0  0  0  0  0
    2.6304   -6.8121   -2.6124 C   0  0  0  0  0  0  0  0  0  0  0  0
   10.5443    4.7105   -3.9436 C   0  0  0  0  0  0  0  0  0  0  0  0
   10.9148    6.0031   -4.2910 C   0  0  0  0  0  0  0  0  0  0  0  0
   12.1798    6.5494   -4.0397 C   0  0  0  0  0  0  0  0  0  0  0  0
   13.2111    5.8630   -3.4125 C   0  0  0  0  0  0  0  0  0  0  0  0
   12.8676    4.5353   -3.0497 C   0  0  0  0  0  0  0  0  0  0  0  0
   11.5792    3.9780   -3.3072 C   0  0  0  0  0  0  0  0  0  0  0  0
   10.0276    6.8096   -4.9055 F   0  0  0  0  0  0  0  0  0  0  0  0
   12.3718    7.8215   -4.4403 F   0  0  0  0  0  0  0  0  0  0  0  0
   13.5954    3.5855   -2.4469 N   0  0  0  0  0  0  0  0  0  0  0  0
   12.7940    2.5616   -2.3639 N   0  0  0  0  0  0  0  0  0  0  0  0
   11.5941    2.7199   -2.8464 N   0  0  0  0  0  0  0  0  0  0  0  0
   13.1961    1.3385   -1.7299 C   0  0  0  0  0  0  0  0  0  0  0  0
   12.8850    1.3855   -0.2369 C   0  0  0  0  0  0  0  0  0  0  0  0
   14.5020    6.4184   -3.1408 C   0  0  0  0  0  0  0  0  0  0  0  0
   14.9163    8.0561   -3.6062 S   0  0  0  0  0  0  0  0  0  0  0  0
   16.5021    7.8859   -2.9414 C   0  0  0  0  0  0  0  0  0  0  0  0
   16.6621    6.6093   -2.3948 C   0  0  0  0  0  0  0  0  0  0  0  0
   15.5455    5.7822   -2.5040 C   0  0  0  0  0  0  0  0  0  0  0  0
    8.8417    2.8740   -3.8524 C   0  0  0  0  0  0  0  0  0  0  0  0
    9.2497    4.1487   -4.1844 C   0  0  0  0  0  0  0  0  0  0  0  0
    7.9743    5.0758   -4.9543 S   0  0  0  0  0  0  0  0  0  0  0  0
    4.7458    4.6177   -5.8375 C   0  0  0  0  0  0  0  0  0  0  0  0
    3.9937    5.4369   -4.7873 C   0  0  0  0  0  0  0  0  0  0  0  0
   17.6334    8.7163   -2.8267 C   0  0  0  0  0  0  0  0  0  0  0  0
   18.6614    8.0523   -2.1780 C   0  0  0  0  0  0  0  0  0  0  0  0
   18.2345    6.4062   -1.7180 S   0  0  0  0  0  0  0  0  0  0  0  0
   17.7553   10.1235   -3.3245 C   0  0  0  0  0  0  0  0  0  0  0  0
   16.5277   10.6505   -4.0534 C   0  0  0  0  0  0  0  0  0  0  0  0
   22.1604    8.4130   -1.0241 C   0  0  0  0  0  0  0  0  0  0  0  0
   22.1149    9.7439   -1.5054 C   0  0  0  0  0  0  0  0  0  0  0  0
   23.1655   10.6438   -1.3745 C   0  0  0  0  0  0  0  0  0  0  0  0
   24.3338   10.1609   -0.7511 C   0  0  0  0  0  0  0  0  0  0  0  0
   24.3780    8.8308   -0.2678 C   0  0  0  0  0  0  0  0  0  0  0  0
   23.3282    7.9301   -0.3987 C   0  0  0  0  0  0  0  0  0  0  0  0
   20.9325    7.7417   -1.2201 C   0  0  0  0  0  0  0  0  0  0  0  0
   19.9752    8.4918   -1.8469 C   0  0  0  0  0  0  0  0  0  0  0  0
   20.5658   10.1019   -2.2148 S   0  0  0  0  0  0  0  0  0  0  0  0
   25.5675   10.8277   -0.5677 C   0  0  0  0  0  0  0  0  0  0  0  0
   26.5243   10.0745    0.0541 C   0  0  0  0  0  0  0  0  0  0  0  0
   25.9281    8.4708    0.4361 S   0  0  0  0  0  0  0  0  0  0  0  0
   23.0725   12.0154   -1.8313 C   0  0  0  0  0  0  0  0  0  0  0  0
   23.4294    6.5565    0.0495 C   0  0  0  0  0  0  0  0  0  0  0  0
   27.8546   10.4903    0.3532 C   0  0  0  0  0  0  0  0  0  0  0  0
   28.8520    9.8622    1.0726 C   0  0  0  0  0  0  0  0  0  0  0  0
   30.0170   10.6491    1.0977 C   0  0  0  0  0  0  0  0  0  0  0  0
   29.9292   11.8649    0.4208 C   0  0  0  0  0  0  0  0  0  0  0  0
   28.3607   12.0627   -0.2743 S   0  0  0  0  0  0  0  0  0  0  0  0
   22.9904    5.4303   -0.5865 C   0  0  0  0  0  0  0  0  0  0  0  0
   23.2799    4.2520    0.1342 C   0  0  0  0  0  0  0  0  0  0  0  0
   23.9237    4.4576    1.3193 C   0  0  0  0  0  0  0  0  0  0  0  0
   24.2008    6.1487    1.5567 S   0  0  0  0  0  0  0  0  0  0  0  0
   24.4237    3.4546    2.2990 C   0  0  0  0  0  0  0  0  0  0  0  0
   25.9269    3.2255    2.1250 C   0  0  0  0  0  0  0  0  0  0  0  0
   22.8462    2.6890   -0.4463 Cl  0  0  0  0  0  0  0  0  0  0  0  0
   23.5101   13.1426   -1.1970 C   0  0  0  0  0  0  0  0  0  0  0  0
   23.2449   14.3173   -1.9331 C   0  0  0  0  0  0  0  0  0  0  0  0
   22.6225   14.1068   -3.1287 C   0  0  0  0  0  0  0  0  0  0  0  0
   22.3313   12.4163   -3.3552 S   0  0  0  0  0  0  0  0  0  0  0  0
   23.6833   15.8812   -1.3591 Cl  0  0  0  0  0  0  0  0  0  0  0  0
   22.1607   15.1060   -4.1308 C   0  0  0  0  0  0  0  0  0  0  0  0
   20.6596   15.3688   -3.9911 C   0  0  0  0  0  0  0  0  0  0  0  0
   33.4192   12.4834    1.3976 C   0  0  0  0  0  0  0  0  0  0  0  0
   34.3819   11.8227    2.1493 C   0  0  0  0  0  0  0  0  0  0  0  0
   35.6811   12.3034    2.3553 C   0  0  0  0  0  0  0  0  0  0  0  0
   36.1610   13.4949    1.8280 C   0  0  0  0  0  0  0  0  0  0  0  0
   35.2000   14.1985    1.0576 C   0  0  0  0  0  0  0  0  0  0  0  0
   33.8744   13.7111    0.8515 C   0  0  0  0  0  0  0  0  0  0  0  0
   34.0840   10.6433    2.7290 F   0  0  0  0  0  0  0  0  0  0  0  0
   36.4885   11.5335    3.1113 F   0  0  0  0  0  0  0  0  0  0  0  0
   35.2962   15.3676    0.4102 N   0  0  0  0  0  0  0  0  0  0  0  0
   34.1214   15.5432   -0.1252 N   0  0  0  0  0  0  0  0  0  0  0  0
   33.2371   14.6106    0.0899 N   0  0  0  0  0  0  0  0  0  0  0  0
   33.8324   16.6800   -0.9522 C   0  0  0  0  0  0  0  0  0  0  0  0
   34.1580   16.3727   -2.4108 C   0  0  0  0  0  0  0  0  0  0  0  0
   37.4934   13.9817    2.0192 C   0  0  0  0  0  0  0  0  0  0  0  0
   38.6580   13.1025    2.9903 S   0  0  0  0  0  0  0  0  0  0  0  0
   39.8700   14.2917    2.6805 C   0  0  0  0  0  0  0  0  0  0  0  0
   39.3626   15.3038    1.8612 C   0  0  0  0  0  0  0  0  0  0  0  0
   38.0277   15.1367    1.4915 C   0  0  0  0  0  0  0  0  0  0  0  0
   31.0981   12.6251    0.4599 C   0  0  0  0  0  0  0  0  0  0  0  0
   32.0939   11.9910    1.1728 C   0  0  0  0  0  0  0  0  0  0  0  0
   31.5746   10.4378    1.8029 S   0  0  0  0  0  0  0  0  0  0  0  0
   28.7942    8.5238    1.7353 C   0  0  0  0  0  0  0  0  0  0  0  0
   29.2052    7.4137    0.7666 C   0  0  0  0  0  0  0  0  0  0  0  0
   41.2226   14.4508    3.0391 C   0  0  0  0  0  0  0  0  0  0  0  0
   41.7432   15.5951    2.4616 C   0  0  0  0  0  0  0  0  0  0  0  0
   40.5653   16.4911    1.5152 S   0  0  0  0  0  0  0  0  0  0  0  0
   41.9915   13.5446    3.9519 C   0  0  0  0  0  0  0  0  0  0  0  0
   41.1218   12.8236    4.9765 C   0  0  0  0  0  0  0  0  0  0  0  0
   45.3931   16.2592    2.7386 C   0  0  0  0  0  0  0  0  0  0  0  0
   45.0694   17.6110    2.4655 C   0  0  0  0  0  0  0  0  0  0  0  0
   46.0105   18.6328    2.4342 C   0  0  0  0  0  0  0  0  0  0  0  0
   47.3500   18.2629    2.6678 C   0  0  0  0  0  0  0  0  0  0  0  0
   47.6710   16.9137    2.9488 C   0  0  0  0  0  0  0  0  0  0  0  0
   46.7295   15.8895    2.9897 C   0  0  0  0  0  0  0  0  0  0  0  0
   44.2406   15.4361    2.7637 C   0  0  0  0  0  0  0  0  0  0  0  0
   43.0761   16.1063    2.5254 C   0  0  0  0  0  0  0  0  0  0  0  0
   43.3552   17.8144    2.2399 S   0  0  0  0  0  0  0  0  0  0  0  0
   48.5039   19.0810    2.6177 C   0  0  0  0  0  0  0  0  0  0  0  0
   49.6731   18.4155    2.8559 C   0  0  0  0  0  0  0  0  0  0  0  0
   49.3869   16.7129    3.1614 S   0  0  0  0  0  0  0  0  0  0  0  0
   45.6496   20.0131    2.1814 C   0  0  0  0  0  0  0  0  0  0  0  0
   47.1332   14.5279    3.2781 C   0  0  0  0  0  0  0  0  0  0  0  0
   50.9741   18.9960    2.9216 C   0  0  0  0  0  0  0  0  0  0  0  0
   52.2190   18.4034    2.9945 C   0  0  0  0  0  0  0  0  0  0  0  0
   53.2293   19.3771    3.0866 C   0  0  0  0  0  0  0  0  0  0  0  0
   52.7814   20.6966    3.0807 C   0  0  0  0  0  0  0  0  0  0  0  0
   51.0613   20.7595    2.9468 S   0  0  0  0  0  0  0  0  0  0  0  0
   48.1004   14.1153    4.1507 C   0  0  0  0  0  0  0  0  0  0  0  0
   48.2754   12.7154    4.1530 C   0  0  0  0  0  0  0  0  0  0  0  0
   47.4718   12.0425    3.2800 C   0  0  0  0  0  0  0  0  0  0  0  0
   46.4536   13.1594    2.4389 S   0  0  0  0  0  0  0  0  0  0  0  0
   47.3523   10.5750    3.0615 C   0  0  0  0  0  0  0  0  0  0  0  0
   46.2011    9.9910    3.8842 C   0  0  0  0  0  0  0  0  0  0  0  0
   49.4222   11.9336    5.1723 Cl  0  0  0  0  0  0  0  0  0  0  0  0
   46.1052   21.1315    2.8188 C   0  0  0  0  0  0  0  0  0  0  0  0
   45.5383   22.3172    2.3044 C   0  0  0  0  0  0  0  0  0  0  0  0
   44.6666   22.1246    1.2723 C   0  0  0  0  0  0  0  0  0  0  0  0
   44.5137   20.4356    0.9313 S   0  0  0  0  0  0  0  0  0  0  0  0
   45.9311   23.8726    2.9316 Cl  0  0  0  0  0  0  0  0  0  0  0  0
   43.8673   23.1337    0.5250 C   0  0  0  0  0  0  0  0  0  0  0  0
   42.4299   23.1898    1.0472 C   0  0  0  0  0  0  0  0  0  0  0  0
   56.3249   21.6647    3.4401 C   0  0  0  0  0  0  0  0  0  0  0  0
   56.5619   23.0203    3.6224 C   0  0  0  0  0  0  0  0  0  0  0  0
   57.8414   23.5654    3.8047 C   0  0  0  0  0  0  0  0  0  0  0  0
   59.0157   22.8235    3.8217 C   0  0  0  0  0  0  0  0  0  0  0  0
   58.8082   21.4350    3.6232 C   0  0  0  0  0  0  0  0  0  0  0  0
   57.5064   20.8858    3.4423 C   0  0  0  0  0  0  0  0  0  0  0  0
   55.5371   23.8939    3.6436 F   0  0  0  0  0  0  0  0  0  0  0  0
   57.8971   24.9009    3.9795 F   0  0  0  0  0  0  0  0  0  0  0  0
   59.6748   20.4133    3.5638 N   0  0  0  0  0  0  0  0  0  0  0  0
   58.9308   19.3622    3.3612 N   0  0  0  0  0  0  0  0  0  0  0  0
   57.6466   19.5654    3.2812 N   0  0  0  0  0  0  0  0  0  0  0  0
   59.4901   18.0438    3.2755 C   0  0  0  0  0  0  0  0  0  0  0  0
   59.3695   17.3284    4.6174 C   0  0  0  0  0  0  0  0  0  0  0  0
   60.3219   23.3740    4.0287 C   0  0  0  0  0  0  0  0  0  0  0  0
   60.5685   25.0890    4.3111 S   0  0  0  0  0  0  0  0  0  0  0  0
   62.2667   24.8444    4.4524 C   0  0  0  0  0  0  0  0  0  0  0  0
   62.5994   23.5024    4.2849 C   0  0  0  0  0  0  0  0  0  0  0  0
   61.5043   22.6681    4.0465 C   0  0  0  0  0  0  0  0  0  0  0  0
   53.7991   21.6464    3.1915 C   0  0  0  0  0  0  0  0  0  0  0  0
   55.0392   21.0523    3.2830 C   0  0  0  0  0  0  0  0  0  0  0  0
   54.9495   19.3012    3.2182 S   0  0  0  0  0  0  0  0  0  0  0  0
   52.5328   16.9424    3.0137 C   0  0  0  0  0  0  0  0  0  0  0  0
   52.5887   16.4159    4.4488 C   0  0  0  0  0  0  0  0  0  0  0  0
   63.3749   25.6912    4.6913 C   0  0  0  0  0  0  0  0  0  0  0  0
   64.5257   24.9648    4.7026 C   0  0  0  0  0  0  0  0  0  0  0  0
   64.3088   23.2673    4.4227 S   0  0  0  0  0  0  0  0  0  0  0  0
   63.2699   27.1622    4.9338 C   0  0  0  0  0  0  0  0  0  0  0  0
   62.6518   27.4448    6.3036 C   0  0  0  0  0  0  0  0  0  0  0  0
   -2.5931   -0.0250   -6.0781 H   0  0  0  0  0  0  0  0  0  0  0  0
   -3.0263   -2.4941   -5.4008 H   0  0  0  0  0  0  0  0  0  0  0  0
    4.3163   -0.3236   -4.2329 H   0  0  0  0  0  0  0  0  0  0  0  0
    0.7488    2.9222   -7.6992 H   0  0  0  0  0  0  0  0  0  0  0  0
   -4.3064    4.3225   -6.3490 H   0  0  0  0  0  0  0  0  0  0  0  0
   -3.4706    5.4142   -7.4693 H   0  0  0  0  0  0  0  0  0  0  0  0
   -3.1033    5.3763   -4.4313 H   0  0  0  0  0  0  0  0  0  0  0  0
   -4.0293    6.5761   -5.3404 H   0  0  0  0  0  0  0  0  0  0  0  0
   -2.2784    6.4673   -5.5487 H   0  0  0  0  0  0  0  0  0  0  0  0
    4.2013   -2.3753   -5.3663 H   0  0  0  0  0  0  0  0  0  0  0  0
    2.9097   -5.3654   -1.0403 H   0  0  0  0  0  0  0  0  0  0  0  0
    4.4032   -5.8237   -1.8796 H   0  0  0  0  0  0  0  0  0  0  0  0
    1.5738   -6.5965   -2.7533 H   0  0  0  0  0  0  0  0  0  0  0  0
    2.7276   -7.6676   -1.9493 H   0  0  0  0  0  0  0  0  0  0  0  0
    3.0639   -7.0671   -3.5764 H   0  0  0  0  0  0  0  0  0  0  0  0
   14.2687    1.2202   -1.8938 H   0  0  0  0  0  0  0  0  0  0  0  0
   12.6493    0.5248   -2.2096 H   0  0  0  0  0  0  0  0  0  0  0  0
   13.4184    2.2085    0.2322 H   0  0  0  0  0  0  0  0  0  0  0  0
   13.1926    0.4556    0.2323 H   0  0  0  0  0  0  0  0  0  0  0  0
   11.8179    1.5217   -0.0796 H   0  0  0  0  0  0  0  0  0  0  0  0
   15.4825    4.7731   -2.1453 H   0  0  0  0  0  0  0  0  0  0  0  0
    9.4878    2.1635   -3.3742 H   0  0  0  0  0  0  0  0  0  0  0  0
    4.0371    4.1929   -6.5493 H   0  0  0  0  0  0  0  0  0  0  0  0
    5.4283    5.2749   -6.3814 H   0  0  0  0  0  0  0  0  0  0  0  0
    3.3092    4.8040   -4.2277 H   0  0  0  0  0  0  0  0  0  0  0  0
    3.4208    6.2240   -5.2698 H   0  0  0  0  0  0  0  0  0  0  0  0
    4.6952    5.8927   -4.0922 H   0  0  0  0  0  0  0  0  0  0  0  0
   18.6202   10.1788   -3.9936 H   0  0  0  0  0  0  0  0  0  0  0  0
   17.9751   10.7744   -2.4718 H   0  0  0  0  0  0  0  0  0  0  0  0
   16.3007   10.0426   -4.9255 H   0  0  0  0  0  0  0  0  0  0  0  0
   16.7152   11.6683   -4.3872 H   0  0  0  0  0  0  0  0  0  0  0  0
   15.6587   10.6615   -3.4005 H   0  0  0  0  0  0  0  0  0  0  0  0
   20.7450    6.7383   -0.8843 H   0  0  0  0  0  0  0  0  0  0  0  0
   25.7570   11.8292   -0.9084 H   0  0  0  0  0  0  0  0  0  0  0  0
   22.5201    5.4279   -1.5523 H   0  0  0  0  0  0  0  0  0  0  0  0
   23.8876    2.5162    2.1452 H   0  0  0  0  0  0  0  0  0  0  0  0
   24.2269    3.8055    3.3143 H   0  0  0  0  0  0  0  0  0  0  0  0
   26.1389    2.8582    1.1237 H   0  0  0  0  0  0  0  0  0  0  0  0
   26.2813    2.4943    2.8467 H   0  0  0  0  0  0  0  0  0  0  0  0
   26.4686    4.1567    2.2745 H   0  0  0  0  0  0  0  0  0  0  0  0
   23.9646   13.1480   -0.2236 H   0  0  0  0  0  0  0  0  0  0  0  0
   22.3705   14.7373   -5.1371 H   0  0  0  0  0  0  0  0  0  0  0  0
   22.7128   16.0354   -3.9789 H   0  0  0  0  0  0  0  0  0  0  0  0
   20.1011   14.4472   -4.1386 H   0  0  0  0  0  0  0  0  0  0  0  0
   20.3360   16.0966   -4.7303 H   0  0  0  0  0  0  0  0  0  0  0  0
   20.4352   15.7554   -2.9999 H   0  0  0  0  0  0  0  0  0  0  0  0
   34.4398   17.5117   -0.5910 H   0  0  0  0  0  0  0  0  0  0  0  0
   32.7716   16.9097   -0.8372 H   0  0  0  0  0  0  0  0  0  0  0  0
   35.2121   16.1287   -2.5171 H   0  0  0  0  0  0  0  0  0  0  0  0
   33.9344   17.2378   -3.0280 H   0  0  0  0  0  0  0  0  0  0  0  0
   33.5646   15.5306   -2.7585 H   0  0  0  0  0  0  0  0  0  0  0  0
   37.4659   15.8081    0.8713 H   0  0  0  0  0  0  0  0  0  0  0  0
   31.2342   13.5853    0.0012 H   0  0  0  0  0  0  0  0  0  0  0  0
   27.7904    8.3283    2.1148 H   0  0  0  0  0  0  0  0  0  0  0  0
   29.4870    8.5341    2.5801 H   0  0  0  0  0  0  0  0  0  0  0  0
   28.5315    7.3818   -0.0860 H   0  0  0  0  0  0  0  0  0  0  0  0
   29.1733    6.4508    1.2690 H   0  0  0  0  0  0  0  0  0  0  0  0
   30.2170    7.5844    0.4060 H   0  0  0  0  0  0  0  0  0  0  0  0
   42.7376   14.1450    4.4779 H   0  0  0  0  0  0  0  0  0  0  0  0
   42.5257   12.8019    3.3502 H   0  0  0  0  0  0  0  0  0  0  0  0
   40.5082   13.5335    5.5257 H   0  0  0  0  0  0  0  0  0  0  0  0
   41.7564   12.2970    5.6855 H   0  0  0  0  0  0  0  0  0  0  0  0
   40.4697   12.0962    4.5007 H   0  0  0  0  0  0  0  0  0  0  0  0
   44.2852   14.3766    2.9164 H   0  0  0  0  0  0  0  0  0  0  0  0
   48.4785   20.1293    2.3833 H   0  0  0  0  0  0  0  0  0  0  0  0
   48.6470   14.7716    4.8014 H   0  0  0  0  0  0  0  0  0  0  0  0
   48.2900   10.1001    3.3564 H   0  0  0  0  0  0  0  0  0  0  0  0
   47.1787   10.3751    2.0022 H   0  0  0  0  0  0  0  0  0  0  0  0
   46.3641   10.1746    4.9434 H   0  0  0  0  0  0  0  0  0  0  0  0
   46.1314    8.9186    3.7234 H   0  0  0  0  0  0  0  0  0  0  0  0
   45.2585   10.4492    3.5934 H   0  0  0  0  0  0  0  0  0  0  0  0
   46.7853   21.1168    3.6503 H   0  0  0  0  0  0  0  0  0  0  0  0
   43.8564   22.8769   -0.5364 H   0  0  0  0  0  0  0  0  0  0  0  0
   44.3398   24.1109    0.6416 H   0  0  0  0  0  0  0  0  0  0  0  0
   41.9515   22.2193    0.9374 H   0  0  0  0  0  0  0  0  0  0  0  0
   41.8575   23.9277    0.4912 H   0  0  0  0  0  0  0  0  0  0  0  0
   42.4218   23.4632    2.0995 H   0  0  0  0  0  0  0  0  0  0  0  0
   60.5365   18.1534    2.9856 H   0  0  0  0  0  0  0  0  0  0  0  0
   58.9396   17.4986    2.5061 H   0  0  0  0  0  0  0  0  0  0  0  0
   59.9118   17.8732    5.3861 H   0  0  0  0  0  0  0  0  0  0  0  0
   59.7834   16.3274    4.5400 H   0  0  0  0  0  0  0  0  0  0  0  0
   58.3243   17.2562    4.9066 H   0  0  0  0  0  0  0  0  0  0  0  0
   61.5507   21.6073    3.8920 H   0  0  0  0  0  0  0  0  0  0  0  0
   53.6327   22.7063    3.2047 H   0  0  0  0  0  0  0  0  0  0  0  0
   53.5083   16.7995    2.5427 H   0  0  0  0  0  0  0  0  0  0  0  0
   51.7887   16.3837    2.4450 H   0  0  0  0  0  0  0  0  0  0  0  0
   53.3563   16.9416    5.0119 H   0  0  0  0  0  0  0  0  0  0  0  0
   52.8205   15.3543    4.4484 H   0  0  0  0  0  0  0  0  0  0  0  0
   51.6323   16.5609    4.9449 H   0  0  0  0  0  0  0  0  0  0  0  0
   65.5216   25.3309    4.8585 H   0  0  0  0  0  0  0  0  0  0  0  0
   62.6411   27.6060    4.1580 H   0  0  0  0  0  0  0  0  0  0  0  0
   64.2625   27.6117    4.8751 H   0  0  0  0  0  0  0  0  0  0  0  0
   61.6524   27.0203    6.3622 H   0  0  0  0  0  0  0  0  0  0  0  0
   62.5824   28.5167    6.4707 H   0  0  0  0  0  0  0  0  0  0  0  0
   63.2608   27.0081    7.0923 H   0  0  0  0  0  0  0  0  0  0  0  0
  1  2  2  0  0  0  0
  2  9  1  0  0  0  0
  2  3  1  0  0  0  0
  3 13  1  0  0  0  0
  4 10  1  0  0  0  0
  4  3  2  0  0  0  0
  5  4  1  0  0  0  0
  6  5  2  0  0  0  0
  6  1  1  0  0  0  0
  7  1  1  0  0  0  0
  7  8  2  0  0  0  0
  8  9  1  0  0  0  0
 10186  1  0  0  0  0
 11 15  1  0  0  0  0
 11 10  2  0  0  0  0
 12  5  1  0  0  0  0
 12 11  1  0  0  0  0
 13 30  1  0  0  0  0
 14  6  1  0  0  0  0
 14 23  1  0  0  0  0
 15 19  1  0  0  0  0
 16 15  2  0  0  0  0
 16 17  1  0  0  0  0
 17 18  2  0  0  0  0
 18 19  1  0  0  0  0
 18 52  1  0  0  0  0
 20 14  2  0  0  0  0
 21 20  1  0  0  0  0
 21 22  2  0  0  0  0
 22 24  1  0  0  0  0
 22 23  1  0  0  0  0
 24188  1  0  0  0  0
 24 25  1  0  0  0  0
 25191  1  0  0  0  0
 25190  1  0  0  0  0
 26 21  1  0  0  0  0
 27 13  2  0  0  0  0
 27 28  1  0  0  0  0
 28 29  2  0  0  0  0
 29 30  1  0  0  0  0
 29 32  1  0  0  0  0
 31 28  1  0  0  0  0
 32195  1  0  0  0  0
 32194  1  0  0  0  0
 33 32  1  0  0  0  0
 33197  1  0  0  0  0
 34 39  1  0  0  0  0
 35 36  1  0  0  0  0
 35 34  2  0  0  0  0
 36 37  2  0  0  0  0
 37 47  1  0  0  0  0
 37 38  1  0  0  0  0
 38 42  2  0  0  0  0
 39 38  1  0  0  0  0
 39 44  2  0  0  0  0
 40 35  1  0  0  0  0
 41 36  1  0  0  0  0
 42 43  1  0  0  0  0
 43 45  1  0  0  0  0
 44 43  1  0  0  0  0
 45 46  1  0  0  0  0
 46203  1  0  0  0  0
 46201  1  0  0  0  0
 46202  1  0  0  0  0
 47 51  2  0  0  0  0
 48 47  1  0  0  0  0
 48 49  1  0  0  0  0
 49 57  1  0  0  0  0
 49 50  2  0  0  0  0
 50 59  1  0  0  0  0
 51 50  1  0  0  0  0
 51204  1  0  0  0  0
 52205  1  0  0  0  0
 53 34  1  0  0  0  0
 53 52  2  0  0  0  0
 54 17  1  0  0  0  0
 54 53  1  0  0  0  0
 55 16  1  0  0  0  0
 55 56  1  0  0  0  0
 56208  1  0  0  0  0
 56210  1  0  0  0  0
 57 58  2  0  0  0  0
 58 69  1  0  0  0  0
 58 59  1  0  0  0  0
 60 57  1  0  0  0  0
 60212  1  0  0  0  0
 61215  1  0  0  0  0
 61 60  1  0  0  0  0
 62 67  2  0  0  0  0
 63 64  2  0  0  0  0
 63 62  1  0  0  0  0
 64 65  1  0  0  0  0
 65 71  1  0  0  0  0
 65 66  2  0  0  0  0
 66 73  1  0  0  0  0
 67 66  1  0  0  0  0
 67 75  1  0  0  0  0
 68 62  1  0  0  0  0
 68216  1  0  0  0  0
 69 68  2  0  0  0  0
 70 69  1  0  0  0  0
 70 63  1  0  0  0  0
 71 72  2  0  0  0  0
 72 76  1  0  0  0  0
 72 73  1  0  0  0  0
 74 64  1  0  0  0  0
 74 88  2  0  0  0  0
 75 84  1  0  0  0  0
 76 77  2  0  0  0  0
 77 78  1  0  0  0  0
 77116  1  0  0  0  0
 78115  1  0  0  0  0
 79113  1  0  0  0  0
 79 78  2  0  0  0  0
 80 76  1  0  0  0  0
 80 79  1  0  0  0  0
 81 75  2  0  0  0  0
 81 82  1  0  0  0  0
 82 83  2  0  0  0  0
 83 84  1  0  0  0  0
 83 85  1  0  0  0  0
 85220  1  0  0  0  0
 86223  1  0  0  0  0
 86 85  1  0  0  0  0
 86222  1  0  0  0  0
 87 82  1  0  0  0  0
 88224  1  0  0  0  0
 89 92  1  0  0  0  0
 89 88  1  0  0  0  0
 90 89  2  0  0  0  0
 91 90  1  0  0  0  0
 91 74  1  0  0  0  0
 93 94  1  0  0  0  0
 93226  1  0  0  0  0
 93 90  1  0  0  0  0
 94229  1  0  0  0  0
 95 96  2  0  0  0  0
 96 97  1  0  0  0  0
 96101  1  0  0  0  0
 97102  1  0  0  0  0
 98108  1  0  0  0  0
 98 97  2  0  0  0  0
 99 98  1  0  0  0  0
100 99  1  0  0  0  0
100 95  1  0  0  0  0
103 99  2  0  0  0  0
104105  1  0  0  0  0
104103  1  0  0  0  0
105100  2  0  0  0  0
106231  1  0  0  0  0
106230  1  0  0  0  0
106104  1  0  0  0  0
107106  1  0  0  0  0
108109  1  0  0  0  0
110109  1  0  0  0  0
110118  1  0  0  0  0
111110  2  0  0  0  0
112111  1  0  0  0  0
112108  2  0  0  0  0
113114  2  0  0  0  0
114 95  1  0  0  0  0
114115  1  0  0  0  0
116237  1  0  0  0  0
116238  1  0  0  0  0
117240  1  0  0  0  0
117116  1  0  0  0  0
118121  1  0  0  0  0
119130  1  0  0  0  0
119118  2  0  0  0  0
120111  1  0  0  0  0
120119  1  0  0  0  0
121242  1  0  0  0  0
121122  1  0  0  0  0
122244  1  0  0  0  0
122245  1  0  0  0  0
123129  1  0  0  0  0
123128  2  0  0  0  0
124123  1  0  0  0  0
125124  2  0  0  0  0
125126  1  0  0  0  0
126127  2  0  0  0  0
127128  1  0  0  0  0
127134  1  0  0  0  0
128136  1  0  0  0  0
129247  1  0  0  0  0
130129  2  0  0  0  0
131124  1  0  0  0  0
131130  1  0  0  0  0
132126  1  0  0  0  0
132133  2  0  0  0  0
133137  1  0  0  0  0
133134  1  0  0  0  0
135125  1  0  0  0  0
135149  2  0  0  0  0
136142  2  0  0  0  0
137141  1  0  0  0  0
137138  2  0  0  0  0
138177  1  0  0  0  0
138139  1  0  0  0  0
139176  1  0  0  0  0
140139  2  0  0  0  0
140174  1  0  0  0  0
141140  1  0  0  0  0
142143  1  0  0  0  0
142249  1  0  0  0  0
143148  1  0  0  0  0
144143  2  0  0  0  0
145136  1  0  0  0  0
145144  1  0  0  0  0
146144  1  0  0  0  0
146250  1  0  0  0  0
146147  1  0  0  0  0
147252  1  0  0  0  0
149255  1  0  0  0  0
150149  1  0  0  0  0
150153  1  0  0  0  0
151150  2  0  0  0  0
152151  1  0  0  0  0
152135  1  0  0  0  0
154257  1  0  0  0  0
154155  1  0  0  0  0
154151  1  0  0  0  0
155260  1  0  0  0  0
156161  1  0  0  0  0
156157  2  0  0  0  0
157162  1  0  0  0  0
157158  1  0  0  0  0
158159  2  0  0  0  0
158163  1  0  0  0  0
159169  1  0  0  0  0
160159  1  0  0  0  0
161160  1  0  0  0  0
164160  2  0  0  0  0
165164  1  0  0  0  0
166165  1  0  0  0  0
166161  2  0  0  0  0
167165  1  0  0  0  0
167168  1  0  0  0  0
168265  1  0  0  0  0
168263  1  0  0  0  0
169173  2  0  0  0  0
169170  1  0  0  0  0
170171  1  0  0  0  0
171179  1  0  0  0  0
172181  1  0  0  0  0
172171  2  0  0  0  0
173172  1  0  0  0  0
174267  1  0  0  0  0
174175  2  0  0  0  0
175156  1  0  0  0  0
176175  1  0  0  0  0
177178  1  0  0  0  0
178272  1  0  0  0  0
178270  1  0  0  0  0
179180  2  0  0  0  0
179182  1  0  0  0  0
180273  1  0  0  0  0
181180  1  0  0  0  0
182183  1  0  0  0  0
183276  1  0  0  0  0
183277  1  0  0  0  0
183278  1  0  0  0  0
184  7  1  0  0  0  0
185  8  1  0  0  0  0
187 20  1  0  0  0  0
189 24  1  0  0  0  0
192 25  1  0  0  0  0
193 27  1  0  0  0  0
196 33  1  0  0  0  0
198 33  1  0  0  0  0
199 45  1  0  0  0  0
200 45  1  0  0  0  0
206 55  1  0  0  0  0
207 55  1  0  0  0  0
209 56  1  0  0  0  0
211 60  1  0  0  0  0
213 61  1  0  0  0  0
214 61  1  0  0  0  0
217 71  1  0  0  0  0
218 81  1  0  0  0  0
219 85  1  0  0  0  0
221 86  1  0  0  0  0
225 93  1  0  0  0  0
227 94  1  0  0  0  0
228 94  1  0  0  0  0
232107  1  0  0  0  0
233107  1  0  0  0  0
234107  1  0  0  0  0
235112  1  0  0  0  0
236113  1  0  0  0  0
239117  1  0  0  0  0
241117  1  0  0  0  0
243121  1  0  0  0  0
246122  1  0  0  0  0
248132  1  0  0  0  0
251146  1  0  0  0  0
253147  1  0  0  0  0
254147  1  0  0  0  0
256154  1  0  0  0  0
258155  1  0  0  0  0
259155  1  0  0  0  0
261167  1  0  0  0  0
262167  1  0  0  0  0
264168  1  0  0  0  0
266173  1  0  0  0  0
268177  1  0  0  0  0
269177  1  0  0  0  0
271178  1  0  0  0  0
274182  1  0  0  0  0
275182  1  0  0  0  0
M  END
