SCF done       -388.400418207261          0.000628544676
 OpenBabel12282109573D

209232  0  0  0  0  0  0  0  0999 V2000
    0.4655    0.7700   -7.5459 C   0  0  0  0  0  0  0  0  0  0  0  0
    0.6109    0.6813   -8.8992 C   0  0  0  0  0  0  0  0  0  0  0  0
    0.6879   -0.9376   -9.4626 S   0  0  0  0  0  0  0  0  0  0  0  0
    0.5247   -1.5405   -7.8363 C   0  0  0  0  0  0  0  0  0  0  0  0
    0.4182   -0.5034   -6.9422 C   0  0  0  0  0  0  0  0  0  0  0  0
    0.5250   -2.9563   -7.6009 C   0  0  0  0  0  0  0  0  0  0  0  0
    0.4114   -3.5699   -6.3615 C   0  0  0  0  0  0  0  0  0  0  0  0
    0.4320   -4.9602   -6.1785 C   0  0  0  0  0  0  0  0  0  0  0  0
    0.5758   -5.8843   -7.2058 C   0  0  0  0  0  0  0  0  0  0  0  0
    0.6868   -5.2888   -8.4881 C   0  0  0  0  0  0  0  0  0  0  0  0
    0.6560   -3.8756   -8.6687 C   0  0  0  0  0  0  0  0  0  0  0  0
    0.2752   -2.8291   -5.2433 F   0  0  0  0  0  0  0  0  0  0  0  0
    0.3103   -5.3966   -4.9083 F   0  0  0  0  0  0  0  0  0  0  0  0
    0.8199   -5.8359   -9.7053 N   0  0  0  0  0  0  0  0  0  0  0  0
    0.8586   -4.8179  -10.5201 N   0  0  0  0  0  0  0  0  0  0  0  0
    0.7691   -3.6364   -9.9800 N   0  0  0  0  0  0  0  0  0  0  0  0
    1.0215   -4.9870  -11.9358 C   0  0  0  0  0  0  0  0  0  0  0  0
    2.4213   -4.5600  -12.3639 C   0  0  0  0  0  0  0  0  0  0  0  0
    0.6180   -7.3018   -7.0188 C   0  0  0  0  0  0  0  0  0  0  0  0
    0.8353   -8.2476   -7.9979 C   0  0  0  0  0  0  0  0  0  0  0  0
    0.8376   -9.5671   -7.5360 C   0  0  0  0  0  0  0  0  0  0  0  0
    0.6080   -9.6399   -6.1665 C   0  0  0  0  0  0  0  0  0  0  0  0
    0.4016   -8.0569   -5.4706 S   0  0  0  0  0  0  0  0  0  0  0  0
    0.5225  -10.7719   -5.3135 C   0  0  0  0  0  0  0  0  0  0  0  0
    0.8204  -12.3941   -5.8537 S   0  0  0  0  0  0  0  0  0  0  0  0
    0.5099  -13.0423   -4.2673 C   0  0  0  0  0  0  0  0  0  0  0  0
    0.1953  -12.0259   -3.3854 C   0  0  0  0  0  0  0  0  0  0  0  0
    0.2074  -10.7633   -3.9658 C   0  0  0  0  0  0  0  0  0  0  0  0
    0.5903  -14.4456   -3.9997 C   0  0  0  0  0  0  0  0  0  0  0  0
    1.0247  -15.3890   -4.9256 C   0  0  0  0  0  0  0  0  0  0  0  0
    1.1227  -16.7539   -4.6889 C   0  0  0  0  0  0  0  0  0  0  0  0
    0.7716  -17.3252   -3.4756 C   0  0  0  0  0  0  0  0  0  0  0  0
    0.3063  -16.4211   -2.4817 C   0  0  0  0  0  0  0  0  0  0  0  0
    0.2265  -15.0033   -2.7403 C   0  0  0  0  0  0  0  0  0  0  0  0
    1.3932  -14.9761   -6.1598 F   0  0  0  0  0  0  0  0  0  0  0  0
   -0.0888  -16.7221   -1.2477 N   0  0  0  0  0  0  0  0  0  0  0  0
   -0.5177  -15.3722   -0.4865 S   0  0  0  0  0  0  0  0  0  0  0  0
   -0.2249  -14.3371   -1.6808 N   0  0  0  0  0  0  0  0  0  0  0  0
    0.8732  -18.7328   -3.2452 C   0  0  0  0  0  0  0  0  0  0  0  0
    0.4746  -19.4671   -2.1488 C   0  0  0  0  0  0  0  0  0  0  0  0
    0.7255  -20.8313   -2.2732 C   0  0  0  0  0  0  0  0  0  0  0  0
    1.3377  -21.1838   -3.4610 C   0  0  0  0  0  0  0  0  0  0  0  0
    1.5846  -19.7740   -4.4476 S   0  0  0  0  0  0  0  0  0  0  0  0
    0.4133    2.0519   -6.7755 C   0  0  0  0  0  0  0  0  0  0  0  0
    1.7677    2.3494   -6.1302 C   0  0  0  0  0  0  0  0  0  0  0  0
    1.0564  -10.7684   -8.4014 C   0  0  0  0  0  0  0  0  0  0  0  0
    1.2373  -10.4442   -9.8789 C   0  0  0  0  0  0  0  0  0  0  0  0
    2.4858  -22.9374   -4.9206 C   0  0  0  0  0  0  0  0  0  0  0  0
    1.7085  -22.4978   -3.8602 C   0  0  0  0  0  0  0  0  0  0  0  0
    1.1412  -23.8405   -2.8952 S   0  0  0  0  0  0  0  0  0  0  0  0
    1.9492  -24.9818   -3.9262 C   0  0  0  0  0  0  0  0  0  0  0  0
    2.6129  -24.3318   -4.9425 C   0  0  0  0  0  0  0  0  0  0  0  0
    1.8463  -26.3830   -3.6568 C   0  0  0  0  0  0  0  0  0  0  0  0
    2.4653  -27.3941   -4.3818 C   0  0  0  0  0  0  0  0  0  0  0  0
    2.3128  -28.7563   -4.0956 C   0  0  0  0  0  0  0  0  0  0  0  0
    1.5237  -29.2610   -3.0672 C   0  0  0  0  0  0  0  0  0  0  0  0
    0.8864  -28.2525   -2.2996 C   0  0  0  0  0  0  0  0  0  0  0  0
    1.0540  -26.8673   -2.5885 C   0  0  0  0  0  0  0  0  0  0  0  0
    3.2619  -27.0942   -5.4266 F   0  0  0  0  0  0  0  0  0  0  0  0
    2.9815  -29.6103   -4.8967 F   0  0  0  0  0  0  0  0  0  0  0  0
    0.0729  -28.3344   -1.2368 N   0  0  0  0  0  0  0  0  0  0  0  0
   -0.2017  -27.0946   -0.9370 N   0  0  0  0  0  0  0  0  0  0  0  0
    0.3399  -26.1799   -1.6909 N   0  0  0  0  0  0  0  0  0  0  0  0
   -1.0818  -26.7527    0.1435 C   0  0  0  0  0  0  0  0  0  0  0  0
   -2.4150  -26.2477   -0.3982 C   0  0  0  0  0  0  0  0  0  0  0  0
    1.3472  -30.6538   -2.8015 C   0  0  0  0  0  0  0  0  0  0  0  0
    0.5263  -31.2125   -1.8435 C   0  0  0  0  0  0  0  0  0  0  0  0
    0.5315  -32.6100   -1.8239 C   0  0  0  0  0  0  0  0  0  0  0  0
    1.3846  -33.1423   -2.7850 C   0  0  0  0  0  0  0  0  0  0  0  0
    2.1657  -31.8892   -3.7058 S   0  0  0  0  0  0  0  0  0  0  0  0
    1.6809  -34.4934   -3.1045 C   0  0  0  0  0  0  0  0  0  0  0  0
    0.8707  -35.8590   -2.3904 S   0  0  0  0  0  0  0  0  0  0  0  0
    1.8045  -36.9747   -3.3445 C   0  0  0  0  0  0  0  0  0  0  0  0
    2.6924  -36.2974   -4.1594 C   0  0  0  0  0  0  0  0  0  0  0  0
    2.6194  -34.9164   -4.0289 C   0  0  0  0  0  0  0  0  0  0  0  0
    1.5699  -38.3813   -3.2359 C   0  0  0  0  0  0  0  0  0  0  0  0
    2.2826  -39.3736   -3.9025 C   0  0  0  0  0  0  0  0  0  0  0  0
    2.0032  -40.7327   -3.8238 C   0  0  0  0  0  0  0  0  0  0  0  0
    0.9634  -41.2451   -3.0613 C   0  0  0  0  0  0  0  0  0  0  0  0
    0.2101  -40.2881   -2.3278 C   0  0  0  0  0  0  0  0  0  0  0  0
    0.5228  -38.8850   -2.4172 C   0  0  0  0  0  0  0  0  0  0  0  0
    3.3209  -39.0352   -4.6978 F   0  0  0  0  0  0  0  0  0  0  0  0
   -0.8139  -40.5113   -1.5079 N   0  0  0  0  0  0  0  0  0  0  0  0
   -1.3297  -39.1094   -0.9097 S   0  0  0  0  0  0  0  0  0  0  0  0
   -0.2830  -38.1461   -1.6618 N   0  0  0  0  0  0  0  0  0  0  0  0
    0.6591  -42.6415   -3.0385 C   0  0  0  0  0  0  0  0  0  0  0  0
   -0.3863  -43.2923   -2.4181 C   0  0  0  0  0  0  0  0  0  0  0  0
   -0.4012  -44.6653   -2.6502 C   0  0  0  0  0  0  0  0  0  0  0  0
    0.6399  -45.1118   -3.4417 C   0  0  0  0  0  0  0  0  0  0  0  0
    1.6514  -43.7784   -3.9098 S   0  0  0  0  0  0  0  0  0  0  0  0
    3.1204  -22.0799   -5.9689 C   0  0  0  0  0  0  0  0  0  0  0  0
    2.1634  -21.8503   -7.1404 C   0  0  0  0  0  0  0  0  0  0  0  0
   -0.2758  -33.4541   -0.8879 C   0  0  0  0  0  0  0  0  0  0  0  0
   -1.0791  -32.6548    0.1302 C   0  0  0  0  0  0  0  0  0  0  0  0
    1.9579  -47.0398   -4.4755 C   0  0  0  0  0  0  0  0  0  0  0  0
    0.8570  -46.4495   -3.8754 C   0  0  0  0  0  0  0  0  0  0  0  0
   -0.4400  -47.6014   -3.6634 S   0  0  0  0  0  0  0  0  0  0  0  0
    0.4984  -48.8619   -4.4043 C   0  0  0  0  0  0  0  0  0  0  0  0
    1.7418  -48.3932   -4.7648 C   0  0  0  0  0  0  0  0  0  0  0  0
   -0.0739  -50.1610   -4.5836 C   0  0  0  0  0  0  0  0  0  0  0  0
    0.5452  -51.2435   -5.1964 C   0  0  0  0  0  0  0  0  0  0  0  0
   -0.0766  -52.4840   -5.3874 C   0  0  0  0  0  0  0  0  0  0  0  0
   -1.3776  -52.7806   -4.9950 C   0  0  0  0  0  0  0  0  0  0  0  0
   -2.0318  -51.7002   -4.3490 C   0  0  0  0  0  0  0  0  0  0  0  0
   -1.3924  -50.4424   -4.1529 C   0  0  0  0  0  0  0  0  0  0  0  0
    1.8077  -51.1361   -5.6554 F   0  0  0  0  0  0  0  0  0  0  0  0
    0.6586  -53.4300   -6.0062 F   0  0  0  0  0  0  0  0  0  0  0  0
   -3.2614  -51.5993   -3.8232 N   0  0  0  0  0  0  0  0  0  0  0  0
   -3.3216  -50.3818   -3.3589 N   0  0  0  0  0  0  0  0  0  0  0  0
   -2.2590  -49.6446   -3.5199 N   0  0  0  0  0  0  0  0  0  0  0  0
   -4.5068  -49.8633   -2.7383 C   0  0  0  0  0  0  0  0  0  0  0  0
   -5.2338  -48.9193   -3.6905 C   0  0  0  0  0  0  0  0  0  0  0  0
   -2.0199  -54.0368   -5.2218 C   0  0  0  0  0  0  0  0  0  0  0  0
   -3.3164  -54.3665   -4.8856 C   0  0  0  0  0  0  0  0  0  0  0  0
   -3.6932  -55.6644   -5.2422 C   0  0  0  0  0  0  0  0  0  0  0  0
   -2.6593  -56.3540   -5.8669 C   0  0  0  0  0  0  0  0  0  0  0  0
   -1.2289  -55.3708   -6.0024 S   0  0  0  0  0  0  0  0  0  0  0  0
   -2.6189  -57.6757   -6.3839 C   0  0  0  0  0  0  0  0  0  0  0  0
   -3.9696  -58.7653   -6.3354 S   0  0  0  0  0  0  0  0  0  0  0  0
   -3.0612  -60.0192   -7.1339 C   0  0  0  0  0  0  0  0  0  0  0  0
   -1.7789  -59.5836   -7.4088 C   0  0  0  0  0  0  0  0  0  0  0  0
   -1.5332  -58.2812   -6.9925 C   0  0  0  0  0  0  0  0  0  0  0  0
   -3.6361  -61.2954   -7.4340 C   0  0  0  0  0  0  0  0  0  0  0  0
   -4.9458  -61.6493   -7.1304 C   0  0  0  0  0  0  0  0  0  0  0  0
   -5.5293  -62.8787   -7.4182 C   0  0  0  0  0  0  0  0  0  0  0  0
   -4.8398  -63.8970   -8.0525 C   0  0  0  0  0  0  0  0  0  0  0  0
   -3.4899  -63.6088   -8.3904 C   0  0  0  0  0  0  0  0  0  0  0  0
   -2.9000  -62.3274   -8.0849 C   0  0  0  0  0  0  0  0  0  0  0  0
   -5.7412  -60.7496   -6.5085 F   0  0  0  0  0  0  0  0  0  0  0  0
   -2.6250  -64.4185   -8.9972 N   0  0  0  0  0  0  0  0  0  0  0  0
   -1.2198  -63.6586   -9.1685 S   0  0  0  0  0  0  0  0  0  0  0  0
   -1.6322  -62.2646   -8.4840 N   0  0  0  0  0  0  0  0  0  0  0  0
   -5.4515  -65.1613   -8.3505 C   0  0  0  0  0  0  0  0  0  0  0  0
   -4.9053  -66.2584   -8.9687 C   0  0  0  0  0  0  0  0  0  0  0  0
   -5.8067  -67.3294   -9.0963 C   0  0  0  0  0  0  0  0  0  0  0  0
   -7.0331  -67.0502   -8.5784 C   0  0  0  0  0  0  0  0  0  0  0  0
   -7.1152  -65.4693   -7.9212 S   0  0  0  0  0  0  0  0  0  0  0  0
    3.2459  -46.3626   -4.8212 C   0  0  0  0  0  0  0  0  0  0  0  0
    3.2032  -45.7971   -6.2422 C   0  0  0  0  0  0  0  0  0  0  0  0
   -5.0454  -56.2553   -4.9926 C   0  0  0  0  0  0  0  0  0  0  0  0
   -6.0169  -55.3084   -4.2995 C   0  0  0  0  0  0  0  0  0  0  0  0
    0.6737    1.4871   -9.6041 H   0  0  0  0  0  0  0  0  0  0  0  0
    0.3047   -0.6391   -5.8830 H   0  0  0  0  0  0  0  0  0  0  0  0
    0.2724   -4.3709  -12.4389 H   0  0  0  0  0  0  0  0  0  0  0  0
    0.8458   -6.0416  -12.1533 H   0  0  0  0  0  0  0  0  0  0  0  0
    2.5875   -3.5211  -12.0910 H   0  0  0  0  0  0  0  0  0  0  0  0
    2.5263   -4.6643  -13.4398 H   0  0  0  0  0  0  0  0  0  0  0  0
    3.1724   -5.1771  -11.8769 H   0  0  0  0  0  0  0  0  0  0  0  0
    0.9874   -7.9586   -9.0196 H   0  0  0  0  0  0  0  0  0  0  0  0
   -0.0323  -12.2158   -2.3534 H   0  0  0  0  0  0  0  0  0  0  0  0
   -0.0091   -9.8549   -3.4318 H   0  0  0  0  0  0  0  0  0  0  0  0
    1.4839  -17.3767   -5.4933 H   0  0  0  0  0  0  0  0  0  0  0  0
    0.0151  -19.0089   -1.2929 H   0  0  0  0  0  0  0  0  0  0  0  0
    0.4807  -21.5593   -1.5201 H   0  0  0  0  0  0  0  0  0  0  0  0
   -0.3484    1.9745   -5.9967 H   0  0  0  0  0  0  0  0  0  0  0  0
    0.1395    2.8699   -7.4443 H   0  0  0  0  0  0  0  0  0  0  0  0
    2.0534    1.5428   -5.4591 H   0  0  0  0  0  0  0  0  0  0  0  0
    1.7217    3.2748   -5.5611 H   0  0  0  0  0  0  0  0  0  0  0  0
    2.5362    2.4486   -6.8937 H   0  0  0  0  0  0  0  0  0  0  0  0
    0.2060  -11.4477   -8.2837 H   0  0  0  0  0  0  0  0  0  0  0  0
    1.9386  -11.3072   -8.0406 H   0  0  0  0  0  0  0  0  0  0  0  0
    0.3617   -9.9330  -10.2719 H   0  0  0  0  0  0  0  0  0  0  0  0
    1.3767  -11.3659  -10.4389 H   0  0  0  0  0  0  0  0  0  0  0  0
    2.1106   -9.8150  -10.0329 H   0  0  0  0  0  0  0  0  0  0  0  0
    3.1830  -24.8426   -5.6962 H   0  0  0  0  0  0  0  0  0  0  0  0
   -0.6004  -25.9733    0.7391 H   0  0  0  0  0  0  0  0  0  0  0  0
   -1.2149  -27.6537    0.7443 H   0  0  0  0  0  0  0  0  0  0  0  0
   -2.2491  -25.3804   -1.0320 H   0  0  0  0  0  0  0  0  0  0  0  0
   -3.0650  -25.9653    0.4247 H   0  0  0  0  0  0  0  0  0  0  0  0
   -2.9055  -27.0224   -0.9825 H   0  0  0  0  0  0  0  0  0  0  0  0
   -0.0555  -30.5936   -1.1879 H   0  0  0  0  0  0  0  0  0  0  0  0
    3.3689  -36.7854   -4.8352 H   0  0  0  0  0  0  0  0  0  0  0  0
    3.2300  -34.2299   -4.5886 H   0  0  0  0  0  0  0  0  0  0  0  0
    2.6253  -41.4018   -4.3992 H   0  0  0  0  0  0  0  0  0  0  0  0
   -1.1110  -42.7676   -1.8237 H   0  0  0  0  0  0  0  0  0  0  0  0
   -1.1441  -45.3349   -2.2542 H   0  0  0  0  0  0  0  0  0  0  0  0
    4.0175  -22.5837   -6.3340 H   0  0  0  0  0  0  0  0  0  0  0  0
    3.4187  -21.1191   -5.5463 H   0  0  0  0  0  0  0  0  0  0  0  0
    1.8850  -22.8007   -7.5901 H   0  0  0  0  0  0  0  0  0  0  0  0
    2.6384  -21.2321   -7.8976 H   0  0  0  0  0  0  0  0  0  0  0  0
    1.2591  -21.3501   -6.8028 H   0  0  0  0  0  0  0  0  0  0  0  0
    0.3978  -34.1377   -0.3617 H   0  0  0  0  0  0  0  0  0  0  0  0
   -0.9557  -34.0788   -1.4761 H   0  0  0  0  0  0  0  0  0  0  0  0
   -0.4227  -32.0418    0.7432 H   0  0  0  0  0  0  0  0  0  0  0  0
   -1.6217  -33.3349    0.7826 H   0  0  0  0  0  0  0  0  0  0  0  0
   -1.7996  -32.0094   -0.3662 H   0  0  0  0  0  0  0  0  0  0  0  0
    2.4908  -49.0061   -5.2312 H   0  0  0  0  0  0  0  0  0  0  0  0
   -4.2068  -49.3273   -1.8350 H   0  0  0  0  0  0  0  0  0  0  0  0
   -5.1329  -50.7179   -2.4771 H   0  0  0  0  0  0  0  0  0  0  0  0
   -4.5774  -48.0983   -3.9677 H   0  0  0  0  0  0  0  0  0  0  0  0
   -6.1188  -48.5163   -3.2068 H   0  0  0  0  0  0  0  0  0  0  0  0
   -5.5366  -49.4479   -4.5911 H   0  0  0  0  0  0  0  0  0  0  0  0
   -3.9547  -53.6585   -4.3935 H   0  0  0  0  0  0  0  0  0  0  0  0
   -1.0569  -60.2085   -7.8996 H   0  0  0  0  0  0  0  0  0  0  0  0
   -0.5923  -57.7766   -7.1244 H   0  0  0  0  0  0  0  0  0  0  0  0
   -6.5593  -63.0223   -7.1288 H   0  0  0  0  0  0  0  0  0  0  0  0
   -3.8885  -66.2768   -9.3135 H   0  0  0  0  0  0  0  0  0  0  0  0
   -5.5559  -68.2694   -9.5543 H   0  0  0  0  0  0  0  0  0  0  0  0
   -7.9009  -67.6785   -8.5411 H   0  0  0  0  0  0  0  0  0  0  0  0
    4.0530  -47.0950   -4.7529 H   0  0  0  0  0  0  0  0  0  0  0  0
    3.4553  -45.5589   -4.1136 H   0  0  0  0  0  0  0  0  0  0  0  0
    3.0245  -46.5949   -6.9594 H   0  0  0  0  0  0  0  0  0  0  0  0
    4.1478  -45.3166   -6.4831 H   0  0  0  0  0  0  0  0  0  0  0  0
    2.4074  -45.0626   -6.3374 H   0  0  0  0  0  0  0  0  0  0  0  0
   -4.9292  -57.1599   -4.3871 H   0  0  0  0  0  0  0  0  0  0  0  0
   -5.4730  -56.5731   -5.9491 H   0  0  0  0  0  0  0  0  0  0  0  0
   -5.6352  -55.0068   -3.3271 H   0  0  0  0  0  0  0  0  0  0  0  0
   -6.9709  -55.8091   -4.1529 H   0  0  0  0  0  0  0  0  0  0  0  0
   -6.1858  -54.4193   -4.9023 H   0  0  0  0  0  0  0  0  0  0  0  0
  1  5  1  0  0  0  0
  1 44  1  0  0  0  0
  2  1  2  0  0  0  0
  3  2  1  0  0  0  0
  3  4  1  0  0  0  0
  4  6  1  0  0  0  0
  4  5  2  0  0  0  0
  5143  1  0  0  0  0
  6  7  2  0  0  0  0
  7  8  1  0  0  0  0
  7 12  1  0  0  0  0
  8 13  1  0  0  0  0
  9 19  1  0  0  0  0
  9  8  2  0  0  0  0
 10  9  1  0  0  0  0
 11 10  1  0  0  0  0
 11  6  1  0  0  0  0
 14 10  2  0  0  0  0
 15 16  1  0  0  0  0
 15 14  1  0  0  0  0
 16 11  2  0  0  0  0
 17 15  1  0  0  0  0
 18146  1  0  0  0  0
 18 17  1  0  0  0  0
 18148  1  0  0  0  0
 19 23  1  0  0  0  0
 20 21  1  0  0  0  0
 20 19  2  0  0  0  0
 21 22  2  0  0  0  0
 22 23  1  0  0  0  0
 22 24  1  0  0  0  0
 24 28  2  0  0  0  0
 25 24  1  0  0  0  0
 25 26  1  0  0  0  0
 26 29  1  0  0  0  0
 26 27  2  0  0  0  0
 27150  1  0  0  0  0
 28151  1  0  0  0  0
 28 27  1  0  0  0  0
 29 34  1  0  0  0  0
 30 31  1  0  0  0  0
 30 29  2  0  0  0  0
 31 32  2  0  0  0  0
 32 39  1  0  0  0  0
 32 33  1  0  0  0  0
 33 36  2  0  0  0  0
 34 33  1  0  0  0  0
 34 38  2  0  0  0  0
 35 30  1  0  0  0  0
 36 37  1  0  0  0  0
 38 37  1  0  0  0  0
 39 40  2  0  0  0  0
 40153  1  0  0  0  0
 41 40  1  0  0  0  0
 41154  1  0  0  0  0
 42 41  2  0  0  0  0
 43 42  1  0  0  0  0
 43 39  1  0  0  0  0
 44 45  1  0  0  0  0
 44155  1  0  0  0  0
 45158  1  0  0  0  0
 45157  1  0  0  0  0
 46160  1  0  0  0  0
 46161  1  0  0  0  0
 46 21  1  0  0  0  0
 47 46  1  0  0  0  0
 48 49  2  0  0  0  0
 49 42  1  0  0  0  0
 49 50  1  0  0  0  0
 51 53  1  0  0  0  0
 51 50  1  0  0  0  0
 52 48  1  0  0  0  0
 52 51  2  0  0  0  0
 53 58  1  0  0  0  0
 54 55  1  0  0  0  0
 54 53  2  0  0  0  0
 55 56  2  0  0  0  0
 56 66  1  0  0  0  0
 56 57  1  0  0  0  0
 57 61  2  0  0  0  0
 58 57  1  0  0  0  0
 58 63  2  0  0  0  0
 59 54  1  0  0  0  0
 60 55  1  0  0  0  0
 61 62  1  0  0  0  0
 62 64  1  0  0  0  0
 63 62  1  0  0  0  0
 64166  1  0  0  0  0
 64167  1  0  0  0  0
 65 64  1  0  0  0  0
 65169  1  0  0  0  0
 66 67  2  0  0  0  0
 67 68  1  0  0  0  0
 67171  1  0  0  0  0
 68 93  1  0  0  0  0
 69 68  2  0  0  0  0
 70 66  1  0  0  0  0
 70 69  1  0  0  0  0
 71 69  1  0  0  0  0
 71 72  1  0  0  0  0
 73 76  1  0  0  0  0
 73 72  1  0  0  0  0
 74 75  1  0  0  0  0
 74 73  2  0  0  0  0
 75 71  2  0  0  0  0
 76 81  1  0  0  0  0
 77 78  1  0  0  0  0
 77 76  2  0  0  0  0
 78 79  2  0  0  0  0
 79 86  1  0  0  0  0
 79 80  1  0  0  0  0
 80 83  2  0  0  0  0
 81 80  1  0  0  0  0
 81 85  2  0  0  0  0
 82 77  1  0  0  0  0
 83 84  1  0  0  0  0
 85 84  1  0  0  0  0
 86 87  2  0  0  0  0
 87175  1  0  0  0  0
 88 87  1  0  0  0  0
 88176  1  0  0  0  0
 89 88  2  0  0  0  0
 90 89  1  0  0  0  0
 90 86  1  0  0  0  0
 91178  1  0  0  0  0
 91 48  1  0  0  0  0
 92181  1  0  0  0  0
 92 91  1  0  0  0  0
 93182  1  0  0  0  0
 93 94  1  0  0  0  0
 94184  1  0  0  0  0
 94185  1  0  0  0  0
 95 96  2  0  0  0  0
 96 97  1  0  0  0  0
 96 89  1  0  0  0  0
 98 97  1  0  0  0  0
 99 95  1  0  0  0  0
 99 98  2  0  0  0  0
100 98  1  0  0  0  0
100105  1  0  0  0  0
101100  2  0  0  0  0
102101  1  0  0  0  0
102103  2  0  0  0  0
103104  1  0  0  0  0
104105  1  0  0  0  0
104108  2  0  0  0  0
105110  2  0  0  0  0
106101  1  0  0  0  0
107102  1  0  0  0  0
108109  1  0  0  0  0
109111  1  0  0  0  0
110109  1  0  0  0  0
111189  1  0  0  0  0
111188  1  0  0  0  0
112191  1  0  0  0  0
112111  1  0  0  0  0
113103  1  0  0  0  0
113114  2  0  0  0  0
114193  1  0  0  0  0
115140  1  0  0  0  0
115114  1  0  0  0  0
116115  2  0  0  0  0
117116  1  0  0  0  0
117113  1  0  0  0  0
118119  1  0  0  0  0
118116  1  0  0  0  0
120119  1  0  0  0  0
121120  2  0  0  0  0
121122  1  0  0  0  0
122118  2  0  0  0  0
123120  1  0  0  0  0
123124  2  0  0  0  0
124129  1  0  0  0  0
125124  1  0  0  0  0
125196  1  0  0  0  0
126125  2  0  0  0  0
127128  1  0  0  0  0
127126  1  0  0  0  0
128123  1  0  0  0  0
130127  2  0  0  0  0
131130  1  0  0  0  0
131132  1  0  0  0  0
132128  2  0  0  0  0
133126  1  0  0  0  0
133137  1  0  0  0  0
134133  2  0  0  0  0
135134  1  0  0  0  0
135136  2  0  0  0  0
136199  1  0  0  0  0
136137  1  0  0  0  0
138200  1  0  0  0  0
138 95  1  0  0  0  0
138201  1  0  0  0  0
139138  1  0  0  0  0
140205  1  0  0  0  0
140141  1  0  0  0  0
141208  1  0  0  0  0
141207  1  0  0  0  0
142  2  1  0  0  0  0
144 17  1  0  0  0  0
145 17  1  0  0  0  0
147 18  1  0  0  0  0
149 20  1  0  0  0  0
152 31  1  0  0  0  0
156 44  1  0  0  0  0
159 45  1  0  0  0  0
162 47  1  0  0  0  0
163 47  1  0  0  0  0
164 47  1  0  0  0  0
165 52  1  0  0  0  0
168 65  1  0  0  0  0
170 65  1  0  0  0  0
172 74  1  0  0  0  0
173 75  1  0  0  0  0
174 78  1  0  0  0  0
177 91  1  0  0  0  0
179 92  1  0  0  0  0
180 92  1  0  0  0  0
183 93  1  0  0  0  0
186 94  1  0  0  0  0
187 99  1  0  0  0  0
190112  1  0  0  0  0
192112  1  0  0  0  0
194121  1  0  0  0  0
195122  1  0  0  0  0
197134  1  0  0  0  0
198135  1  0  0  0  0
202139  1  0  0  0  0
203139  1  0  0  0  0
204139  1  0  0  0  0
206140  1  0  0  0  0
209141  1  0  0  0  0
M  END
