SCF done       -331.904858169567          0.000828736267
 OpenBabel12282109573D

185205  0  0  0  0  0  0  0  0999 V2000
  -15.6360  -15.6747   11.3886 C   0  0  0  0  0  0  0  0  0  0  0  0
  -15.6223  -14.5438   10.6238 C   0  0  0  0  0  0  0  0  0  0  0  0
  -14.4691  -14.6018    9.3615 S   0  0  0  0  0  0  0  0  0  0  0  0
  -13.9703  -16.2021    9.8456 C   0  0  0  0  0  0  0  0  0  0  0  0
  -14.6927  -16.6184   10.9386 C   0  0  0  0  0  0  0  0  0  0  0  0
  -16.5639  -15.9142   12.5380 C   0  0  0  0  0  0  0  0  0  0  0  0
  -12.9402  -16.9216    9.1507 C   0  0  0  0  0  0  0  0  0  0  0  0
  -12.2324  -16.4065    8.0745 C   0  0  0  0  0  0  0  0  0  0  0  0
  -11.2245  -17.1018    7.3951 C   0  0  0  0  0  0  0  0  0  0  0  0
  -10.8151  -18.3887    7.7169 C   0  0  0  0  0  0  0  0  0  0  0  0
  -11.5188  -18.9613    8.8160 C   0  0  0  0  0  0  0  0  0  0  0  0
  -12.5568  -18.2433    9.5162 C   0  0  0  0  0  0  0  0  0  0  0  0
  -11.3305  -20.1746    9.3269 N   0  0  0  0  0  0  0  0  0  0  0  0
  -12.3439  -20.3991   10.5539 S   0  0  0  0  0  0  0  0  0  0  0  0
  -13.0751  -18.9698   10.5031 N   0  0  0  0  0  0  0  0  0  0  0  0
   -9.7806  -19.0898    7.0193 C   0  0  0  0  0  0  0  0  0  0  0  0
   -8.9146  -18.3809    5.6876 S   0  0  0  0  0  0  0  0  0  0  0  0
   -7.9462  -19.8123    5.4938 C   0  0  0  0  0  0  0  0  0  0  0  0
   -8.2895  -20.7869    6.4235 C   0  0  0  0  0  0  0  0  0  0  0  0
   -9.3188  -20.3649    7.2698 C   0  0  0  0  0  0  0  0  0  0  0  0
   -6.9622  -19.8257    4.4682 C   0  0  0  0  0  0  0  0  0  0  0  0
   -6.6649  -18.7917    3.6040 C   0  0  0  0  0  0  0  0  0  0  0  0
   -5.6424  -19.0879    2.7031 C   0  0  0  0  0  0  0  0  0  0  0  0
   -5.1293  -20.3575    2.8433 C   0  0  0  0  0  0  0  0  0  0  0  0
   -5.9440  -21.1966    4.1326 S   0  0  0  0  0  0  0  0  0  0  0  0
  -12.4991  -15.1652    7.6276 F   0  0  0  0  0  0  0  0  0  0  0  0
  -10.6381  -16.4501    6.3727 F   0  0  0  0  0  0  0  0  0  0  0  0
   -7.6229  -22.1253    6.5015 C   0  0  0  0  0  0  0  0  0  0  0  0
  -17.6930  -16.8633   12.1341 C   0  0  0  0  0  0  0  0  0  0  0  0
   -8.1596  -23.0230    7.6091 C   0  0  0  0  0  0  0  0  0  0  0  0
   -4.0753  -21.0003    2.1005 C   0  0  0  0  0  0  0  0  0  0  0  0
   -3.2653  -20.2827    1.2117 C   0  0  0  0  0  0  0  0  0  0  0  0
   -2.2548  -20.9067    0.5195 C   0  0  0  0  0  0  0  0  0  0  0  0
   -2.0036  -22.2750    0.6729 C   0  0  0  0  0  0  0  0  0  0  0  0
   -2.8155  -22.9930    1.5600 C   0  0  0  0  0  0  0  0  0  0  0  0
   -3.8223  -22.3681    2.2559 C   0  0  0  0  0  0  0  0  0  0  0  0
   -0.9315  -22.9167   -0.0439 C   0  0  0  0  0  0  0  0  0  0  0  0
    0.2317  -21.9776   -0.9357 S   0  0  0  0  0  0  0  0  0  0  0  0
    1.1120  -23.4000   -1.4140 C   0  0  0  0  0  0  0  0  0  0  0  0
    0.5024  -24.5271   -0.9025 C   0  0  0  0  0  0  0  0  0  0  0  0
   -0.6340  -24.2569   -0.1407 C   0  0  0  0  0  0  0  0  0  0  0  0
    2.9898  -22.3275   -2.7867 C   0  0  0  0  0  0  0  0  0  0  0  0
    2.3082  -23.3746   -2.1849 C   0  0  0  0  0  0  0  0  0  0  0  0
    3.1335  -24.8873   -2.4393 S   0  0  0  0  0  0  0  0  0  0  0  0
    4.4118  -24.1043   -3.3225 C   0  0  0  0  0  0  0  0  0  0  0  0
    4.1668  -22.7514   -3.4143 C   0  0  0  0  0  0  0  0  0  0  0  0
    2.5871  -20.8870   -2.7636 C   0  0  0  0  0  0  0  0  0  0  0  0
    5.5462  -24.8263   -3.8120 C   0  0  0  0  0  0  0  0  0  0  0  0
    5.6637  -26.2092   -3.7459 C   0  0  0  0  0  0  0  0  0  0  0  0
    6.7939  -26.9188   -4.1620 C   0  0  0  0  0  0  0  0  0  0  0  0
    7.9401  -26.3234   -4.6751 C   0  0  0  0  0  0  0  0  0  0  0  0
    7.8513  -24.9066   -4.7966 C   0  0  0  0  0  0  0  0  0  0  0  0
    6.6781  -24.1755   -4.3813 C   0  0  0  0  0  0  0  0  0  0  0  0
    8.7863  -24.0973   -5.2857 N   0  0  0  0  0  0  0  0  0  0  0  0
    8.2576  -22.5800   -5.2339 S   0  0  0  0  0  0  0  0  0  0  0  0
    6.8154  -22.8687   -4.5857 N   0  0  0  0  0  0  0  0  0  0  0  0
    9.1230  -27.0514   -5.0179 C   0  0  0  0  0  0  0  0  0  0  0  0
    9.2034  -28.7857   -4.9114 S   0  0  0  0  0  0  0  0  0  0  0  0
   10.8762  -28.7841   -5.3850 C   0  0  0  0  0  0  0  0  0  0  0  0
   11.3366  -27.4946   -5.6199 C   0  0  0  0  0  0  0  0  0  0  0  0
   10.3393  -26.5363   -5.4162 C   0  0  0  0  0  0  0  0  0  0  0  0
   11.5541  -30.0327   -5.4456 C   0  0  0  0  0  0  0  0  0  0  0  0
   10.9740  -31.2802   -5.3471 C   0  0  0  0  0  0  0  0  0  0  0  0
   11.8905  -32.3305   -5.3839 C   0  0  0  0  0  0  0  0  0  0  0  0
   13.1995  -31.9210   -5.4978 C   0  0  0  0  0  0  0  0  0  0  0  0
   13.2826  -30.1844   -5.5867 S   0  0  0  0  0  0  0  0  0  0  0  0
    4.6507  -26.9426   -3.2457 F   0  0  0  0  0  0  0  0  0  0  0  0
    6.7417  -28.2573   -4.0207 F   0  0  0  0  0  0  0  0  0  0  0  0
   12.7405  -27.1861   -6.0399 C   0  0  0  0  0  0  0  0  0  0  0  0
    3.1376  -20.1848   -1.5208 C   0  0  0  0  0  0  0  0  0  0  0  0
   12.9679  -25.7271   -6.4151 C   0  0  0  0  0  0  0  0  0  0  0  0
   14.3955  -32.7249   -5.4910 C   0  0  0  0  0  0  0  0  0  0  0  0
   14.3352  -34.1159   -5.6408 C   0  0  0  0  0  0  0  0  0  0  0  0
   15.4717  -34.8833   -5.5512 C   0  0  0  0  0  0  0  0  0  0  0  0
   16.7218  -34.3054   -5.3024 C   0  0  0  0  0  0  0  0  0  0  0  0
   16.7889  -32.9105   -5.2003 C   0  0  0  0  0  0  0  0  0  0  0  0
   15.6528  -32.1422   -5.2960 C   0  0  0  0  0  0  0  0  0  0  0  0
   17.8903  -35.1292   -5.1204 C   0  0  0  0  0  0  0  0  0  0  0  0
   17.8464  -36.8308   -5.4832 S   0  0  0  0  0  0  0  0  0  0  0  0
   19.4832  -37.0549   -4.9386 C   0  0  0  0  0  0  0  0  0  0  0  0
   20.0088  -35.8550   -4.5091 C   0  0  0  0  0  0  0  0  0  0  0  0
   19.1238  -34.7815   -4.6200 C   0  0  0  0  0  0  0  0  0  0  0  0
   19.8137  -39.5309   -5.4932 C   0  0  0  0  0  0  0  0  0  0  0  0
   20.1304  -38.3230   -4.8926 C   0  0  0  0  0  0  0  0  0  0  0  0
   21.5633  -38.4641   -3.9133 S   0  0  0  0  0  0  0  0  0  0  0  0
   21.7206  -40.1553   -4.2933 C   0  0  0  0  0  0  0  0  0  0  0  0
   20.7147  -40.5457   -5.1503 C   0  0  0  0  0  0  0  0  0  0  0  0
   18.6445  -39.7882   -6.3902 C   0  0  0  0  0  0  0  0  0  0  0  0
   22.7482  -40.9714   -3.7220 C   0  0  0  0  0  0  0  0  0  0  0  0
   23.6980  -40.4970   -2.8255 C   0  0  0  0  0  0  0  0  0  0  0  0
   24.6601  -41.3011   -2.2074 C   0  0  0  0  0  0  0  0  0  0  0  0
   24.7841  -42.6688   -2.4209 C   0  0  0  0  0  0  0  0  0  0  0  0
   23.8567  -43.1930   -3.3670 C   0  0  0  0  0  0  0  0  0  0  0  0
   22.8599  -42.3638   -4.0006 C   0  0  0  0  0  0  0  0  0  0  0  0
   23.7738  -44.4569   -3.7732 N   0  0  0  0  0  0  0  0  0  0  0  0
   22.5779  -44.5974   -4.8372 S   0  0  0  0  0  0  0  0  0  0  0  0
   22.0991  -43.0635   -4.8378 N   0  0  0  0  0  0  0  0  0  0  0  0
   25.7312  -43.4942   -1.7369 C   0  0  0  0  0  0  0  0  0  0  0  0
   26.7839  -42.8669   -0.5022 S   0  0  0  0  0  0  0  0  0  0  0  0
   27.4601  -44.4426   -0.2117 C   0  0  0  0  0  0  0  0  0  0  0  0
   26.8982  -45.3984   -1.0500 C   0  0  0  0  0  0  0  0  0  0  0  0
   25.9316  -44.8496   -1.8975 C   0  0  0  0  0  0  0  0  0  0  0  0
   28.4408  -44.5739    0.8085 C   0  0  0  0  0  0  0  0  0  0  0  0
   28.9559  -43.5550    1.5834 C   0  0  0  0  0  0  0  0  0  0  0  0
   29.8844  -43.9837    2.5313 C   0  0  0  0  0  0  0  0  0  0  0  0
   30.1095  -45.3416    2.5151 C   0  0  0  0  0  0  0  0  0  0  0  0
   29.1427  -46.0955    1.2788 S   0  0  0  0  0  0  0  0  0  0  0  0
   23.7118  -39.1913   -2.4956 F   0  0  0  0  0  0  0  0  0  0  0  0
   25.4926  -40.6813   -1.3488 F   0  0  0  0  0  0  0  0  0  0  0  0
   27.2890  -46.8436   -1.0318 C   0  0  0  0  0  0  0  0  0  0  0  0
   17.4406  -40.2853   -5.5879 C   0  0  0  0  0  0  0  0  0  0  0  0
   26.5811  -47.6915   -2.0809 C   0  0  0  0  0  0  0  0  0  0  0  0
   30.9760  -46.1305    3.3543 C   0  0  0  0  0  0  0  0  0  0  0  0
   31.7439  -45.5442    4.3676 C   0  0  0  0  0  0  0  0  0  0  0  0
   32.5559  -46.3068    5.1748 C   0  0  0  0  0  0  0  0  0  0  0  0
   32.6419  -47.6939    5.0109 C   0  0  0  0  0  0  0  0  0  0  0  0
   31.8803  -48.2778    3.9937 C   0  0  0  0  0  0  0  0  0  0  0  0
   31.0686  -47.5166    3.1869 C   0  0  0  0  0  0  0  0  0  0  0  0
   33.4842  -48.5021    5.8623 C   0  0  0  0  0  0  0  0  0  0  0  0
   33.6326  -50.2195    5.5973 S   0  0  0  0  0  0  0  0  0  0  0  0
   34.7078  -50.3787    6.9240 C   0  0  0  0  0  0  0  0  0  0  0  0
   34.9411  -49.1898    7.5381 C   0  0  0  0  0  0  0  0  0  0  0  0
   34.2476  -48.1230    6.9362 C   0  0  0  0  0  0  0  0  0  0  0  0
  -16.2304  -13.6677   10.7380 H   0  0  0  0  0  0  0  0  0  0  0  0
  -14.5373  -17.5756   11.3995 H   0  0  0  0  0  0  0  0  0  0  0  0
  -16.9860  -14.9643   12.8710 H   0  0  0  0  0  0  0  0  0  0  0  0
  -16.0043  -16.3515   13.3678 H   0  0  0  0  0  0  0  0  0  0  0  0
   -9.7361  -20.9599    8.0585 H   0  0  0  0  0  0  0  0  0  0  0  0
   -7.1822  -17.8489    3.6364 H   0  0  0  0  0  0  0  0  0  0  0  0
   -5.2998  -18.3899    1.9610 H   0  0  0  0  0  0  0  0  0  0  0  0
   -6.5486  -21.9738    6.6497 H   0  0  0  0  0  0  0  0  0  0  0  0
   -7.7393  -22.6328    5.5383 H   0  0  0  0  0  0  0  0  0  0  0  0
  -18.2670  -16.4397   11.3131 H   0  0  0  0  0  0  0  0  0  0  0  0
  -18.3626  -17.0346   12.9736 H   0  0  0  0  0  0  0  0  0  0  0  0
  -17.2873  -17.8193   11.8116 H   0  0  0  0  0  0  0  0  0  0  0  0
   -8.0247  -22.5586    8.5827 H   0  0  0  0  0  0  0  0  0  0  0  0
   -7.6228  -23.9688    7.6040 H   0  0  0  0  0  0  0  0  0  0  0  0
   -9.2168  -23.2290    7.4616 H   0  0  0  0  0  0  0  0  0  0  0  0
   -3.4245  -19.2247    1.0746 H   0  0  0  0  0  0  0  0  0  0  0  0
   -1.6379  -20.3332   -0.1579 H   0  0  0  0  0  0  0  0  0  0  0  0
   -2.6447  -24.0472    1.7117 H   0  0  0  0  0  0  0  0  0  0  0  0
   -4.4343  -22.9400    2.9388 H   0  0  0  0  0  0  0  0  0  0  0  0
    0.8826  -25.5177   -1.0809 H   0  0  0  0  0  0  0  0  0  0  0  0
   -1.2228  -25.0295    0.3194 H   0  0  0  0  0  0  0  0  0  0  0  0
    4.8363  -22.0864   -3.9275 H   0  0  0  0  0  0  0  0  0  0  0  0
    1.4998  -20.7957   -2.7846 H   0  0  0  0  0  0  0  0  0  0  0  0
    2.9867  -20.4007   -3.6557 H   0  0  0  0  0  0  0  0  0  0  0  0
   10.4791  -25.4803   -5.5422 H   0  0  0  0  0  0  0  0  0  0  0  0
    9.9111  -31.4135   -5.2478 H   0  0  0  0  0  0  0  0  0  0  0  0
   11.5986  -33.3618   -5.3036 H   0  0  0  0  0  0  0  0  0  0  0  0
   13.0007  -27.8225   -6.8915 H   0  0  0  0  0  0  0  0  0  0  0  0
   13.4184  -27.4589   -5.2241 H   0  0  0  0  0  0  0  0  0  0  0  0
    2.7461  -20.6443   -0.6167 H   0  0  0  0  0  0  0  0  0  0  0  0
    2.8538  -19.1356   -1.5251 H   0  0  0  0  0  0  0  0  0  0  0  0
    4.2228  -20.2534   -1.5009 H   0  0  0  0  0  0  0  0  0  0  0  0
   12.2996  -25.4282   -7.2190 H   0  0  0  0  0  0  0  0  0  0  0  0
   13.9930  -25.5922   -6.7524 H   0  0  0  0  0  0  0  0  0  0  0  0
   12.8018  -25.0759   -5.5606 H   0  0  0  0  0  0  0  0  0  0  0  0
   13.3870  -34.5950   -5.8281 H   0  0  0  0  0  0  0  0  0  0  0  0
   15.4016  -35.9566   -5.6576 H   0  0  0  0  0  0  0  0  0  0  0  0
   17.7413  -32.4292   -5.0423 H   0  0  0  0  0  0  0  0  0  0  0  0
   15.7236  -31.0679   -5.2017 H   0  0  0  0  0  0  0  0  0  0  0  0
   21.0104  -35.7700   -4.1258 H   0  0  0  0  0  0  0  0  0  0  0  0
   19.3792  -33.7823   -4.3172 H   0  0  0  0  0  0  0  0  0  0  0  0
   20.6376  -41.5532   -5.5147 H   0  0  0  0  0  0  0  0  0  0  0  0
   18.9274  -40.5500   -7.1196 H   0  0  0  0  0  0  0  0  0  0  0  0
   18.3733  -38.8809   -6.9322 H   0  0  0  0  0  0  0  0  0  0  0  0
   25.3709  -45.4103   -2.6196 H   0  0  0  0  0  0  0  0  0  0  0  0
   28.6565  -42.5293    1.4574 H   0  0  0  0  0  0  0  0  0  0  0  0
   30.3730  -43.3094    3.2107 H   0  0  0  0  0  0  0  0  0  0  0  0
   27.0791  -47.2514   -0.0374 H   0  0  0  0  0  0  0  0  0  0  0  0
   28.3714  -46.9166   -1.1797 H   0  0  0  0  0  0  0  0  0  0  0  0
   17.6937  -41.2012   -5.0588 H   0  0  0  0  0  0  0  0  0  0  0  0
   16.6031  -40.4851   -6.2514 H   0  0  0  0  0  0  0  0  0  0  0  0
   17.1339  -39.5391   -4.8590 H   0  0  0  0  0  0  0  0  0  0  0  0
   25.5052  -47.6820   -1.9248 H   0  0  0  0  0  0  0  0  0  0  0  0
   26.9273  -48.7202   -2.0127 H   0  0  0  0  0  0  0  0  0  0  0  0
   26.7939  -47.3242   -3.0818 H   0  0  0  0  0  0  0  0  0  0  0  0
   31.7015  -44.4778    4.5244 H   0  0  0  0  0  0  0  0  0  0  0  0
   33.1341  -45.8207    5.9449 H   0  0  0  0  0  0  0  0  0  0  0  0
   31.9311  -49.3468    3.8450 H   0  0  0  0  0  0  0  0  0  0  0  0
   30.4878  -47.9927    2.4099 H   0  0  0  0  0  0  0  0  0  0  0  0
   35.1003  -51.3458    7.1682 H   0  0  0  0  0  0  0  0  0  0  0  0
   35.5853  -49.0762    8.3918 H   0  0  0  0  0  0  0  0  0  0  0  0
   34.3130  -47.1120    7.2948 H   0  0  0  0  0  0  0  0  0  0  0  0
  1  6  1  0  0  0  0
  2124  1  0  0  0  0
  2  1  2  0  0  0  0
  3  4  1  0  0  0  0
  3  2  1  0  0  0  0
  4  5  2  0  0  0  0
  5  1  1  0  0  0  0
  5125  1  0  0  0  0
  6126  1  0  0  0  0
  6127  1  0  0  0  0
  7 12  1  0  0  0  0
  7  4  1  0  0  0  0
  8  7  2  0  0  0  0
  9 10  2  0  0  0  0
  9  8  1  0  0  0  0
 10 11  1  0  0  0  0
 11 13  2  0  0  0  0
 11 12  1  0  0  0  0
 12 15  2  0  0  0  0
 13 14  1  0  0  0  0
 15 14  1  0  0  0  0
 16 20  2  0  0  0  0
 16 10  1  0  0  0  0
 17 16  1  0  0  0  0
 18 17  1  0  0  0  0
 18 19  2  0  0  0  0
 19 28  1  0  0  0  0
 19 20  1  0  0  0  0
 20128  1  0  0  0  0
 21 18  1  0  0  0  0
 22129  1  0  0  0  0
 22 21  2  0  0  0  0
 23 24  2  0  0  0  0
 23 22  1  0  0  0  0
 24 25  1  0  0  0  0
 25 21  1  0  0  0  0
 26  8  1  0  0  0  0
 27  9  1  0  0  0  0
 28131  1  0  0  0  0
 28 30  1  0  0  0  0
 29  6  1  0  0  0  0
 29134  1  0  0  0  0
 30136  1  0  0  0  0
 31 36  1  0  0  0  0
 31 24  1  0  0  0  0
 32 31  2  0  0  0  0
 33 34  2  0  0  0  0
 33 32  1  0  0  0  0
 34 35  1  0  0  0  0
 35141  1  0  0  0  0
 35 36  2  0  0  0  0
 36142  1  0  0  0  0
 37 34  1  0  0  0  0
 38 37  1  0  0  0  0
 39 38  1  0  0  0  0
 39 40  2  0  0  0  0
 40 41  1  0  0  0  0
 41 37  2  0  0  0  0
 41144  1  0  0  0  0
 42 47  1  0  0  0  0
 42 43  2  0  0  0  0
 43 39  1  0  0  0  0
 44 43  1  0  0  0  0
 45 44  1  0  0  0  0
 46 45  2  0  0  0  0
 46 42  1  0  0  0  0
 47 70  1  0  0  0  0
 48 49  2  0  0  0  0
 48 45  1  0  0  0  0
 49 67  1  0  0  0  0
 50 68  1  0  0  0  0
 50 49  1  0  0  0  0
 51 50  2  0  0  0  0
 52 51  1  0  0  0  0
 52 53  1  0  0  0  0
 53 48  1  0  0  0  0
 54 55  1  0  0  0  0
 54 52  2  0  0  0  0
 55 56  1  0  0  0  0
 56 53  2  0  0  0  0
 57 58  1  0  0  0  0
 57 51  1  0  0  0  0
 59 58  1  0  0  0  0
 60 61  1  0  0  0  0
 60 59  2  0  0  0  0
 61 57  2  0  0  0  0
 62 59  1  0  0  0  0
 62 63  2  0  0  0  0
 63149  1  0  0  0  0
 64 63  1  0  0  0  0
 64150  1  0  0  0  0
 65 72  1  0  0  0  0
 65 64  2  0  0  0  0
 66 65  1  0  0  0  0
 66 62  1  0  0  0  0
 69 60  1  0  0  0  0
 69152  1  0  0  0  0
 70155  1  0  0  0  0
 70153  1  0  0  0  0
 71 69  1  0  0  0  0
 71158  1  0  0  0  0
 72 77  2  0  0  0  0
 73 74  2  0  0  0  0
 73 72  1  0  0  0  0
 74 75  1  0  0  0  0
 75 76  2  0  0  0  0
 75 78  1  0  0  0  0
 76161  1  0  0  0  0
 77162  1  0  0  0  0
 77 76  1  0  0  0  0
 78 82  2  0  0  0  0
 79 78  1  0  0  0  0
 79 80  1  0  0  0  0
 80 84  1  0  0  0  0
 80 81  2  0  0  0  0
 81163  1  0  0  0  0
 82 81  1  0  0  0  0
 82164  1  0  0  0  0
 83 87  1  0  0  0  0
 83 84  2  0  0  0  0
 84 85  1  0  0  0  0
 86 85  1  0  0  0  0
 86 89  1  0  0  0  0
 87 86  2  0  0  0  0
 88111  1  0  0  0  0
 88 83  1  0  0  0  0
 89 90  2  0  0  0  0
 90108  1  0  0  0  0
 90 91  1  0  0  0  0
 91109  1  0  0  0  0
 92 91  2  0  0  0  0
 92 98  1  0  0  0  0
 93 92  1  0  0  0  0
 94 89  1  0  0  0  0
 94 93  1  0  0  0  0
 95 93  2  0  0  0  0
 96 95  1  0  0  0  0
 97 96  1  0  0  0  0
 97 94  2  0  0  0  0
 98 99  1  0  0  0  0
 99100  1  0  0  0  0
100103  1  0  0  0  0
101110  1  0  0  0  0
101100  2  0  0  0  0
102 98  2  0  0  0  0
102101  1  0  0  0  0
103107  1  0  0  0  0
103104  2  0  0  0  0
104105  1  0  0  0  0
105170  1  0  0  0  0
106105  2  0  0  0  0
106113  1  0  0  0  0
107106  1  0  0  0  0
110171  1  0  0  0  0
111173  1  0  0  0  0
111175  1  0  0  0  0
112177  1  0  0  0  0
112176  1  0  0  0  0
112110  1  0  0  0  0
113114  1  0  0  0  0
114179  1  0  0  0  0
114115  2  0  0  0  0
115180  1  0  0  0  0
116115  1  0  0  0  0
116119  1  0  0  0  0
117116  2  0  0  0  0
118113  2  0  0  0  0
118117  1  0  0  0  0
119123  2  0  0  0  0
120119  1  0  0  0  0
120121  1  0  0  0  0
121183  1  0  0  0  0
121122  2  0  0  0  0
122184  1  0  0  0  0
123185  1  0  0  0  0
123122  1  0  0  0  0
130 23  1  0  0  0  0
132 28  1  0  0  0  0
133 29  1  0  0  0  0
135 29  1  0  0  0  0
137 30  1  0  0  0  0
138 30  1  0  0  0  0
139 32  1  0  0  0  0
140 33  1  0  0  0  0
143 40  1  0  0  0  0
145 46  1  0  0  0  0
146 47  1  0  0  0  0
147 47  1  0  0  0  0
148 61  1  0  0  0  0
151 69  1  0  0  0  0
154 70  1  0  0  0  0
156 71  1  0  0  0  0
157 71  1  0  0  0  0
159 73  1  0  0  0  0
160 74  1  0  0  0  0
165 87  1  0  0  0  0
166 88  1  0  0  0  0
167 88  1  0  0  0  0
168102  1  0  0  0  0
169104  1  0  0  0  0
172110  1  0  0  0  0
174111  1  0  0  0  0
178112  1  0  0  0  0
181117  1  0  0  0  0
182118  1  0  0  0  0
M  END
