SCF done       -332.123690595306          0.000498139222
 OpenBabel12282109573D

176193  0  0  0  0  0  0  0  0999 V2000
   -0.7016   -6.5237  -17.1976 C   0  0  0  0  0  0  0  0  0  0  0  0
    0.5636   -6.0182  -17.1288 C   0  0  0  0  0  0  0  0  0  0  0  0
    1.5018   -6.7202  -15.8757 S   0  0  0  0  0  0  0  0  0  0  0  0
    0.1679   -7.7404  -15.4114 C   0  0  0  0  0  0  0  0  0  0  0  0
   -0.9223   -7.5104  -16.2150 C   0  0  0  0  0  0  0  0  0  0  0  0
   -1.7276   -6.1197  -18.2094 C   0  0  0  0  0  0  0  0  0  0  0  0
    0.3196   -8.6506  -14.3125 C   0  0  0  0  0  0  0  0  0  0  0  0
   -0.6530   -9.5238  -13.8462 C   0  0  0  0  0  0  0  0  0  0  0  0
   -0.4598  -10.3933  -12.7626 C   0  0  0  0  0  0  0  0  0  0  0  0
    0.7160  -10.4821  -12.0286 C   0  0  0  0  0  0  0  0  0  0  0  0
    1.7320   -9.6024  -12.4805 C   0  0  0  0  0  0  0  0  0  0  0  0
    1.5318   -8.7255  -13.5858 C   0  0  0  0  0  0  0  0  0  0  0  0
    2.9843   -9.4021  -12.0438 N   0  0  0  0  0  0  0  0  0  0  0  0
    3.4653   -8.4851  -12.8372 N   0  0  0  0  0  0  0  0  0  0  0  0
    2.6674   -8.0415  -13.7651 N   0  0  0  0  0  0  0  0  0  0  0  0
    0.9109  -11.3676  -10.9211 C   0  0  0  0  0  0  0  0  0  0  0  0
   -0.3022  -12.4866  -10.3845 S   0  0  0  0  0  0  0  0  0  0  0  0
    0.7420  -13.0753   -9.1221 C   0  0  0  0  0  0  0  0  0  0  0  0
    1.9680  -12.4206   -9.1270 C   0  0  0  0  0  0  0  0  0  0  0  0
    2.0458  -11.4652  -10.1452 C   0  0  0  0  0  0  0  0  0  0  0  0
    0.2620  -14.1094   -8.2750 C   0  0  0  0  0  0  0  0  0  0  0  0
   -0.9774  -14.7100   -8.3318 C   0  0  0  0  0  0  0  0  0  0  0  0
   -1.1460  -15.7069   -7.3692 C   0  0  0  0  0  0  0  0  0  0  0  0
   -0.0561  -15.9137   -6.5457 C   0  0  0  0  0  0  0  0  0  0  0  0
    1.2133  -14.8105   -6.9930 S   0  0  0  0  0  0  0  0  0  0  0  0
    0.1539  -16.8348   -5.4805 C   0  0  0  0  0  0  0  0  0  0  0  0
    1.4847  -16.5979   -4.3851 S   0  0  0  0  0  0  0  0  0  0  0  0
    0.0015  -18.6607   -4.0217 C   0  0  0  0  0  0  0  0  0  0  0  0
   -0.5238  -17.9844   -5.1246 C   0  0  0  0  0  0  0  0  0  0  0  0
   -1.8640   -9.5743  -14.4353 F   0  0  0  0  0  0  0  0  0  0  0  0
   -1.5039  -11.1801  -12.4343 F   0  0  0  0  0  0  0  0  0  0  0  0
    3.0638  -12.7136   -8.1510 C   0  0  0  0  0  0  0  0  0  0  0  0
   -1.8442   -7.1682  -19.3166 C   0  0  0  0  0  0  0  0  0  0  0  0
    4.3086  -11.8559   -8.3402 C   0  0  0  0  0  0  0  0  0  0  0  0
    1.1102  -18.0427   -3.4856 C   0  0  0  0  0  0  0  0  0  0  0  0
    4.7940   -7.9663  -12.6791 C   0  0  0  0  0  0  0  0  0  0  0  0
    4.7459   -6.5421  -12.1362 C   0  0  0  0  0  0  0  0  0  0  0  0
   -2.2973  -16.3763   -7.2491 F   0  0  0  0  0  0  0  0  0  0  0  0
   -1.5795  -18.4588   -5.7959 F   0  0  0  0  0  0  0  0  0  0  0  0
    2.9340  -17.9226   -1.7014 C   0  0  0  0  0  0  0  0  0  0  0  0
    1.8821  -18.5104   -2.3860 C   0  0  0  0  0  0  0  0  0  0  0  0
    1.5082  -20.0887   -1.7376 S   0  0  0  0  0  0  0  0  0  0  0  0
    2.7818  -19.9567   -0.5642 C   0  0  0  0  0  0  0  0  0  0  0  0
    3.4285  -18.7469   -0.6825 C   0  0  0  0  0  0  0  0  0  0  0  0
    3.5396  -16.5867   -1.9926 C   0  0  0  0  0  0  0  0  0  0  0  0
    3.0356  -21.0444    0.3303 C   0  0  0  0  0  0  0  0  0  0  0  0
    4.0563  -21.1010    1.2710 C   0  0  0  0  0  0  0  0  0  0  0  0
    4.2855  -22.2099    2.0957 C   0  0  0  0  0  0  0  0  0  0  0  0
    3.5288  -23.3767    2.0737 C   0  0  0  0  0  0  0  0  0  0  0  0
    2.4664  -23.3437    1.1349 C   0  0  0  0  0  0  0  0  0  0  0  0
    2.2375  -22.2126    0.2999 C   0  0  0  0  0  0  0  0  0  0  0  0
    1.5279  -24.2517    0.8283 N   0  0  0  0  0  0  0  0  0  0  0  0
    0.8154  -23.6850   -0.1058 N   0  0  0  0  0  0  0  0  0  0  0  0
    1.1766  -22.4865   -0.4665 N   0  0  0  0  0  0  0  0  0  0  0  0
    3.7898  -24.5174    2.8951 C   0  0  0  0  0  0  0  0  0  0  0  0
    5.1101  -24.5774    4.0196 S   0  0  0  0  0  0  0  0  0  0  0  0
    4.6931  -26.2013    4.4864 C   0  0  0  0  0  0  0  0  0  0  0  0
    3.5755  -26.6592    3.7977 C   0  0  0  0  0  0  0  0  0  0  0  0
    3.0808  -25.7004    2.9082 C   0  0  0  0  0  0  0  0  0  0  0  0
    5.5039  -26.8467    5.4566 C   0  0  0  0  0  0  0  0  0  0  0  0
    6.6024  -26.2975    6.0871 C   0  0  0  0  0  0  0  0  0  0  0  0
    7.2042  -27.1811    6.9775 C   0  0  0  0  0  0  0  0  0  0  0  0
    6.6061  -28.4245    7.0683 C   0  0  0  0  0  0  0  0  0  0  0  0
    5.2365  -28.4828    6.0004 S   0  0  0  0  0  0  0  0  0  0  0  0
    7.0023  -29.5248    7.8720 C   0  0  0  0  0  0  0  0  0  0  0  0
    8.3860  -29.4415    8.9190 S   0  0  0  0  0  0  0  0  0  0  0  0
    7.0662  -31.6508    8.8518 C   0  0  0  0  0  0  0  0  0  0  0  0
    6.4279  -30.7776    7.9745 C   0  0  0  0  0  0  0  0  0  0  0  0
    4.9002  -20.0622    1.4242 F   0  0  0  0  0  0  0  0  0  0  0  0
    5.3229  -22.1120    2.9512 F   0  0  0  0  0  0  0  0  0  0  0  0
    2.9897  -28.0218    3.9964 C   0  0  0  0  0  0  0  0  0  0  0  0
    4.6510  -16.7060   -3.0373 C   0  0  0  0  0  0  0  0  0  0  0  0
    1.7497  -28.2925    3.1539 C   0  0  0  0  0  0  0  0  0  0  0  0
    8.1656  -31.0819    9.4625 C   0  0  0  0  0  0  0  0  0  0  0  0
   -0.2888  -24.3547   -0.7318 C   0  0  0  0  0  0  0  0  0  0  0  0
    0.0686  -24.7392   -2.1634 C   0  0  0  0  0  0  0  0  0  0  0  0
    8.2898  -26.8583    7.6991 F   0  0  0  0  0  0  0  0  0  0  0  0
    5.3351  -31.1235    7.2722 F   0  0  0  0  0  0  0  0  0  0  0  0
   10.1142  -31.2295   11.1050 C   0  0  0  0  0  0  0  0  0  0  0  0
    9.0315  -31.7214   10.3919 C   0  0  0  0  0  0  0  0  0  0  0  0
    8.7523  -33.4087   10.7514 S   0  0  0  0  0  0  0  0  0  0  0  0
   10.1053  -33.4468   11.8400 C   0  0  0  0  0  0  0  0  0  0  0  0
   10.7071  -32.2104   11.9096 C   0  0  0  0  0  0  0  0  0  0  0  0
   10.6615  -29.8396   11.0373 C   0  0  0  0  0  0  0  0  0  0  0  0
   10.4513  -34.6662   12.5040 C   0  0  0  0  0  0  0  0  0  0  0  0
   11.5554  -34.8540   13.3262 C   0  0  0  0  0  0  0  0  0  0  0  0
   11.8656  -36.0763   13.9366 C   0  0  0  0  0  0  0  0  0  0  0  0
   11.1140  -37.2374   13.7971 C   0  0  0  0  0  0  0  0  0  0  0  0
    9.9721  -37.0761   12.9717 C   0  0  0  0  0  0  0  0  0  0  0  0
    9.6622  -35.8312   12.3518 C   0  0  0  0  0  0  0  0  0  0  0  0
    9.0130  -37.9415   12.6114 N   0  0  0  0  0  0  0  0  0  0  0  0
    8.2145  -37.2475   11.8482 N   0  0  0  0  0  0  0  0  0  0  0  0
    8.5359  -36.0006   11.6509 N   0  0  0  0  0  0  0  0  0  0  0  0
   11.4459  -38.4861   14.4108 C   0  0  0  0  0  0  0  0  0  0  0  0
   12.8505  -38.6952   15.4081 S   0  0  0  0  0  0  0  0  0  0  0  0
   12.4670  -40.3722   15.6669 C   0  0  0  0  0  0  0  0  0  0  0  0
   11.3005  -40.7376   15.0063 C   0  0  0  0  0  0  0  0  0  0  0  0
   10.7396  -39.6653   14.3048 C   0  0  0  0  0  0  0  0  0  0  0  0
   13.3427  -41.1423   16.4799 C   0  0  0  0  0  0  0  0  0  0  0  0
   14.4955  -40.6947   17.0867 C   0  0  0  0  0  0  0  0  0  0  0  0
   15.1456  -41.6900   17.8204 C   0  0  0  0  0  0  0  0  0  0  0  0
   14.5243  -42.9212   17.8099 C   0  0  0  0  0  0  0  0  0  0  0  0
   13.0833  -42.8281   16.8419 S   0  0  0  0  0  0  0  0  0  0  0  0
   14.9020  -44.1482   18.4391 C   0  0  0  0  0  0  0  0  0  0  0  0
   14.3156  -45.6733   17.8395 S   0  0  0  0  0  0  0  0  0  0  0  0
   15.8698  -45.7273   19.8760 C   0  0  0  0  0  0  0  0  0  0  0  0
   15.7123  -44.3712   19.5285 C   0  0  0  0  0  0  0  0  0  0  0  0
   12.4049  -33.8376   13.5700 F   0  0  0  0  0  0  0  0  0  0  0  0
   12.9763  -36.0966   14.6996 F   0  0  0  0  0  0  0  0  0  0  0  0
   10.7282  -42.1197   15.0502 C   0  0  0  0  0  0  0  0  0  0  0  0
   11.6671  -29.7020    9.8924 C   0  0  0  0  0  0  0  0  0  0  0  0
    9.4478  -42.2861   14.2417 C   0  0  0  0  0  0  0  0  0  0  0  0
   15.1699  -46.5444   19.0485 C   0  0  0  0  0  0  0  0  0  0  0  0
    7.0638  -37.8336   11.2227 C   0  0  0  0  0  0  0  0  0  0  0  0
    7.3588  -38.1502    9.7601 C   0  0  0  0  0  0  0  0  0  0  0  0
   16.3068  -41.4587   18.4412 F   0  0  0  0  0  0  0  0  0  0  0  0
   16.2778  -43.3945   20.2465 F   0  0  0  0  0  0  0  0  0  0  0  0
    0.9992   -5.2605  -17.7504 H   0  0  0  0  0  0  0  0  0  0  0  0
   -1.8596   -8.0235  -16.1086 H   0  0  0  0  0  0  0  0  0  0  0  0
   -1.4511   -5.1577  -18.6446 H   0  0  0  0  0  0  0  0  0  0  0  0
   -2.6953   -6.0080  -17.7155 H   0  0  0  0  0  0  0  0  0  0  0  0
    2.8995  -10.8447  -10.3369 H   0  0  0  0  0  0  0  0  0  0  0  0
   -1.7403  -14.4407   -9.0392 H   0  0  0  0  0  0  0  0  0  0  0  0
   -0.4164  -19.5728   -3.6371 H   0  0  0  0  0  0  0  0  0  0  0  0
    3.3382  -13.7702   -8.2361 H   0  0  0  0  0  0  0  0  0  0  0  0
    2.6785  -12.5705   -7.1362 H   0  0  0  0  0  0  0  0  0  0  0  0
   -0.8921   -7.2834  -19.8300 H   0  0  0  0  0  0  0  0  0  0  0  0
   -2.5964   -6.8694  -20.0427 H   0  0  0  0  0  0  0  0  0  0  0  0
   -2.1278   -8.1314  -18.8994 H   0  0  0  0  0  0  0  0  0  0  0  0
    4.7381  -12.0117   -9.3266 H   0  0  0  0  0  0  0  0  0  0  0  0
    5.0537  -12.1255   -7.5955 H   0  0  0  0  0  0  0  0  0  0  0  0
    4.0718  -10.8014   -8.2220 H   0  0  0  0  0  0  0  0  0  0  0  0
    5.2807   -7.9772  -13.6573 H   0  0  0  0  0  0  0  0  0  0  0  0
    5.3179   -8.6338  -11.9932 H   0  0  0  0  0  0  0  0  0  0  0  0
    4.1822   -5.9088  -12.8163 H   0  0  0  0  0  0  0  0  0  0  0  0
    5.7540   -6.1495  -12.0406 H   0  0  0  0  0  0  0  0  0  0  0  0
    4.2686   -6.5234  -11.1594 H   0  0  0  0  0  0  0  0  0  0  0  0
    4.2453  -18.4507   -0.0508 H   0  0  0  0  0  0  0  0  0  0  0  0
    3.9600  -16.1863   -1.0680 H   0  0  0  0  0  0  0  0  0  0  0  0
    2.7767  -15.8920   -2.3481 H   0  0  0  0  0  0  0  0  0  0  0  0
    2.2276  -25.8386    2.2726 H   0  0  0  0  0  0  0  0  0  0  0  0
    6.9570  -25.2990    5.9096 H   0  0  0  0  0  0  0  0  0  0  0  0
    6.7379  -32.6575    9.0335 H   0  0  0  0  0  0  0  0  0  0  0  0
    2.7409  -28.1473    5.0551 H   0  0  0  0  0  0  0  0  0  0  0  0
    3.7541  -28.7707    3.7642 H   0  0  0  0  0  0  0  0  0  0  0  0
    5.4329  -17.3719   -2.6794 H   0  0  0  0  0  0  0  0  0  0  0  0
    5.0864  -15.7301   -3.2344 H   0  0  0  0  0  0  0  0  0  0  0  0
    4.2584  -17.1032   -3.9699 H   0  0  0  0  0  0  0  0  0  0  0  0
    0.9610  -27.5821    3.3895 H   0  0  0  0  0  0  0  0  0  0  0  0
    1.3813  -29.2945    3.3598 H   0  0  0  0  0  0  0  0  0  0  0  0
    1.9803  -28.2235    2.0937 H   0  0  0  0  0  0  0  0  0  0  0  0
   -1.1437  -23.6741   -0.7299 H   0  0  0  0  0  0  0  0  0  0  0  0
   -0.5119  -25.2359   -0.1284 H   0  0  0  0  0  0  0  0  0  0  0  0
    0.3356  -23.8489   -2.7270 H   0  0  0  0  0  0  0  0  0  0  0  0
   -0.7816  -25.2176   -2.6403 H   0  0  0  0  0  0  0  0  0  0  0  0
    0.9098  -25.4281   -2.1737 H   0  0  0  0  0  0  0  0  0  0  0  0
   11.5596  -32.0035   12.5296 H   0  0  0  0  0  0  0  0  0  0  0  0
   11.1634  -29.6179   11.9811 H   0  0  0  0  0  0  0  0  0  0  0  0
    9.8553  -29.1165   10.9044 H   0  0  0  0  0  0  0  0  0  0  0  0
    9.8395  -39.7188   13.7236 H   0  0  0  0  0  0  0  0  0  0  0  0
   14.8657  -39.6894   17.0024 H   0  0  0  0  0  0  0  0  0  0  0  0
   16.4709  -46.0530   20.7044 H   0  0  0  0  0  0  0  0  0  0  0  0
   10.5329  -42.3862   16.0940 H   0  0  0  0  0  0  0  0  0  0  0  0
   11.4812  -42.8243   14.6823 H   0  0  0  0  0  0  0  0  0  0  0  0
   12.4969  -30.3903   10.0360 H   0  0  0  0  0  0  0  0  0  0  0  0
   12.0555  -28.6879    9.8567 H   0  0  0  0  0  0  0  0  0  0  0  0
   11.1952  -29.9231    8.9386 H   0  0  0  0  0  0  0  0  0  0  0  0
    8.6669  -41.6291   14.6163 H   0  0  0  0  0  0  0  0  0  0  0  0
    9.0983  -43.3128   14.3193 H   0  0  0  0  0  0  0  0  0  0  0  0
    9.6227  -42.0623   13.1923 H   0  0  0  0  0  0  0  0  0  0  0  0
   15.1015  -47.6130   19.0739 H   0  0  0  0  0  0  0  0  0  0  0  0
    6.2428  -37.1170   11.2943 H   0  0  0  0  0  0  0  0  0  0  0  0
    6.8210  -38.7408   11.7782 H   0  0  0  0  0  0  0  0  0  0  0  0
    7.6355  -37.2403    9.2337 H   0  0  0  0  0  0  0  0  0  0  0  0
    6.4771  -38.5754    9.2898 H   0  0  0  0  0  0  0  0  0  0  0  0
    8.1756  -38.8639    9.6841 H   0  0  0  0  0  0  0  0  0  0  0  0
  1  2  2  0  0  0  0
  1  5  1  0  0  0  0
  2  3  1  0  0  0  0
  3  4  1  0  0  0  0
  4  7  1  0  0  0  0
  5119  1  0  0  0  0
  5  4  2  0  0  0  0
  6121  1  0  0  0  0
  6  1  1  0  0  0  0
  7  8  2  0  0  0  0
  7 12  1  0  0  0  0
  8  9  1  0  0  0  0
  9 31  1  0  0  0  0
  9 10  2  0  0  0  0
 10 16  1  0  0  0  0
 11 13  2  0  0  0  0
 11 10  1  0  0  0  0
 12 11  1  0  0  0  0
 14 36  1  0  0  0  0
 14 13  1  0  0  0  0
 15 12  2  0  0  0  0
 15 14  1  0  0  0  0
 16 17  1  0  0  0  0
 16 20  2  0  0  0  0
 17 18  1  0  0  0  0
 18 21  1  0  0  0  0
 19 18  2  0  0  0  0
 19 32  1  0  0  0  0
 20 19  1  0  0  0  0
 21 25  1  0  0  0  0
 22 21  2  0  0  0  0
 22 23  1  0  0  0  0
 23 38  1  0  0  0  0
 23 24  2  0  0  0  0
 24 26  1  0  0  0  0
 25 24  1  0  0  0  0
 26 29  2  0  0  0  0
 26 27  1  0  0  0  0
 27 35  1  0  0  0  0
 28124  1  0  0  0  0
 28 35  2  0  0  0  0
 29 28  1  0  0  0  0
 30  8  1  0  0  0  0
 32126  1  0  0  0  0
 33129  1  0  0  0  0
 33  6  1  0  0  0  0
 34132  1  0  0  0  0
 34 32  1  0  0  0  0
 34131  1  0  0  0  0
 35 41  1  0  0  0  0
 36 37  1  0  0  0  0
 36134  1  0  0  0  0
 37136  1  0  0  0  0
 37137  1  0  0  0  0
 39 29  1  0  0  0  0
 40 44  1  0  0  0  0
 41 42  1  0  0  0  0
 41 40  2  0  0  0  0
 42 43  1  0  0  0  0
 43 46  1  0  0  0  0
 44 43  2  0  0  0  0
 44138  1  0  0  0  0
 45 40  1  0  0  0  0
 45139  1  0  0  0  0
 46 47  2  0  0  0  0
 47 69  1  0  0  0  0
 47 48  1  0  0  0  0
 48 70  1  0  0  0  0
 49 48  2  0  0  0  0
 49 55  1  0  0  0  0
 50 49  1  0  0  0  0
 51 46  1  0  0  0  0
 51 50  1  0  0  0  0
 52 50  2  0  0  0  0
 53 52  1  0  0  0  0
 54 53  1  0  0  0  0
 54 51  2  0  0  0  0
 55 59  2  0  0  0  0
 55 56  1  0  0  0  0
 56 57  1  0  0  0  0
 57 60  1  0  0  0  0
 58 71  1  0  0  0  0
 58 57  2  0  0  0  0
 59 58  1  0  0  0  0
 60 64  1  0  0  0  0
 60 61  2  0  0  0  0
 61 62  1  0  0  0  0
 62 63  2  0  0  0  0
 62 77  1  0  0  0  0
 63 65  1  0  0  0  0
 64 63  1  0  0  0  0
 65 68  2  0  0  0  0
 65 66  1  0  0  0  0
 66 74  1  0  0  0  0
 67143  1  0  0  0  0
 67 74  2  0  0  0  0
 68 67  1  0  0  0  0
 71144  1  0  0  0  0
 72146  1  0  0  0  0
 72 45  1  0  0  0  0
 73150  1  0  0  0  0
 73149  1  0  0  0  0
 73 71  1  0  0  0  0
 74 80  1  0  0  0  0
 75152  1  0  0  0  0
 75153  1  0  0  0  0
 75 53  1  0  0  0  0
 76 75  1  0  0  0  0
 78 68  1  0  0  0  0
 79 83  1  0  0  0  0
 80 81  1  0  0  0  0
 80 79  2  0  0  0  0
 81 82  1  0  0  0  0
 82 83  2  0  0  0  0
 82 85  1  0  0  0  0
 83157  1  0  0  0  0
 84 79  1  0  0  0  0
 84158  1  0  0  0  0
 85 86  2  0  0  0  0
 86108  1  0  0  0  0
 86 87  1  0  0  0  0
 87109  1  0  0  0  0
 88 87  2  0  0  0  0
 88 94  1  0  0  0  0
 89 88  1  0  0  0  0
 90 85  1  0  0  0  0
 90 89  1  0  0  0  0
 91 89  2  0  0  0  0
 92 91  1  0  0  0  0
 93 92  1  0  0  0  0
 93 90  2  0  0  0  0
 94 95  1  0  0  0  0
 95 96  1  0  0  0  0
 96 99  1  0  0  0  0
 97110  1  0  0  0  0
 97 96  2  0  0  0  0
 98 94  2  0  0  0  0
 98 97  1  0  0  0  0
 99103  1  0  0  0  0
 99100  2  0  0  0  0
100101  1  0  0  0  0
101116  1  0  0  0  0
102101  2  0  0  0  0
102104  1  0  0  0  0
103102  1  0  0  0  0
104107  2  0  0  0  0
105104  1  0  0  0  0
105113  1  0  0  0  0
106162  1  0  0  0  0
107106  1  0  0  0  0
107117  1  0  0  0  0
110163  1  0  0  0  0
111165  1  0  0  0  0
111 84  1  0  0  0  0
112169  1  0  0  0  0
112168  1  0  0  0  0
112110  1  0  0  0  0
113171  1  0  0  0  0
113106  2  0  0  0  0
114172  1  0  0  0  0
114173  1  0  0  0  0
114 92  1  0  0  0  0
115114  1  0  0  0  0
118  2  1  0  0  0  0
120  6  1  0  0  0  0
122 20  1  0  0  0  0
123 22  1  0  0  0  0
125 32  1  0  0  0  0
127 33  1  0  0  0  0
128 33  1  0  0  0  0
130 34  1  0  0  0  0
133 36  1  0  0  0  0
135 37  1  0  0  0  0
140 45  1  0  0  0  0
141 59  1  0  0  0  0
142 61  1  0  0  0  0
145 71  1  0  0  0  0
147 72  1  0  0  0  0
148 72  1  0  0  0  0
151 73  1  0  0  0  0
154 76  1  0  0  0  0
155 76  1  0  0  0  0
156 76  1  0  0  0  0
159 84  1  0  0  0  0
160 98  1  0  0  0  0
161100  1  0  0  0  0
164110  1  0  0  0  0
166111  1  0  0  0  0
167111  1  0  0  0  0
170112  1  0  0  0  0
174115  1  0  0  0  0
175115  1  0  0  0  0
176115  1  0  0  0  0
M  END
