SCF done       -395.535848640389          0.000580853235
 OpenBabel12282109573D

215238  0  0  0  0  0  0  0  0999 V2000
    8.7017    3.4111   -4.7245 C   0  0  0  0  0  0  0  0  0  0  0  0
    8.3181    4.5661   -3.9735 C   0  0  0  0  0  0  0  0  0  0  0  0
    9.1796    5.6170   -3.6775 C   0  0  0  0  0  0  0  0  0  0  0  0
    8.8144    6.7612   -2.9592 C   0  0  0  0  0  0  0  0  0  0  0  0
    7.5407    6.9695   -2.4455 C   0  0  0  0  0  0  0  0  0  0  0  0
    6.6329    5.9084   -2.7106 C   0  0  0  0  0  0  0  0  0  0  0  0
    6.9999    4.7370   -3.4616 C   0  0  0  0  0  0  0  0  0  0  0  0
    5.3653    5.8707   -2.3148 N   0  0  0  0  0  0  0  0  0  0  0  0
    4.6931    4.5032   -2.8279 S   0  0  0  0  0  0  0  0  0  0  0  0
    5.9774    3.8937   -3.5785 N   0  0  0  0  0  0  0  0  0  0  0  0
   10.3454    3.1424   -5.2329 S   0  0  0  0  0  0  0  0  0  0  0  0
    9.9201    1.6520   -6.0123 C   0  0  0  0  0  0  0  0  0  0  0  0
    8.5656    1.4033   -5.8741 C   0  0  0  0  0  0  0  0  0  0  0  0
    7.8883    2.3789   -5.1540 C   0  0  0  0  0  0  0  0  0  0  0  0
    7.1249    8.1229   -1.7087 C   0  0  0  0  0  0  0  0  0  0  0  0
    7.8105    9.2942   -1.4468 C   0  0  0  0  0  0  0  0  0  0  0  0
    7.0799   10.2034   -0.6906 C   0  0  0  0  0  0  0  0  0  0  0  0
    5.8202    9.7509   -0.3425 C   0  0  0  0  0  0  0  0  0  0  0  0
    5.5397    8.1633   -0.9953 S   0  0  0  0  0  0  0  0  0  0  0  0
   10.4584    5.5662   -4.1014 F   0  0  0  0  0  0  0  0  0  0  0  0
    9.7826    7.6788   -2.7749 F   0  0  0  0  0  0  0  0  0  0  0  0
    4.8591   10.4541    0.4329 C   0  0  0  0  0  0  0  0  0  0  0  0
    3.6250   10.0428    0.9153 C   0  0  0  0  0  0  0  0  0  0  0  0
    2.9950   11.0397    1.6747 C   0  0  0  0  0  0  0  0  0  0  0  0
    3.7084   12.2054    1.7882 C   0  0  0  0  0  0  0  0  0  0  0  0
    5.2083   12.0925    0.9136 S   0  0  0  0  0  0  0  0  0  0  0  0
    3.0534    8.6832    0.6651 C   0  0  0  0  0  0  0  0  0  0  0  0
    1.7258    8.4315    1.3687 C   0  0  0  0  0  0  0  0  0  0  0  0
   10.8541    0.8279   -6.6973 C   0  0  0  0  0  0  0  0  0  0  0  0
   10.2582   -0.5770   -7.5303 S   0  0  0  0  0  0  0  0  0  0  0  0
   11.8555   -1.0115   -8.0404 C   0  0  0  0  0  0  0  0  0  0  0  0
   12.7721   -0.0781   -7.5965 C   0  0  0  0  0  0  0  0  0  0  0  0
   12.2283    0.9699   -6.8486 C   0  0  0  0  0  0  0  0  0  0  0  0
   13.0113    2.1063   -6.2683 C   0  0  0  0  0  0  0  0  0  0  0  0
   14.5115    2.0311   -6.5225 C   0  0  0  0  0  0  0  0  0  0  0  0
   12.1592   -2.2059   -8.7910 C   0  0  0  0  0  0  0  0  0  0  0  0
   11.2400   -2.9504   -9.5376 C   0  0  0  0  0  0  0  0  0  0  0  0
   11.6496   -4.0807  -10.2586 C   0  0  0  0  0  0  0  0  0  0  0  0
   12.9487   -4.5317  -10.2602 C   0  0  0  0  0  0  0  0  0  0  0  0
   13.8692   -3.8121   -9.5008 C   0  0  0  0  0  0  0  0  0  0  0  0
   13.4854   -2.6929   -8.7968 C   0  0  0  0  0  0  0  0  0  0  0  0
    9.7930   -2.7762   -9.7901 C   0  0  0  0  0  0  0  0  0  0  0  0
    9.4282   -3.7903  -10.6620 N   0  0  0  0  0  0  0  0  0  0  0  0
   10.4785   -4.6314  -10.9809 C   0  0  0  0  0  0  0  0  0  0  0  0
    8.0733   -3.9775  -11.1349 C   0  0  0  0  0  0  0  0  0  0  0  0
    7.2380   -4.7614  -10.1292 C   0  0  0  0  0  0  0  0  0  0  0  0
   10.4077   -5.5894  -11.7087 O   0  0  0  0  0  0  0  0  0  0  0  0
    9.0166   -1.9501   -9.3702 O   0  0  0  0  0  0  0  0  0  0  0  0
    1.9960   23.6228    4.4215 C   0  0  0  0  0  0  0  0  0  0  0  0
    1.6565   24.9825    4.7074 C   0  0  0  0  0  0  0  0  0  0  0  0
    0.6036   25.3532    5.5368 C   0  0  0  0  0  0  0  0  0  0  0  0
    0.2593   26.6756    5.8362 C   0  0  0  0  0  0  0  0  0  0  0  0
    0.9342   27.7777    5.3264 C   0  0  0  0  0  0  0  0  0  0  0  0
    2.0119   27.4423    4.4623 C   0  0  0  0  0  0  0  0  0  0  0  0
    2.3745   26.0828    4.1579 C   0  0  0  0  0  0  0  0  0  0  0  0
    2.7991   28.3181    3.8475 N   0  0  0  0  0  0  0  0  0  0  0  0
    3.8879   27.5243    2.9707 S   0  0  0  0  0  0  0  0  0  0  0  0
    3.4146   26.0300    3.3299 N   0  0  0  0  0  0  0  0  0  0  0  0
    1.0519   22.2958    5.0355 S   0  0  0  0  0  0  0  0  0  0  0  0
    2.0833   21.1312    4.2708 C   0  0  0  0  0  0  0  0  0  0  0  0
    3.1024   21.7672    3.5837 C   0  0  0  0  0  0  0  0  0  0  0  0
    3.0545   23.1540    3.6668 C   0  0  0  0  0  0  0  0  0  0  0  0
    0.6161   29.1418    5.6134 C   0  0  0  0  0  0  0  0  0  0  0  0
   -0.3476   29.6561    6.4600 C   0  0  0  0  0  0  0  0  0  0  0  0
   -0.3621   31.0451    6.4982 C   0  0  0  0  0  0  0  0  0  0  0  0
    0.5873   31.6351    5.6841 C   0  0  0  0  0  0  0  0  0  0  0  0
    1.5150   30.4219    4.8527 S   0  0  0  0  0  0  0  0  0  0  0  0
   -0.1555   24.4006    6.1138 F   0  0  0  0  0  0  0  0  0  0  0  0
   -0.7896   26.8379    6.6643 F   0  0  0  0  0  0  0  0  0  0  0  0
    0.7887   33.0357    5.5338 C   0  0  0  0  0  0  0  0  0  0  0  0
    1.7043   33.7557    4.7854 C   0  0  0  0  0  0  0  0  0  0  0  0
    1.5359   35.1430    4.9217 C   0  0  0  0  0  0  0  0  0  0  0  0
    0.5191   35.5163    5.7626 C   0  0  0  0  0  0  0  0  0  0  0  0
   -0.2595   34.1070    6.4265 S   0  0  0  0  0  0  0  0  0  0  0  0
    2.7412   33.1770    3.8778 C   0  0  0  0  0  0  0  0  0  0  0  0
    2.1529   32.9114    2.4908 C   0  0  0  0  0  0  0  0  0  0  0  0
    1.8707   19.7267    4.3525 C   0  0  0  0  0  0  0  0  0  0  0  0
    2.9774   18.6749    3.5095 S   0  0  0  0  0  0  0  0  0  0  0  0
    2.1252   17.2481    4.0442 C   0  0  0  0  0  0  0  0  0  0  0  0
    1.0513   17.6103    4.8183 C   0  0  0  0  0  0  0  0  0  0  0  0
    0.8966   18.9914    5.0074 C   0  0  0  0  0  0  0  0  0  0  0  0
   -0.2403   19.5442    5.8054 C   0  0  0  0  0  0  0  0  0  0  0  0
   -1.4180   19.9149    4.9018 C   0  0  0  0  0  0  0  0  0  0  0  0
    2.5543   15.9476    3.6004 C   0  0  0  0  0  0  0  0  0  0  0  0
    2.1950   14.7280    4.1843 C   0  0  0  0  0  0  0  0  0  0  0  0
    2.5764   13.5025    3.6125 C   0  0  0  0  0  0  0  0  0  0  0  0
    3.3483   13.4318    2.4532 C   0  0  0  0  0  0  0  0  0  0  0  0
    3.7869   14.6645    1.9305 C   0  0  0  0  0  0  0  0  0  0  0  0
    3.4005   15.8594    2.4733 C   0  0  0  0  0  0  0  0  0  0  0  0
    1.4997   14.4237    5.4592 C   0  0  0  0  0  0  0  0  0  0  0  0
    1.5035   13.0454    5.5721 N   0  0  0  0  0  0  0  0  0  0  0  0
    2.1199   12.4141    4.5087 C   0  0  0  0  0  0  0  0  0  0  0  0
    0.9152   12.3387    6.6890 C   0  0  0  0  0  0  0  0  0  0  0  0
   -0.5616   12.0496    6.4441 C   0  0  0  0  0  0  0  0  0  0  0  0
    2.2477   11.2163    4.4221 O   0  0  0  0  0  0  0  0  0  0  0  0
    1.0335   15.1533    6.3018 O   0  0  0  0  0  0  0  0  0  0  0  0
   -3.9317   44.4913   12.0428 C   0  0  0  0  0  0  0  0  0  0  0  0
   -4.3377   45.6424   12.7885 C   0  0  0  0  0  0  0  0  0  0  0  0
   -5.1945   45.6293   13.8819 C   0  0  0  0  0  0  0  0  0  0  0  0
   -5.5594   46.7793   14.5909 C   0  0  0  0  0  0  0  0  0  0  0  0
   -5.1157   48.0625   14.2913 C   0  0  0  0  0  0  0  0  0  0  0  0
   -4.2367   48.1233   13.1719 C   0  0  0  0  0  0  0  0  0  0  0  0
   -3.8627   46.9376   12.4467 C   0  0  0  0  0  0  0  0  0  0  0  0
   -3.6624   49.2085   12.6595 N   0  0  0  0  0  0  0  0  0  0  0  0
   -2.7509   48.7888   11.4034 S   0  0  0  0  0  0  0  0  0  0  0  0
   -3.0358   47.2068   11.4424 N   0  0  0  0  0  0  0  0  0  0  0  0
   -2.8258   44.6691   10.7124 S   0  0  0  0  0  0  0  0  0  0  0  0
   -2.8473   42.9573   10.4028 C   0  0  0  0  0  0  0  0  0  0  0  0
   -3.6801   42.3121   11.2991 C   0  0  0  0  0  0  0  0  0  0  0  0
   -4.2852   43.1658   12.2134 C   0  0  0  0  0  0  0  0  0  0  0  0
   -5.4948   49.2265   15.0306 C   0  0  0  0  0  0  0  0  0  0  0  0
   -5.1086   50.5330   14.8043 C   0  0  0  0  0  0  0  0  0  0  0  0
   -5.6492   51.4356   15.7136 C   0  0  0  0  0  0  0  0  0  0  0  0
   -6.4611   50.8493   16.6663 C   0  0  0  0  0  0  0  0  0  0  0  0
   -6.5554   49.1381   16.4102 S   0  0  0  0  0  0  0  0  0  0  0  0
   -5.7239   44.4721   14.3217 F   0  0  0  0  0  0  0  0  0  0  0  0
   -6.3976   46.5921   15.6301 F   0  0  0  0  0  0  0  0  0  0  0  0
   -7.1436   51.5277   17.7186 C   0  0  0  0  0  0  0  0  0  0  0  0
   -7.8932   51.0503   18.7742 C   0  0  0  0  0  0  0  0  0  0  0  0
   -8.3821   52.0943   19.5928 C   0  0  0  0  0  0  0  0  0  0  0  0
   -8.0154   53.3327   19.1768 C   0  0  0  0  0  0  0  0  0  0  0  0
   -7.0480   53.2756   17.7628 S   0  0  0  0  0  0  0  0  0  0  0  0
   -8.2150   49.6170   19.0523 C   0  0  0  0  0  0  0  0  0  0  0  0
   -9.4577   49.1728   18.2778 C   0  0  0  0  0  0  0  0  0  0  0  0
   -2.0928   42.3385    9.3705 C   0  0  0  0  0  0  0  0  0  0  0  0
   -2.1978   40.6108    9.1878 S   0  0  0  0  0  0  0  0  0  0  0  0
   -1.0920   40.6321    7.8386 C   0  0  0  0  0  0  0  0  0  0  0  0
   -0.6782   41.9170    7.5856 C   0  0  0  0  0  0  0  0  0  0  0  0
   -1.2303   42.8884    8.4326 C   0  0  0  0  0  0  0  0  0  0  0  0
   -0.9415   44.3535    8.3427 C   0  0  0  0  0  0  0  0  0  0  0  0
    0.0244   44.7273    7.2255 C   0  0  0  0  0  0  0  0  0  0  0  0
   -0.7147   39.3904    7.2159 C   0  0  0  0  0  0  0  0  0  0  0  0
   -0.1981   39.2450    5.9247 C   0  0  0  0  0  0  0  0  0  0  0  0
    0.1941   37.9903    5.4257 C   0  0  0  0  0  0  0  0  0  0  0  0
    0.0886   36.8248    6.1846 C   0  0  0  0  0  0  0  0  0  0  0  0
   -0.4975   36.9741    7.4584 C   0  0  0  0  0  0  0  0  0  0  0  0
   -0.8764   38.1933    7.9470 C   0  0  0  0  0  0  0  0  0  0  0  0
   -0.0501   40.2279    4.8244 C   0  0  0  0  0  0  0  0  0  0  0  0
    0.4051   39.5081    3.7349 N   0  0  0  0  0  0  0  0  0  0  0  0
    0.5857   38.1650    4.0074 C   0  0  0  0  0  0  0  0  0  0  0  0
    0.6770   40.1033    2.4448 C   0  0  0  0  0  0  0  0  0  0  0  0
    2.1357   40.5312    2.3288 C   0  0  0  0  0  0  0  0  0  0  0  0
    0.9573   37.3596    3.1877 O   0  0  0  0  0  0  0  0  0  0  0  0
   -0.2818   41.4132    4.7845 O   0  0  0  0  0  0  0  0  0  0  0  0
    8.0965    0.5314   -6.2941 H   0  0  0  0  0  0  0  0  0  0  0  0
    6.8361    2.3558   -4.9419 H   0  0  0  0  0  0  0  0  0  0  0  0
    8.8071    9.4894   -1.7953 H   0  0  0  0  0  0  0  0  0  0  0  0
    7.4513   11.1680   -0.3921 H   0  0  0  0  0  0  0  0  0  0  0  0
    2.0308   10.9165    2.1263 H   0  0  0  0  0  0  0  0  0  0  0  0
    3.7814    7.9350    0.9943 H   0  0  0  0  0  0  0  0  0  0  0  0
    2.9280    8.5433   -0.4138 H   0  0  0  0  0  0  0  0  0  0  0  0
    1.8273    8.5753    2.4415 H   0  0  0  0  0  0  0  0  0  0  0  0
    1.4044    7.4087    1.1864 H   0  0  0  0  0  0  0  0  0  0  0  0
    0.9552    9.1018    0.9949 H   0  0  0  0  0  0  0  0  0  0  0  0
   13.8173   -0.1357   -7.8355 H   0  0  0  0  0  0  0  0  0  0  0  0
   12.8325    2.1396   -5.1888 H   0  0  0  0  0  0  0  0  0  0  0  0
   12.6247    3.0451   -6.6777 H   0  0  0  0  0  0  0  0  0  0  0  0
   14.9328    1.1250   -6.0927 H   0  0  0  0  0  0  0  0  0  0  0  0
   15.0007    2.8853   -6.0608 H   0  0  0  0  0  0  0  0  0  0  0  0
   14.7272    2.0518   -7.5882 H   0  0  0  0  0  0  0  0  0  0  0  0
   13.2307   -5.4055  -10.8250 H   0  0  0  0  0  0  0  0  0  0  0  0
   14.8982   -4.1364   -9.4598 H   0  0  0  0  0  0  0  0  0  0  0  0
   14.2264   -2.1762   -8.2082 H   0  0  0  0  0  0  0  0  0  0  0  0
    8.1365   -4.5157  -12.0834 H   0  0  0  0  0  0  0  0  0  0  0  0
    7.6395   -2.9874  -11.2961 H   0  0  0  0  0  0  0  0  0  0  0  0
    7.6751   -5.7430   -9.9609 H   0  0  0  0  0  0  0  0  0  0  0  0
    6.2282   -4.8879  -10.5091 H   0  0  0  0  0  0  0  0  0  0  0  0
    7.1927   -4.2259   -9.1838 H   0  0  0  0  0  0  0  0  0  0  0  0
    3.8554   21.2252    3.0393 H   0  0  0  0  0  0  0  0  0  0  0  0
    3.7589   23.8151    3.1982 H   0  0  0  0  0  0  0  0  0  0  0  0
   -1.0197   29.0490    7.0363 H   0  0  0  0  0  0  0  0  0  0  0  0
   -1.0439   31.6177    7.1021 H   0  0  0  0  0  0  0  0  0  0  0  0
    2.1613   35.8512    4.4120 H   0  0  0  0  0  0  0  0  0  0  0  0
    3.1389   32.2491    4.2922 H   0  0  0  0  0  0  0  0  0  0  0  0
    3.5614   33.8917    3.7871 H   0  0  0  0  0  0  0  0  0  0  0  0
    1.3450   32.1867    2.5521 H   0  0  0  0  0  0  0  0  0  0  0  0
    2.9190   32.5192    1.8270 H   0  0  0  0  0  0  0  0  0  0  0  0
    1.7612   33.8345    2.0699 H   0  0  0  0  0  0  0  0  0  0  0  0
    0.3779   16.8976    5.2536 H   0  0  0  0  0  0  0  0  0  0  0  0
    0.0784   20.4230    6.3684 H   0  0  0  0  0  0  0  0  0  0  0  0
   -0.5606   18.7828    6.5188 H   0  0  0  0  0  0  0  0  0  0  0  0
   -1.1234   20.6678    4.1749 H   0  0  0  0  0  0  0  0  0  0  0  0
   -2.2343   20.3141    5.4975 H   0  0  0  0  0  0  0  0  0  0  0  0
   -1.7726   19.0373    4.3655 H   0  0  0  0  0  0  0  0  0  0  0  0
    4.4256   14.6547    1.0596 H   0  0  0  0  0  0  0  0  0  0  0  0
    3.7380   16.7782    2.0165 H   0  0  0  0  0  0  0  0  0  0  0  0
    1.4715   11.4066    6.8121 H   0  0  0  0  0  0  0  0  0  0  0  0
    1.0375   12.9666    7.5749 H   0  0  0  0  0  0  0  0  0  0  0  0
   -0.9785   11.5185    7.2950 H   0  0  0  0  0  0  0  0  0  0  0  0
   -0.6823   11.4358    5.5544 H   0  0  0  0  0  0  0  0  0  0  0  0
   -1.1088   12.9799    6.3098 H   0  0  0  0  0  0  0  0  0  0  0  0
   -3.8360   41.2477   11.2814 H   0  0  0  0  0  0  0  0  0  0  0  0
   -4.9592   42.8234   12.9756 H   0  0  0  0  0  0  0  0  0  0  0  0
   -4.4528   50.8038   13.9984 H   0  0  0  0  0  0  0  0  0  0  0  0
   -5.4584   52.4941   15.6912 H   0  0  0  0  0  0  0  0  0  0  0  0
   -8.9863   51.9175   20.4651 H   0  0  0  0  0  0  0  0  0  0  0  0
   -8.2499   54.2818   19.6161 H   0  0  0  0  0  0  0  0  0  0  0  0
   -8.3995   49.5022   20.1225 H   0  0  0  0  0  0  0  0  0  0  0  0
   -7.3726   48.9775   18.7832 H   0  0  0  0  0  0  0  0  0  0  0  0
  -10.3147   49.7826   18.5560 H   0  0  0  0  0  0  0  0  0  0  0  0
   -9.6823   48.1325   18.4969 H   0  0  0  0  0  0  0  0  0  0  0  0
   -9.2964   49.2714   17.2075 H   0  0  0  0  0  0  0  0  0  0  0  0
    0.0128   42.1489    6.8005 H   0  0  0  0  0  0  0  0  0  0  0  0
   -0.5390   44.6947    9.3023 H   0  0  0  0  0  0  0  0  0  0  0  0
   -1.8870   44.8854    8.1951 H   0  0  0  0  0  0  0  0  0  0  0  0
    0.9986   44.2719    7.3877 H   0  0  0  0  0  0  0  0  0  0  0  0
    0.1529   45.8069    7.2006 H   0  0  0  0  0  0  0  0  0  0  0  0
   -0.3573   44.4036    6.2605 H   0  0  0  0  0  0  0  0  0  0  0  0
   -0.6301   36.0931    8.0688 H   0  0  0  0  0  0  0  0  0  0  0  0
   -1.3020   38.2539    8.9377 H   0  0  0  0  0  0  0  0  0  0  0  0
    0.4381   39.3571    1.6832 H   0  0  0  0  0  0  0  0  0  0  0  0
    0.0163   40.9673    2.3411 H   0  0  0  0  0  0  0  0  0  0  0  0
    2.3119   40.9766    1.3539 H   0  0  0  0  0  0  0  0  0  0  0  0
    2.7892   39.6696    2.4435 H   0  0  0  0  0  0  0  0  0  0  0  0
    2.3758   41.2630    3.0969 H   0  0  0  0  0  0  0  0  0  0  0  0
  1  2  1  0  0  0  0
  2  3  2  0  0  0  0
  2  7  1  0  0  0  0
  3  4  1  0  0  0  0
  4 21  1  0  0  0  0
  4  5  2  0  0  0  0
  5 15  1  0  0  0  0
  6  5  1  0  0  0  0
  6  8  2  0  0  0  0
  7  6  1  0  0  0  0
  9  8  1  0  0  0  0
 10  7  2  0  0  0  0
 10  9  1  0  0  0  0
 11  1  1  0  0  0  0
 12 13  2  0  0  0  0
 12 11  1  0  0  0  0
 13 14  1  0  0  0  0
 14146  1  0  0  0  0
 14  1  2  0  0  0  0
 15 16  2  0  0  0  0
 15 19  1  0  0  0  0
 16 17  1  0  0  0  0
 17148  1  0  0  0  0
 17 18  2  0  0  0  0
 18 22  1  0  0  0  0
 19 18  1  0  0  0  0
 20  3  1  0  0  0  0
 22 26  1  0  0  0  0
 22 23  2  0  0  0  0
 23 24  1  0  0  0  0
 24 25  2  0  0  0  0
 24149  1  0  0  0  0
 25 87  1  0  0  0  0
 26 25  1  0  0  0  0
 27 23  1  0  0  0  0
 27150  1  0  0  0  0
 27 28  1  0  0  0  0
 28152  1  0  0  0  0
 29 12  1  0  0  0  0
 30 29  1  0  0  0  0
 31 32  2  0  0  0  0
 31 30  1  0  0  0  0
 32 33  1  0  0  0  0
 33 29  2  0  0  0  0
 33 34  1  0  0  0  0
 34156  1  0  0  0  0
 35 34  1  0  0  0  0
 35158  1  0  0  0  0
 35159  1  0  0  0  0
 36 31  1  0  0  0  0
 37 36  2  0  0  0  0
 38 37  1  0  0  0  0
 39 38  2  0  0  0  0
 39 40  1  0  0  0  0
 40162  1  0  0  0  0
 40 41  2  0  0  0  0
 41 36  1  0  0  0  0
 41163  1  0  0  0  0
 42 37  1  0  0  0  0
 42 48  2  0  0  0  0
 43 42  1  0  0  0  0
 44 43  1  0  0  0  0
 44 38  1  0  0  0  0
 45 43  1  0  0  0  0
 45 46  1  0  0  0  0
 46166  1  0  0  0  0
 46168  1  0  0  0  0
 47 44  2  0  0  0  0
 49 50  1  0  0  0  0
 49 59  1  0  0  0  0
 50 51  2  0  0  0  0
 51 52  1  0  0  0  0
 51 68  1  0  0  0  0
 52 69  1  0  0  0  0
 53 63  1  0  0  0  0
 53 52  2  0  0  0  0
 54 53  1  0  0  0  0
 55 54  1  0  0  0  0
 55 50  1  0  0  0  0
 56 54  2  0  0  0  0
 57 58  1  0  0  0  0
 57 56  1  0  0  0  0
 58 55  2  0  0  0  0
 60 77  1  0  0  0  0
 60 59  1  0  0  0  0
 61 62  1  0  0  0  0
 61 60  2  0  0  0  0
 62 49  2  0  0  0  0
 63 64  2  0  0  0  0
 64 65  1  0  0  0  0
 64171  1  0  0  0  0
 65172  1  0  0  0  0
 66 65  2  0  0  0  0
 67 63  1  0  0  0  0
 67 66  1  0  0  0  0
 70 66  1  0  0  0  0
 70 74  1  0  0  0  0
 71 72  1  0  0  0  0
 71 70  2  0  0  0  0
 72 73  2  0  0  0  0
 73135  1  0  0  0  0
 73 74  1  0  0  0  0
 75174  1  0  0  0  0
 75 71  1  0  0  0  0
 76176  1  0  0  0  0
 76 75  1  0  0  0  0
 77 81  2  0  0  0  0
 78 79  1  0  0  0  0
 78 77  1  0  0  0  0
 79 80  2  0  0  0  0
 80 81  1  0  0  0  0
 80179  1  0  0  0  0
 81 82  1  0  0  0  0
 82180  1  0  0  0  0
 82181  1  0  0  0  0
 83183  1  0  0  0  0
 83 82  1  0  0  0  0
 84 79  1  0  0  0  0
 84 85  1  0  0  0  0
 85 90  1  0  0  0  0
 86 85  2  0  0  0  0
 86 92  1  0  0  0  0
 87 86  1  0  0  0  0
 88 87  2  0  0  0  0
 88 89  1  0  0  0  0
 89 84  2  0  0  0  0
 90 91  1  0  0  0  0
 90 96  2  0  0  0  0
 91 93  1  0  0  0  0
 92 91  1  0  0  0  0
 93187  1  0  0  0  0
 93188  1  0  0  0  0
 94 93  1  0  0  0  0
 94189  1  0  0  0  0
 95 92  2  0  0  0  0
 97110  2  0  0  0  0
 97 98  1  0  0  0  0
 98 99  2  0  0  0  0
 99116  1  0  0  0  0
 99100  1  0  0  0  0
100117  1  0  0  0  0
101100  2  0  0  0  0
101111  1  0  0  0  0
102101  1  0  0  0  0
103 98  1  0  0  0  0
103102  1  0  0  0  0
104102  2  0  0  0  0
105106  1  0  0  0  0
105104  1  0  0  0  0
106103  2  0  0  0  0
107 97  1  0  0  0  0
108107  1  0  0  0  0
108109  2  0  0  0  0
109110  1  0  0  0  0
110193  1  0  0  0  0
111115  1  0  0  0  0
112111  2  0  0  0  0
112113  1  0  0  0  0
113114  2  0  0  0  0
114118  1  0  0  0  0
115114  1  0  0  0  0
118122  1  0  0  0  0
118119  2  0  0  0  0
119123  1  0  0  0  0
119120  1  0  0  0  0
120196  1  0  0  0  0
121120  2  0  0  0  0
121197  1  0  0  0  0
122121  1  0  0  0  0
123198  1  0  0  0  0
124201  1  0  0  0  0
124200  1  0  0  0  0
124123  1  0  0  0  0
125108  1  0  0  0  0
126125  1  0  0  0  0
127126  1  0  0  0  0
128127  2  0  0  0  0
128129  1  0  0  0  0
129125  2  0  0  0  0
130129  1  0  0  0  0
130204  1  0  0  0  0
131206  1  0  0  0  0
131130  1  0  0  0  0
132127  1  0  0  0  0
132137  2  0  0  0  0
133132  1  0  0  0  0
134133  2  0  0  0  0
134135  1  0  0  0  0
135136  2  0  0  0  0
136137  1  0  0  0  0
136209  1  0  0  0  0
137210  1  0  0  0  0
138133  1  0  0  0  0
139140  1  0  0  0  0
139138  1  0  0  0  0
140134  1  0  0  0  0
141139  1  0  0  0  0
142214  1  0  0  0  0
142141  1  0  0  0  0
142215  1  0  0  0  0
143140  2  0  0  0  0
144138  2  0  0  0  0
145 13  1  0  0  0  0
147 16  1  0  0  0  0
151 27  1  0  0  0  0
153 28  1  0  0  0  0
154 28  1  0  0  0  0
155 32  1  0  0  0  0
157 34  1  0  0  0  0
160 35  1  0  0  0  0
161 39  1  0  0  0  0
164 45  1  0  0  0  0
165 45  1  0  0  0  0
167 46  1  0  0  0  0
169 61  1  0  0  0  0
170 62  1  0  0  0  0
173 72  1  0  0  0  0
175 75  1  0  0  0  0
177 76  1  0  0  0  0
178 76  1  0  0  0  0
182 83  1  0  0  0  0
184 83  1  0  0  0  0
185 88  1  0  0  0  0
186 89  1  0  0  0  0
190 94  1  0  0  0  0
191 94  1  0  0  0  0
192109  1  0  0  0  0
194112  1  0  0  0  0
195113  1  0  0  0  0
199123  1  0  0  0  0
202124  1  0  0  0  0
203128  1  0  0  0  0
205130  1  0  0  0  0
207131  1  0  0  0  0
208131  1  0  0  0  0
211141  1  0  0  0  0
212141  1  0  0  0  0
213142  1  0  0  0  0
M  END
