SCF done       -402.098341670848          0.000262673324
 OpenBabel12282109573D

206226  0  0  0  0  0  0  0  0999 V2000
   -1.2040    6.4416   -7.3242 C   0  0  0  0  0  0  0  0  0  0  0  0
   -1.2810    5.5008   -8.3412 C   0  0  0  0  0  0  0  0  0  0  0  0
   -0.7911    4.1916   -8.2260 C   0  0  0  0  0  0  0  0  0  0  0  0
   -0.1759    3.6817   -7.0899 C   0  0  0  0  0  0  0  0  0  0  0  0
   -0.0724    4.6220   -6.0339 C   0  0  0  0  0  0  0  0  0  0  0  0
   -0.5726    5.9509   -6.1566 C   0  0  0  0  0  0  0  0  0  0  0  0
   -1.8524    5.8151   -9.5207 F   0  0  0  0  0  0  0  0  0  0  0  0
   -0.9479    3.3994   -9.3055 F   0  0  0  0  0  0  0  0  0  0  0  0
    0.4508    4.5127   -4.8038 N   0  0  0  0  0  0  0  0  0  0  0  0
    0.2637    5.6849   -4.2628 N   0  0  0  0  0  0  0  0  0  0  0  0
   -0.3311    6.5780   -4.9998 N   0  0  0  0  0  0  0  0  0  0  0  0
    0.7257    5.9918   -2.9394 C   0  0  0  0  0  0  0  0  0  0  0  0
    1.9713    6.8695   -3.0046 C   0  0  0  0  0  0  0  0  0  0  0  0
   -1.7003    7.7864   -7.3919 C   0  0  0  0  0  0  0  0  0  0  0  0
   -1.5098    8.8463   -6.0222 S   0  0  0  0  0  0  0  0  0  0  0  0
   -2.3024   10.1159   -6.8605 C   0  0  0  0  0  0  0  0  0  0  0  0
   -2.6940    9.7637   -8.1189 C   0  0  0  0  0  0  0  0  0  0  0  0
   -2.3483    8.4300   -8.4178 C   0  0  0  0  0  0  0  0  0  0  0  0
   -3.4419   10.6537   -9.0612 C   0  0  0  0  0  0  0  0  0  0  0  0
   -4.9273   10.2900   -9.0854 C   0  0  0  0  0  0  0  0  0  0  0  0
    0.3003    2.3375   -6.9654 C   0  0  0  0  0  0  0  0  0  0  0  0
    0.1646    1.1719   -8.2432 S   0  0  0  0  0  0  0  0  0  0  0  0
    0.8994   -0.0582   -7.2546 C   0  0  0  0  0  0  0  0  0  0  0  0
    1.2354    0.4308   -5.9982 C   0  0  0  0  0  0  0  0  0  0  0  0
    0.8940    1.7797   -5.8537 C   0  0  0  0  0  0  0  0  0  0  0  0
    1.8854   -0.4007   -4.9372 C   0  0  0  0  0  0  0  0  0  0  0  0
    2.2279    0.3698   -3.6685 C   0  0  0  0  0  0  0  0  0  0  0  0
    1.0536   -1.3609   -7.8020 C   0  0  0  0  0  0  0  0  0  0  0  0
    0.7549   -1.7437   -9.0963 C   0  0  0  0  0  0  0  0  0  0  0  0
    0.9848   -3.0916   -9.3499 C   0  0  0  0  0  0  0  0  0  0  0  0
    1.4556   -3.7868   -8.2532 C   0  0  0  0  0  0  0  0  0  0  0  0
    1.6202   -2.7191   -6.8855 S   0  0  0  0  0  0  0  0  0  0  0  0
    1.7681   -5.1869   -8.1484 C   0  0  0  0  0  0  0  0  0  0  0  0
    1.9408   -6.0192   -9.2671 C   0  0  0  0  0  0  0  0  0  0  0  0
    2.1941   -7.3725   -9.1593 C   0  0  0  0  0  0  0  0  0  0  0  0
    2.2920   -8.0381   -7.9266 C   0  0  0  0  0  0  0  0  0  0  0  0
    2.1563   -7.1996   -6.8082 C   0  0  0  0  0  0  0  0  0  0  0  0
    1.9119   -5.8448   -6.9157 C   0  0  0  0  0  0  0  0  0  0  0  0
    1.7936   -5.1487   -5.7712 F   0  0  0  0  0  0  0  0  0  0  0  0
    2.2748   -7.7030   -5.5676 F   0  0  0  0  0  0  0  0  0  0  0  0
    2.3315   -8.0665  -10.3024 F   0  0  0  0  0  0  0  0  0  0  0  0
    1.8734   -5.5081  -10.5075 F   0  0  0  0  0  0  0  0  0  0  0  0
    2.4950   -9.4588   -7.8221 C   0  0  0  0  0  0  0  0  0  0  0  0
    3.0562  -10.3948   -9.1799 S   0  0  0  0  0  0  0  0  0  0  0  0
    2.9828  -11.8686   -8.2699 C   0  0  0  0  0  0  0  0  0  0  0  0
    2.5397  -11.6193   -6.9845 C   0  0  0  0  0  0  0  0  0  0  0  0
    2.2752  -10.2775   -6.7320 C   0  0  0  0  0  0  0  0  0  0  0  0
    3.5128  -17.0174   -8.9431 C   0  0  0  0  0  0  0  0  0  0  0  0
    3.9164  -17.9667   -9.8739 C   0  0  0  0  0  0  0  0  0  0  0  0
    3.7961  -19.3482   -9.6717 C   0  0  0  0  0  0  0  0  0  0  0  0
    3.2577  -19.9315   -8.5301 C   0  0  0  0  0  0  0  0  0  0  0  0
    2.8604  -18.9888   -7.5479 C   0  0  0  0  0  0  0  0  0  0  0  0
    2.9931  -17.5860   -7.7555 C   0  0  0  0  0  0  0  0  0  0  0  0
    4.4467  -17.5835  -11.0517 F   0  0  0  0  0  0  0  0  0  0  0  0
    4.2251  -20.1375  -10.6767 F   0  0  0  0  0  0  0  0  0  0  0  0
    2.3268  -19.1546   -6.3287 N   0  0  0  0  0  0  0  0  0  0  0  0
    2.1698  -17.9433   -5.8713 N   0  0  0  0  0  0  0  0  0  0  0  0
    2.5383  -16.9725   -6.6579 N   0  0  0  0  0  0  0  0  0  0  0  0
    1.5902  -17.6875   -4.5837 C   0  0  0  0  0  0  0  0  0  0  0  0
    0.1879  -17.1092   -4.7399 C   0  0  0  0  0  0  0  0  0  0  0  0
    3.5578  -15.5978   -9.1184 C   0  0  0  0  0  0  0  0  0  0  0  0
    2.9905  -14.5604   -7.8473 S   0  0  0  0  0  0  0  0  0  0  0  0
    3.3016  -13.1426   -8.8140 C   0  0  0  0  0  0  0  0  0  0  0  0
    3.8271  -13.4770  -10.0554 C   0  0  0  0  0  0  0  0  0  0  0  0
    3.9685  -14.8614  -10.2086 C   0  0  0  0  0  0  0  0  0  0  0  0
    4.1908  -12.4645  -11.0958 C   0  0  0  0  0  0  0  0  0  0  0  0
    4.8349  -13.0537  -12.3443 C   0  0  0  0  0  0  0  0  0  0  0  0
    3.0837  -21.3396   -8.3506 C   0  0  0  0  0  0  0  0  0  0  0  0
    3.5716  -22.5057   -9.5394 S   0  0  0  0  0  0  0  0  0  0  0  0
    2.9647  -23.8139   -8.5651 C   0  0  0  0  0  0  0  0  0  0  0  0
    2.4184  -23.3518   -7.3735 C   0  0  0  0  0  0  0  0  0  0  0  0
    2.4974  -21.9597   -7.2674 C   0  0  0  0  0  0  0  0  0  0  0  0
    1.8190  -24.2515   -6.3386 C   0  0  0  0  0  0  0  0  0  0  0  0
    1.3549  -23.5273   -5.0813 C   0  0  0  0  0  0  0  0  0  0  0  0
    3.0704  -25.1375   -9.0721 C   0  0  0  0  0  0  0  0  0  0  0  0
    3.7054  -25.5159  -10.2403 C   0  0  0  0  0  0  0  0  0  0  0  0
    3.6315  -26.8797  -10.5025 C   0  0  0  0  0  0  0  0  0  0  0  0
    2.9253  -27.5866   -9.5494 C   0  0  0  0  0  0  0  0  0  0  0  0
    2.3571  -26.5156   -8.2981 S   0  0  0  0  0  0  0  0  0  0  0  0
    2.6271  -28.9939   -9.5201 C   0  0  0  0  0  0  0  0  0  0  0  0
    3.3122  -29.9374  -10.3032 C   0  0  0  0  0  0  0  0  0  0  0  0
    2.9899  -31.2804  -10.3062 C   0  0  0  0  0  0  0  0  0  0  0  0
    1.9459  -31.8195   -9.5366 C   0  0  0  0  0  0  0  0  0  0  0  0
    1.2848  -30.8817   -8.7266 C   0  0  0  0  0  0  0  0  0  0  0  0
    1.6130  -29.5403   -8.7167 C   0  0  0  0  0  0  0  0  0  0  0  0
    0.9022  -28.7383   -7.9046 F   0  0  0  0  0  0  0  0  0  0  0  0
    0.2947  -31.2744   -7.9071 F   0  0  0  0  0  0  0  0  0  0  0  0
    3.7121  -32.0859  -11.1038 F   0  0  0  0  0  0  0  0  0  0  0  0
    4.3356  -29.5525  -11.0834 F   0  0  0  0  0  0  0  0  0  0  0  0
    1.5786  -33.2096   -9.5870 C   0  0  0  0  0  0  0  0  0  0  0  0
    2.6467  -34.4041  -10.2710 S   0  0  0  0  0  0  0  0  0  0  0  0
    1.5071  -35.6772   -9.9779 C   0  0  0  0  0  0  0  0  0  0  0  0
    0.3639  -35.1733   -9.3859 C   0  0  0  0  0  0  0  0  0  0  0  0
    0.4055  -33.8016   -9.1616 C   0  0  0  0  0  0  0  0  0  0  0  0
    0.8658  -40.7794  -10.8766 C   0  0  0  0  0  0  0  0  0  0  0  0
    1.5290  -41.9008  -11.3591 C   0  0  0  0  0  0  0  0  0  0  0  0
    0.9298  -43.1624  -11.4774 C   0  0  0  0  0  0  0  0  0  0  0  0
   -0.3880  -43.4416  -11.1340 C   0  0  0  0  0  0  0  0  0  0  0  0
   -1.0912  -42.3182  -10.6297 C   0  0  0  0  0  0  0  0  0  0  0  0
   -0.4753  -41.0397  -10.5062 C   0  0  0  0  0  0  0  0  0  0  0  0
    2.8158  -41.8160  -11.7479 F   0  0  0  0  0  0  0  0  0  0  0  0
    1.7067  -44.1490  -11.9650 F   0  0  0  0  0  0  0  0  0  0  0  0
   -2.3527  -42.1879  -10.1929 N   0  0  0  0  0  0  0  0  0  0  0  0
   -2.4517  -40.9350   -9.8438 N   0  0  0  0  0  0  0  0  0  0  0  0
   -1.3870  -40.2013  -10.0020 N   0  0  0  0  0  0  0  0  0  0  0  0
   -3.6788  -40.3797   -9.3490 C   0  0  0  0  0  0  0  0  0  0  0  0
   -4.3328  -39.5070  -10.4151 C   0  0  0  0  0  0  0  0  0  0  0  0
    1.4179  -39.4643  -10.7573 C   0  0  0  0  0  0  0  0  0  0  0  0
    0.4370  -38.1785  -10.1265 S   0  0  0  0  0  0  0  0  0  0  0  0
    1.7355  -37.0333  -10.3373 C   0  0  0  0  0  0  0  0  0  0  0  0
    2.8676  -37.6382  -10.8680 C   0  0  0  0  0  0  0  0  0  0  0  0
    2.6728  -39.0058  -11.0955 C   0  0  0  0  0  0  0  0  0  0  0  0
    4.1375  -36.9008  -11.1562 C   0  0  0  0  0  0  0  0  0  0  0  0
    5.2737  -37.7835  -11.6571 C   0  0  0  0  0  0  0  0  0  0  0  0
   -1.0001  -44.7272  -11.2721 C   0  0  0  0  0  0  0  0  0  0  0  0
   -0.1499  -46.1192  -11.8616 S   0  0  0  0  0  0  0  0  0  0  0  0
   -1.5679  -47.1099  -11.6917 C   0  0  0  0  0  0  0  0  0  0  0  0
   -2.6473  -46.3804  -11.2087 C   0  0  0  0  0  0  0  0  0  0  0  0
   -2.3090  -45.0434  -10.9752 C   0  0  0  0  0  0  0  0  0  0  0  0
   -4.0208  -46.9443  -10.9999 C   0  0  0  0  0  0  0  0  0  0  0  0
   -5.1061  -45.8808  -10.8722 C   0  0  0  0  0  0  0  0  0  0  0  0
   -1.4818  -48.4864  -12.0566 C   0  0  0  0  0  0  0  0  0  0  0  0
   -2.3003  -49.5463  -11.7228 C   0  0  0  0  0  0  0  0  0  0  0  0
   -1.8875  -50.7606  -12.2689 C   0  0  0  0  0  0  0  0  0  0  0  0
   -0.7408  -50.6668  -13.0307 C   0  0  0  0  0  0  0  0  0  0  0  0
   -0.1676  -49.0213  -13.0549 S   0  0  0  0  0  0  0  0  0  0  0  0
   -0.0470  -51.7130  -13.7366 C   0  0  0  0  0  0  0  0  0  0  0  0
   -0.5898  -52.9912  -13.9461 C   0  0  0  0  0  0  0  0  0  0  0  0
    0.0888  -53.9915  -14.6170 C   0  0  0  0  0  0  0  0  0  0  0  0
    1.3768  -53.8202  -15.1439 C   0  0  0  0  0  0  0  0  0  0  0  0
    1.9145  -52.5395  -14.9500 C   0  0  0  0  0  0  0  0  0  0  0  0
    1.2355  -51.5380  -14.2814 C   0  0  0  0  0  0  0  0  0  0  0  0
    1.8561  -50.3540  -14.1566 F   0  0  0  0  0  0  0  0  0  0  0  0
    3.1288  -52.2360  -15.4349 F   0  0  0  0  0  0  0  0  0  0  0  0
   -0.5323  -55.1755  -14.7463 F   0  0  0  0  0  0  0  0  0  0  0  0
   -1.8218  -53.2890  -13.5010 F   0  0  0  0  0  0  0  0  0  0  0  0
    2.0867  -54.8720  -15.8343 C   0  0  0  0  0  0  0  0  0  0  0  0
    1.2478  -56.2588  -16.4754 S   0  0  0  0  0  0  0  0  0  0  0  0
    2.7066  -56.9093  -17.0831 C   0  0  0  0  0  0  0  0  0  0  0  0
    3.7819  -56.1233  -16.8038 C   0  0  0  0  0  0  0  0  0  0  0  0
    3.4335  -54.9615  -16.0966 C   0  0  0  0  0  0  0  0  0  0  0  0
    0.9381    5.0427   -2.4451 H   0  0  0  0  0  0  0  0  0  0  0  0
   -0.0761    6.5175   -2.4158 H   0  0  0  0  0  0  0  0  0  0  0  0
    2.7753    6.3498   -3.5203 H   0  0  0  0  0  0  0  0  0  0  0  0
    2.3018    7.1168   -2.0001 H   0  0  0  0  0  0  0  0  0  0  0  0
    1.7458    7.7888   -3.5391 H   0  0  0  0  0  0  0  0  0  0  0  0
   -2.4352   11.0635   -6.3761 H   0  0  0  0  0  0  0  0  0  0  0  0
   -2.5716    7.9712   -9.3627 H   0  0  0  0  0  0  0  0  0  0  0  0
   -3.0274   10.5448  -10.0657 H   0  0  0  0  0  0  0  0  0  0  0  0
   -3.3249   11.6939   -8.7521 H   0  0  0  0  0  0  0  0  0  0  0  0
   -5.0601    9.2576   -9.3996 H   0  0  0  0  0  0  0  0  0  0  0  0
   -5.4642   10.9351   -9.7767 H   0  0  0  0  0  0  0  0  0  0  0  0
   -5.3607   10.4054   -8.0944 H   0  0  0  0  0  0  0  0  0  0  0  0
    1.0607    2.3604   -4.9672 H   0  0  0  0  0  0  0  0  0  0  0  0
    2.7989   -0.8436   -5.3471 H   0  0  0  0  0  0  0  0  0  0  0  0
    1.2202   -1.2329   -4.6843 H   0  0  0  0  0  0  0  0  0  0  0  0
    2.9103    1.1878   -3.8865 H   0  0  0  0  0  0  0  0  0  0  0  0
    2.7076   -0.2970   -2.9560 H   0  0  0  0  0  0  0  0  0  0  0  0
    1.3301    0.7741   -3.2075 H   0  0  0  0  0  0  0  0  0  0  0  0
    0.3788   -1.0534   -9.8301 H   0  0  0  0  0  0  0  0  0  0  0  0
    0.7921   -3.5429  -10.3045 H   0  0  0  0  0  0  0  0  0  0  0  0
    2.4155  -12.4019   -6.2576 H   0  0  0  0  0  0  0  0  0  0  0  0
    1.9146   -9.9240   -5.7848 H   0  0  0  0  0  0  0  0  0  0  0  0
    2.2319  -16.9761   -4.0581 H   0  0  0  0  0  0  0  0  0  0  0  0
    1.5693  -18.6379   -4.0483 H   0  0  0  0  0  0  0  0  0  0  0  0
    0.2315  -16.1915   -5.3208 H   0  0  0  0  0  0  0  0  0  0  0  0
   -0.2320  -16.8896   -3.7627 H   0  0  0  0  0  0  0  0  0  0  0  0
   -0.4611  -17.8177   -5.2489 H   0  0  0  0  0  0  0  0  0  0  0  0
    4.3562  -15.3162  -11.0992 H   0  0  0  0  0  0  0  0  0  0  0  0
    4.8730  -11.7331  -10.6502 H   0  0  0  0  0  0  0  0  0  0  0  0
    3.2872  -11.9161  -11.3825 H   0  0  0  0  0  0  0  0  0  0  0  0
    5.7477  -13.5888  -12.0936 H   0  0  0  0  0  0  0  0  0  0  0  0
    5.0870  -12.2529  -13.0353 H   0  0  0  0  0  0  0  0  0  0  0  0
    4.1543  -13.7354  -12.8483 H   0  0  0  0  0  0  0  0  0  0  0  0
    2.1379  -21.3893   -6.4330 H   0  0  0  0  0  0  0  0  0  0  0  0
    2.5560  -25.0131   -6.0642 H   0  0  0  0  0  0  0  0  0  0  0  0
    0.9701  -24.7825   -6.7820 H   0  0  0  0  0  0  0  0  0  0  0  0
    2.1845  -23.0090   -4.6063 H   0  0  0  0  0  0  0  0  0  0  0  0
    0.9504  -24.2479   -4.3746 H   0  0  0  0  0  0  0  0  0  0  0  0
    0.5768  -22.8051   -5.3158 H   0  0  0  0  0  0  0  0  0  0  0  0
    4.2061  -24.8107  -10.8795 H   0  0  0  0  0  0  0  0  0  0  0  0
    4.0663  -27.3273  -11.3759 H   0  0  0  0  0  0  0  0  0  0  0  0
   -0.4727  -35.7977   -9.1282 H   0  0  0  0  0  0  0  0  0  0  0  0
   -0.4086  -33.2600   -8.7189 H   0  0  0  0  0  0  0  0  0  0  0  0
   -3.4466  -39.7810   -8.4651 H   0  0  0  0  0  0  0  0  0  0  0  0
   -4.3225  -41.2171   -9.0757 H   0  0  0  0  0  0  0  0  0  0  0  0
   -3.6537  -38.7094  -10.7052 H   0  0  0  0  0  0  0  0  0  0  0  0
   -5.2462  -39.0685  -10.0242 H   0  0  0  0  0  0  0  0  0  0  0  0
   -4.5765  -40.0993  -11.2938 H   0  0  0  0  0  0  0  0  0  0  0  0
    3.4307  -39.6464  -11.5022 H   0  0  0  0  0  0  0  0  0  0  0  0
    4.4582  -36.3851  -10.2452 H   0  0  0  0  0  0  0  0  0  0  0  0
    3.9312  -36.1237  -11.8999 H   0  0  0  0  0  0  0  0  0  0  0  0
    5.5191  -38.5507  -10.9266 H   0  0  0  0  0  0  0  0  0  0  0  0
    6.1593  -37.1754  -11.8246 H   0  0  0  0  0  0  0  0  0  0  0  0
    5.0086  -38.2634  -12.5959 H   0  0  0  0  0  0  0  0  0  0  0  0
   -2.9852  -44.2992  -10.6012 H   0  0  0  0  0  0  0  0  0  0  0  0
   -4.0191  -47.5580  -10.0933 H   0  0  0  0  0  0  0  0  0  0  0  0
   -4.2584  -47.6001  -11.8419 H   0  0  0  0  0  0  0  0  0  0  0  0
   -4.9671  -45.2880   -9.9720 H   0  0  0  0  0  0  0  0  0  0  0  0
   -6.0818  -46.3584  -10.8170 H   0  0  0  0  0  0  0  0  0  0  0  0
   -5.0956  -45.2180  -11.7340 H   0  0  0  0  0  0  0  0  0  0  0  0
   -3.1528  -49.4643  -11.0768 H   0  0  0  0  0  0  0  0  0  0  0  0
   -2.4138  -51.6786  -12.0894 H   0  0  0  0  0  0  0  0  0  0  0  0
    2.6865  -57.8424  -17.6104 H   0  0  0  0  0  0  0  0  0  0  0  0
    4.7891  -56.3627  -17.0929 H   0  0  0  0  0  0  0  0  0  0  0  0
    4.1554  -54.2317  -15.7833 H   0  0  0  0  0  0  0  0  0  0  0  0
  1  6  1  0  0  0  0
  2  3  1  0  0  0  0
  2  1  2  0  0  0  0
  3  4  2  0  0  0  0
  4 21  1  0  0  0  0
  4  5  1  0  0  0  0
  5  9  2  0  0  0  0
  6  5  1  0  0  0  0
  6 11  2  0  0  0  0
  7  2  1  0  0  0  0
  8  3  1  0  0  0  0
  9 10  1  0  0  0  0
 10 12  1  0  0  0  0
 11 10  1  0  0  0  0
 12142  1  0  0  0  0
 12143  1  0  0  0  0
 13 12  1  0  0  0  0
 13145  1  0  0  0  0
 14  1  1  0  0  0  0
 14 15  1  0  0  0  0
 16147  1  0  0  0  0
 16 15  1  0  0  0  0
 17 16  2  0  0  0  0
 18 17  1  0  0  0  0
 18 14  2  0  0  0  0
 19150  1  0  0  0  0
 19 17  1  0  0  0  0
 20 19  1  0  0  0  0
 20153  1  0  0  0  0
 21 25  2  0  0  0  0
 22 23  1  0  0  0  0
 22 21  1  0  0  0  0
 23 24  2  0  0  0  0
 24 25  1  0  0  0  0
 24 26  1  0  0  0  0
 25154  1  0  0  0  0
 26156  1  0  0  0  0
 26 27  1  0  0  0  0
 27159  1  0  0  0  0
 27158  1  0  0  0  0
 28 23  1  0  0  0  0
 28 32  1  0  0  0  0
 29 28  2  0  0  0  0
 30 29  1  0  0  0  0
 30 31  2  0  0  0  0
 31 33  1  0  0  0  0
 31 32  1  0  0  0  0
 33 38  2  0  0  0  0
 34 35  2  0  0  0  0
 34 33  1  0  0  0  0
 35 36  1  0  0  0  0
 36 43  1  0  0  0  0
 36 37  2  0  0  0  0
 37 40  1  0  0  0  0
 38 37  1  0  0  0  0
 38 39  1  0  0  0  0
 41 35  1  0  0  0  0
 42 34  1  0  0  0  0
 43 47  2  0  0  0  0
 44 45  1  0  0  0  0
 44 43  1  0  0  0  0
 45 46  2  0  0  0  0
 46 47  1  0  0  0  0
 46162  1  0  0  0  0
 47163  1  0  0  0  0
 48 53  1  0  0  0  0
 49 50  1  0  0  0  0
 49 48  2  0  0  0  0
 50 51  2  0  0  0  0
 51 68  1  0  0  0  0
 51 52  1  0  0  0  0
 52 56  2  0  0  0  0
 53 52  1  0  0  0  0
 53 58  2  0  0  0  0
 54 49  1  0  0  0  0
 55 50  1  0  0  0  0
 56 57  1  0  0  0  0
 57 59  1  0  0  0  0
 58 57  1  0  0  0  0
 59164  1  0  0  0  0
 59165  1  0  0  0  0
 60 59  1  0  0  0  0
 60167  1  0  0  0  0
 61 48  1  0  0  0  0
 61 62  1  0  0  0  0
 63 45  1  0  0  0  0
 63 62  1  0  0  0  0
 64 63  2  0  0  0  0
 65 64  1  0  0  0  0
 65 61  2  0  0  0  0
 66170  1  0  0  0  0
 66 64  1  0  0  0  0
 67172  1  0  0  0  0
 67 66  1  0  0  0  0
 68 72  2  0  0  0  0
 69 70  1  0  0  0  0
 69 68  1  0  0  0  0
 70 71  2  0  0  0  0
 71 72  1  0  0  0  0
 71 73  1  0  0  0  0
 72175  1  0  0  0  0
 73176  1  0  0  0  0
 73 74  1  0  0  0  0
 74178  1  0  0  0  0
 74179  1  0  0  0  0
 75 70  1  0  0  0  0
 75 79  1  0  0  0  0
 76 75  2  0  0  0  0
 77 76  1  0  0  0  0
 77 78  2  0  0  0  0
 78 80  1  0  0  0  0
 78 79  1  0  0  0  0
 80 85  2  0  0  0  0
 81 80  1  0  0  0  0
 82 81  2  0  0  0  0
 82 83  1  0  0  0  0
 83 84  2  0  0  0  0
 84 85  1  0  0  0  0
 84 87  1  0  0  0  0
 85 86  1  0  0  0  0
 88 82  1  0  0  0  0
 89 81  1  0  0  0  0
 90 83  1  0  0  0  0
 90 94  2  0  0  0  0
 91 92  1  0  0  0  0
 91 90  1  0  0  0  0
 92 93  2  0  0  0  0
 93 94  1  0  0  0  0
 93183  1  0  0  0  0
 94184  1  0  0  0  0
 95108  1  0  0  0  0
 95100  1  0  0  0  0
 96 95  2  0  0  0  0
 97 96  1  0  0  0  0
 97 98  2  0  0  0  0
 98 99  1  0  0  0  0
 99100  1  0  0  0  0
 99103  2  0  0  0  0
100105  2  0  0  0  0
101 96  1  0  0  0  0
102 97  1  0  0  0  0
103104  1  0  0  0  0
104106  1  0  0  0  0
105104  1  0  0  0  0
106186  1  0  0  0  0
106185  1  0  0  0  0
107188  1  0  0  0  0
107106  1  0  0  0  0
108109  1  0  0  0  0
110109  1  0  0  0  0
110 92  1  0  0  0  0
111110  2  0  0  0  0
112111  1  0  0  0  0
112108  2  0  0  0  0
113111  1  0  0  0  0
113191  1  0  0  0  0
114113  1  0  0  0  0
114193  1  0  0  0  0
115 98  1  0  0  0  0
115119  2  0  0  0  0
116117  1  0  0  0  0
116115  1  0  0  0  0
117118  2  0  0  0  0
118120  1  0  0  0  0
118119  1  0  0  0  0
119196  1  0  0  0  0
120121  1  0  0  0  0
120197  1  0  0  0  0
121200  1  0  0  0  0
121199  1  0  0  0  0
122123  2  0  0  0  0
122117  1  0  0  0  0
123202  1  0  0  0  0
124203  1  0  0  0  0
124123  1  0  0  0  0
125124  2  0  0  0  0
126125  1  0  0  0  0
126122  1  0  0  0  0
127125  1  0  0  0  0
128127  1  0  0  0  0
128136  1  0  0  0  0
129128  2  0  0  0  0
130131  2  0  0  0  0
130129  1  0  0  0  0
131132  1  0  0  0  0
132133  1  0  0  0  0
132127  2  0  0  0  0
134131  1  0  0  0  0
135129  1  0  0  0  0
137130  1  0  0  0  0
138137  1  0  0  0  0
139140  2  0  0  0  0
139138  1  0  0  0  0
140141  1  0  0  0  0
141137  2  0  0  0  0
141206  1  0  0  0  0
144 13  1  0  0  0  0
146 13  1  0  0  0  0
148 18  1  0  0  0  0
149 19  1  0  0  0  0
151 20  1  0  0  0  0
152 20  1  0  0  0  0
155 26  1  0  0  0  0
157 27  1  0  0  0  0
160 29  1  0  0  0  0
161 30  1  0  0  0  0
166 60  1  0  0  0  0
168 60  1  0  0  0  0
169 65  1  0  0  0  0
171 66  1  0  0  0  0
173 67  1  0  0  0  0
174 67  1  0  0  0  0
177 73  1  0  0  0  0
180 74  1  0  0  0  0
181 76  1  0  0  0  0
182 77  1  0  0  0  0
187107  1  0  0  0  0
189107  1  0  0  0  0
190112  1  0  0  0  0
192113  1  0  0  0  0
194114  1  0  0  0  0
195114  1  0  0  0  0
198120  1  0  0  0  0
201121  1  0  0  0  0
204139  1  0  0  0  0
205140  1  0  0  0  0
M  END
