SCF done       -276.889799751110          0.000426719102
 OpenBabel12282109573D

149163  0  0  0  0  0  0  0  0999 V2000
   -1.2354    1.3195   -1.6997 C   0  0  0  0  0  0  0  0  0  0  0  0
   -2.2361    0.7262   -0.9095 C   0  0  0  0  0  0  0  0  0  0  0  0
   -2.3646    1.0754    0.4720 C   0  0  0  0  0  0  0  0  0  0  0  0
   -1.5056    1.9567    1.1085 C   0  0  0  0  0  0  0  0  0  0  0  0
   -0.4777    2.5107    0.3184 C   0  0  0  0  0  0  0  0  0  0  0  0
   -0.3733    2.1933   -1.0462 C   0  0  0  0  0  0  0  0  0  0  0  0
   -3.1822   -0.2539   -1.3010 C   0  0  0  0  0  0  0  0  0  0  0  0
   -4.0412   -0.6400   -0.3116 C   0  0  0  0  0  0  0  0  0  0  0  0
   -3.7125    0.2060    1.1890 S   0  0  0  0  0  0  0  0  0  0  0  0
    0.5325    3.4290    0.7242 C   0  0  0  0  0  0  0  0  0  0  0  0
    1.3526    3.7797   -0.2888 C   0  0  0  0  0  0  0  0  0  0  0  0
    0.9557    3.0265   -1.7969 S   0  0  0  0  0  0  0  0  0  0  0  0
   -0.9836    1.1081   -3.0142 O   0  0  0  0  0  0  0  0  0  0  0  0
   -1.5082    2.3747    2.3991 O   0  0  0  0  0  0  0  0  0  0  0  0
   -5.0944   -1.5918   -0.3319 C   0  0  0  0  0  0  0  0  0  0  0  0
   -5.9388   -1.9204    1.1547 S   0  0  0  0  0  0  0  0  0  0  0  0
   -6.9925   -3.1014    0.4293 C   0  0  0  0  0  0  0  0  0  0  0  0
   -6.6832   -3.2199   -0.9081 C   0  0  0  0  0  0  0  0  0  0  0  0
   -5.6259   -2.3746   -1.3593 C   0  0  0  0  0  0  0  0  0  0  0  0
   -7.3606   -4.1927   -2.1779 S   0  0  0  0  0  0  0  0  0  0  0  0
   -6.2587   -3.4756   -3.3272 C   0  0  0  0  0  0  0  0  0  0  0  0
   -6.3134   -3.8823   -4.7315 C   0  0  0  0  0  0  0  0  0  0  0  0
   -7.2510   -4.8278   -4.8977 O   0  0  0  0  0  0  0  0  0  0  0  0
   -5.6171   -3.4428   -5.6115 O   0  0  0  0  0  0  0  0  0  0  0  0
   -7.4489   -5.3125   -6.2240 C   0  0  0  0  0  0  0  0  0  0  0  0
   -8.3740   -4.3995   -7.0161 C   0  0  0  0  0  0  0  0  0  0  0  0
   -2.0352    0.8607   -3.9380 C   0  0  0  0  0  0  0  0  0  0  0  0
   -1.6702    1.5438   -5.2485 C   0  0  0  0  0  0  0  0  0  0  0  0
   -2.4199    1.8431    3.3411 C   0  0  0  0  0  0  0  0  0  0  0  0
   -2.1112    2.4911    4.6821 C   0  0  0  0  0  0  0  0  0  0  0  0
   -5.4255   -2.5556   -2.7535 C   0  0  0  0  0  0  0  0  0  0  0  0
   -4.5155   -1.8893   -3.4658 F   0  0  0  0  0  0  0  0  0  0  0  0
  -10.3501   -4.6961    4.0900 C   0  0  0  0  0  0  0  0  0  0  0  0
  -11.2983   -5.7324    4.0067 C   0  0  0  0  0  0  0  0  0  0  0  0
  -11.4405   -6.4866    2.7991 C   0  0  0  0  0  0  0  0  0  0  0  0
  -10.6624   -6.2598    1.6753 C   0  0  0  0  0  0  0  0  0  0  0  0
   -9.6957   -5.2340    1.7764 C   0  0  0  0  0  0  0  0  0  0  0  0
   -9.5643   -4.4913    2.9648 C   0  0  0  0  0  0  0  0  0  0  0  0
  -12.1799   -6.1818    5.0192 C   0  0  0  0  0  0  0  0  0  0  0  0
  -12.9992   -7.2064    4.6417 C   0  0  0  0  0  0  0  0  0  0  0  0
  -12.6946   -7.7036    2.9909 S   0  0  0  0  0  0  0  0  0  0  0  0
   -8.7945   -4.8030    0.7761 C   0  0  0  0  0  0  0  0  0  0  0  0
   -7.9916   -3.7726    1.1847 C   0  0  0  0  0  0  0  0  0  0  0  0
   -8.3195   -3.2860    2.8382 S   0  0  0  0  0  0  0  0  0  0  0  0
  -10.0837   -3.9012    5.1547 O   0  0  0  0  0  0  0  0  0  0  0  0
  -10.6890   -6.8806    0.4728 O   0  0  0  0  0  0  0  0  0  0  0  0
  -13.9932   -7.8685    5.4115 C   0  0  0  0  0  0  0  0  0  0  0  0
  -14.4860   -9.4878    5.0109 S   0  0  0  0  0  0  0  0  0  0  0  0
  -15.6179   -9.5861    6.3337 C   0  0  0  0  0  0  0  0  0  0  0  0
  -15.6066   -8.3961    7.0297 C   0  0  0  0  0  0  0  0  0  0  0  0
  -14.7001   -7.4194    6.5256 C   0  0  0  0  0  0  0  0  0  0  0  0
  -16.4987   -7.8299    8.4095 S   0  0  0  0  0  0  0  0  0  0  0  0
  -15.6939   -6.2819    8.3110 C   0  0  0  0  0  0  0  0  0  0  0  0
  -16.0237   -5.2357    9.2798 C   0  0  0  0  0  0  0  0  0  0  0  0
  -16.9976   -5.6620   10.0977 O   0  0  0  0  0  0  0  0  0  0  0  0
  -15.5034   -4.1503    9.3353 O   0  0  0  0  0  0  0  0  0  0  0  0
  -17.4140   -4.7676   11.1275 C   0  0  0  0  0  0  0  0  0  0  0  0
  -16.5118   -4.8719   12.3487 C   0  0  0  0  0  0  0  0  0  0  0  0
  -11.1169   -3.4679    6.0307 C   0  0  0  0  0  0  0  0  0  0  0  0
  -10.8171   -2.0302    6.4299 C   0  0  0  0  0  0  0  0  0  0  0  0
  -11.5941   -7.9342    0.2042 C   0  0  0  0  0  0  0  0  0  0  0  0
  -11.3521   -8.3750   -1.2311 C   0  0  0  0  0  0  0  0  0  0  0  0
  -14.7966   -6.2210    7.2818 C   0  0  0  0  0  0  0  0  0  0  0  0
  -14.0951   -5.1197    7.0097 F   0  0  0  0  0  0  0  0  0  0  0  0
  -17.7028  -14.3813    6.4791 C   0  0  0  0  0  0  0  0  0  0  0  0
  -18.7208  -14.8422    7.3303 C   0  0  0  0  0  0  0  0  0  0  0  0
  -19.3198  -13.9816    8.2932 C   0  0  0  0  0  0  0  0  0  0  0  0
  -18.9387  -12.6552    8.4351 C   0  0  0  0  0  0  0  0  0  0  0  0
  -17.9205  -12.1964    7.5713 C   0  0  0  0  0  0  0  0  0  0  0  0
  -17.3304  -13.0561    6.6188 C   0  0  0  0  0  0  0  0  0  0  0  0
  -19.2788  -16.1446    7.3411 C   0  0  0  0  0  0  0  0  0  0  0  0
  -20.2543  -16.3202    8.2774 C   0  0  0  0  0  0  0  0  0  0  0  0
  -20.5488  -14.8548    9.1924 S   0  0  0  0  0  0  0  0  0  0  0  0
  -17.3622  -10.8987    7.5399 C   0  0  0  0  0  0  0  0  0  0  0  0
  -16.3844  -10.7539    6.5943 C   0  0  0  0  0  0  0  0  0  0  0  0
  -16.1117  -12.2327    5.6894 S   0  0  0  0  0  0  0  0  0  0  0  0
  -17.1345  -15.1716    5.5149 O   0  0  0  0  0  0  0  0  0  0  0  0
  -19.4042  -11.7227    9.2949 O   0  0  0  0  0  0  0  0  0  0  0  0
  -21.0305  -17.4803    8.5630 C   0  0  0  0  0  0  0  0  0  0  0  0
  -22.5755  -17.3188    9.3453 S   0  0  0  0  0  0  0  0  0  0  0  0
  -22.8768  -19.0109    9.3170 C   0  0  0  0  0  0  0  0  0  0  0  0
  -21.8381  -19.6728    8.7403 C   0  0  0  0  0  0  0  0  0  0  0  0
  -20.7708  -18.8210    8.3070 C   0  0  0  0  0  0  0  0  0  0  0  0
  -21.5161  -21.3581    8.4441 S   0  0  0  0  0  0  0  0  0  0  0  0
  -19.9502  -20.9451    7.7815 C   0  0  0  0  0  0  0  0  0  0  0  0
  -19.1088  -22.0600    7.3358 C   0  0  0  0  0  0  0  0  0  0  0  0
  -17.9318  -21.6456    6.8612 O   0  0  0  0  0  0  0  0  0  0  0  0
  -19.4652  -23.2120    7.3931 O   0  0  0  0  0  0  0  0  0  0  0  0
  -17.0275  -22.6592    6.4217 C   0  0  0  0  0  0  0  0  0  0  0  0
  -16.2774  -23.2814    7.5906 C   0  0  0  0  0  0  0  0  0  0  0  0
  -16.2191  -16.1594    5.9767 C   0  0  0  0  0  0  0  0  0  0  0  0
  -14.9360  -15.5487    6.5273 C   0  0  0  0  0  0  0  0  0  0  0  0
  -20.4700  -12.0073   10.1817 C   0  0  0  0  0  0  0  0  0  0  0  0
  -20.7607  -10.7308   10.9553 C   0  0  0  0  0  0  0  0  0  0  0  0
  -19.7077  -19.6002    7.7787 C   0  0  0  0  0  0  0  0  0  0  0  0
  -18.5627  -19.0703    7.3392 F   0  0  0  0  0  0  0  0  0  0  0  0
   -3.1985   -0.6860   -2.2786 H   0  0  0  0  0  0  0  0  0  0  0  0
    0.6162    3.7901    1.7322 H   0  0  0  0  0  0  0  0  0  0  0  0
    2.1898    4.4489   -0.2555 H   0  0  0  0  0  0  0  0  0  0  0  0
   -7.8850   -6.3057   -6.0991 H   0  0  0  0  0  0  0  0  0  0  0  0
   -6.4761   -5.3893   -6.7213 H   0  0  0  0  0  0  0  0  0  0  0  0
   -9.3223   -4.2834   -6.4967 H   0  0  0  0  0  0  0  0  0  0  0  0
   -8.5550   -4.8276   -7.9979 H   0  0  0  0  0  0  0  0  0  0  0  0
   -7.9144   -3.4216   -7.1378 H   0  0  0  0  0  0  0  0  0  0  0  0
   -2.9808    1.2575   -3.5529 H   0  0  0  0  0  0  0  0  0  0  0  0
   -2.1373   -0.2189   -4.1032 H   0  0  0  0  0  0  0  0  0  0  0  0
   -1.5953    2.6188   -5.1054 H   0  0  0  0  0  0  0  0  0  0  0  0
   -2.4307    1.3317   -5.9944 H   0  0  0  0  0  0  0  0  0  0  0  0
   -0.7109    1.1741   -5.5999 H   0  0  0  0  0  0  0  0  0  0  0  0
   -2.3015    0.7549    3.4125 H   0  0  0  0  0  0  0  0  0  0  0  0
   -3.4517    2.0682    3.0433 H   0  0  0  0  0  0  0  0  0  0  0  0
   -1.0895    2.2667    4.9764 H   0  0  0  0  0  0  0  0  0  0  0  0
   -2.7928    2.1120    5.4375 H   0  0  0  0  0  0  0  0  0  0  0  0
   -2.2223    3.5694    4.6078 H   0  0  0  0  0  0  0  0  0  0  0  0
  -12.1744   -5.7947    6.0174 H   0  0  0  0  0  0  0  0  0  0  0  0
   -8.7493   -5.2497   -0.1994 H   0  0  0  0  0  0  0  0  0  0  0  0
  -18.4369   -5.0666   11.3648 H   0  0  0  0  0  0  0  0  0  0  0  0
  -17.4029   -3.7458   10.7338 H   0  0  0  0  0  0  0  0  0  0  0  0
  -16.4801   -5.8987   12.7054 H   0  0  0  0  0  0  0  0  0  0  0  0
  -16.8930   -4.2316   13.1388 H   0  0  0  0  0  0  0  0  0  0  0  0
  -15.5037   -4.5540   12.0936 H   0  0  0  0  0  0  0  0  0  0  0  0
  -11.1276   -4.1022    6.9258 H   0  0  0  0  0  0  0  0  0  0  0  0
  -12.0915   -3.5287    5.5365 H   0  0  0  0  0  0  0  0  0  0  0  0
   -9.8383   -1.9732    6.8979 H   0  0  0  0  0  0  0  0  0  0  0  0
  -11.5717   -1.6841    7.1300 H   0  0  0  0  0  0  0  0  0  0  0  0
  -10.8187   -1.3886    5.5526 H   0  0  0  0  0  0  0  0  0  0  0  0
  -12.6283   -7.5882    0.3241 H   0  0  0  0  0  0  0  0  0  0  0  0
  -11.4192   -8.7716    0.8910 H   0  0  0  0  0  0  0  0  0  0  0  0
  -11.5196   -7.5416   -1.9077 H   0  0  0  0  0  0  0  0  0  0  0  0
  -12.0281   -9.1857   -1.4852 H   0  0  0  0  0  0  0  0  0  0  0  0
  -10.3262   -8.7133   -1.3467 H   0  0  0  0  0  0  0  0  0  0  0  0
  -18.9865  -16.9008    6.6380 H   0  0  0  0  0  0  0  0  0  0  0  0
  -17.6854  -10.1127    8.1960 H   0  0  0  0  0  0  0  0  0  0  0  0
  -23.7849  -19.4052    9.7225 H   0  0  0  0  0  0  0  0  0  0  0  0
  -16.3452  -22.1471    5.7406 H   0  0  0  0  0  0  0  0  0  0  0  0
  -17.5918  -23.4274    5.8824 H   0  0  0  0  0  0  0  0  0  0  0  0
  -15.7594  -22.5113    8.1574 H   0  0  0  0  0  0  0  0  0  0  0  0
  -15.5516  -23.9976    7.2165 H   0  0  0  0  0  0  0  0  0  0  0  0
  -16.9743  -23.7972    8.2469 H   0  0  0  0  0  0  0  0  0  0  0  0
  -16.0074  -16.7631    5.0916 H   0  0  0  0  0  0  0  0  0  0  0  0
  -16.6873  -16.7950    6.7380 H   0  0  0  0  0  0  0  0  0  0  0  0
  -14.4838  -14.8960    5.7847 H   0  0  0  0  0  0  0  0  0  0  0  0
  -14.2358  -16.3395    6.7815 H   0  0  0  0  0  0  0  0  0  0  0  0
  -15.1455  -14.9651    7.4219 H   0  0  0  0  0  0  0  0  0  0  0  0
  -20.1865  -12.8120   10.8716 H   0  0  0  0  0  0  0  0  0  0  0  0
  -21.3584  -12.3203    9.6194 H   0  0  0  0  0  0  0  0  0  0  0  0
  -19.8741  -10.4178   11.4997 H   0  0  0  0  0  0  0  0  0  0  0  0
  -21.5708  -10.9034   11.6573 H   0  0  0  0  0  0  0  0  0  0  0  0
  -21.0433   -9.9374   10.2690 H   0  0  0  0  0  0  0  0  0  0  0  0
  1  6  2  0  0  0  0
  1  2  1  0  0  0  0
  2  3  2  0  0  0  0
  3  4  1  0  0  0  0
  3  9  1  0  0  0  0
  4 14  1  0  0  0  0
  5 10  1  0  0  0  0
  5  4  2  0  0  0  0
  6  5  1  0  0  0  0
  7  2  1  0  0  0  0
  7  8  2  0  0  0  0
  8  9  1  0  0  0  0
 10 98  1  0  0  0  0
 11 99  1  0  0  0  0
 11 10  2  0  0  0  0
 12  6  1  0  0  0  0
 12 11  1  0  0  0  0
 13  1  1  0  0  0  0
 14 29  1  0  0  0  0
 15  8  1  0  0  0  0
 15 16  1  0  0  0  0
 17 16  1  0  0  0  0
 17 43  1  0  0  0  0
 18 17  2  0  0  0  0
 19 18  1  0  0  0  0
 19 15  2  0  0  0  0
 20 18  1  0  0  0  0
 21 31  2  0  0  0  0
 21 20  1  0  0  0  0
 22 21  1  0  0  0  0
 23 22  1  0  0  0  0
 24 22  2  0  0  0  0
 25100  1  0  0  0  0
 25 23  1  0  0  0  0
 26102  1  0  0  0  0
 26 25  1  0  0  0  0
 27105  1  0  0  0  0
 27 13  1  0  0  0  0
 28107  1  0  0  0  0
 28 27  1  0  0  0  0
 29110  1  0  0  0  0
 29 30  1  0  0  0  0
 30112  1  0  0  0  0
 30113  1  0  0  0  0
 31 19  1  0  0  0  0
 32 31  1  0  0  0  0
 33 45  1  0  0  0  0
 34 33  1  0  0  0  0
 34 39  1  0  0  0  0
 35 41  1  0  0  0  0
 35 34  2  0  0  0  0
 36 37  2  0  0  0  0
 36 35  1  0  0  0  0
 37 38  1  0  0  0  0
 38 33  2  0  0  0  0
 39115  1  0  0  0  0
 40 39  2  0  0  0  0
 40 47  1  0  0  0  0
 41 40  1  0  0  0  0
 42 43  2  0  0  0  0
 42 37  1  0  0  0  0
 43 44  1  0  0  0  0
 44 38  1  0  0  0  0
 45 59  1  0  0  0  0
 46 36  1  0  0  0  0
 47 51  2  0  0  0  0
 48 47  1  0  0  0  0
 48 49  1  0  0  0  0
 49 75  1  0  0  0  0
 49 50  2  0  0  0  0
 50 52  1  0  0  0  0
 51 50  1  0  0  0  0
 51 63  1  0  0  0  0
 53 52  1  0  0  0  0
 53 54  1  0  0  0  0
 54 56  2  0  0  0  0
 54 55  1  0  0  0  0
 55 57  1  0  0  0  0
 57117  1  0  0  0  0
 57 58  1  0  0  0  0
 58119  1  0  0  0  0
 58120  1  0  0  0  0
 59 60  1  0  0  0  0
 59122  1  0  0  0  0
 60124  1  0  0  0  0
 60125  1  0  0  0  0
 61127  1  0  0  0  0
 61 46  1  0  0  0  0
 61128  1  0  0  0  0
 62 61  1  0  0  0  0
 63 53  2  0  0  0  0
 64 63  1  0  0  0  0
 65 70  2  0  0  0  0
 65 66  1  0  0  0  0
 66 71  1  0  0  0  0
 66 67  2  0  0  0  0
 67 68  1  0  0  0  0
 67 73  1  0  0  0  0
 68 78  1  0  0  0  0
 69 68  2  0  0  0  0
 70 69  1  0  0  0  0
 71 72  2  0  0  0  0
 72 79  1  0  0  0  0
 72 73  1  0  0  0  0
 74 69  1  0  0  0  0
 74133  1  0  0  0  0
 75 74  2  0  0  0  0
 76 75  1  0  0  0  0
 76 70  1  0  0  0  0
 77 91  1  0  0  0  0
 77 65  1  0  0  0  0
 78 93  1  0  0  0  0
 79 80  1  0  0  0  0
 81 80  1  0  0  0  0
 81134  1  0  0  0  0
 82 81  2  0  0  0  0
 83 79  2  0  0  0  0
 83 82  1  0  0  0  0
 84 82  1  0  0  0  0
 85 84  1  0  0  0  0
 86 88  2  0  0  0  0
 86 85  1  0  0  0  0
 87 86  1  0  0  0  0
 89 87  1  0  0  0  0
 89 90  1  0  0  0  0
 90137  1  0  0  0  0
 90139  1  0  0  0  0
 91 92  1  0  0  0  0
 91141  1  0  0  0  0
 92143  1  0  0  0  0
 92144  1  0  0  0  0
 93145  1  0  0  0  0
 93 94  1  0  0  0  0
 94147  1  0  0  0  0
 94148  1  0  0  0  0
 95 85  2  0  0  0  0
 95 83  1  0  0  0  0
 96 95  1  0  0  0  0
 97  7  1  0  0  0  0
101 25  1  0  0  0  0
103 26  1  0  0  0  0
104 26  1  0  0  0  0
106 27  1  0  0  0  0
108 28  1  0  0  0  0
109 28  1  0  0  0  0
111 29  1  0  0  0  0
114 30  1  0  0  0  0
116 42  1  0  0  0  0
118 57  1  0  0  0  0
121 58  1  0  0  0  0
123 59  1  0  0  0  0
126 60  1  0  0  0  0
129 62  1  0  0  0  0
130 62  1  0  0  0  0
131 62  1  0  0  0  0
132 71  1  0  0  0  0
135 89  1  0  0  0  0
136 89  1  0  0  0  0
138 90  1  0  0  0  0
140 91  1  0  0  0  0
142 92  1  0  0  0  0
146 93  1  0  0  0  0
149 94  1  0  0  0  0
M  END
