SCF done       -463.912063904863          0.000994755245
 OpenBabel12282109573D

278307  0  0  0  0  0  0  0  0999 V2000
    1.2595    7.5208   -3.9706 C   0  0  0  0  0  0  0  0  0  0  0  0
   -0.0923    7.5178   -3.5937 C   0  0  0  0  0  0  0  0  0  0  0  0
   -0.4614    7.3033   -2.2435 C   0  0  0  0  0  0  0  0  0  0  0  0
    0.4623    7.0980   -1.2307 C   0  0  0  0  0  0  0  0  0  0  0  0
    1.8125    7.0671   -1.6161 C   0  0  0  0  0  0  0  0  0  0  0  0
    2.1841    7.2776   -2.9663 C   0  0  0  0  0  0  0  0  0  0  0  0
   -1.2374    7.6953   -4.4272 C   0  0  0  0  0  0  0  0  0  0  0  0
   -2.3986    7.6450   -3.7450 C   0  0  0  0  0  0  0  0  0  0  0  0
   -2.1952    7.3725   -2.0469 S   0  0  0  0  0  0  0  0  0  0  0  0
    2.9359    6.8230   -0.7923 C   0  0  0  0  0  0  0  0  0  0  0  0
    4.1289    6.8848   -1.4508 C   0  0  0  0  0  0  0  0  0  0  0  0
    3.9212    7.2301   -3.1592 S   0  0  0  0  0  0  0  0  0  0  0  0
    1.6730    7.7778   -5.3565 C   0  0  0  0  0  0  0  0  0  0  0  0
    0.0979    6.9217    0.1800 C   0  0  0  0  0  0  0  0  0  0  0  0
    5.4048    6.7009   -0.8497 C   0  0  0  0  0  0  0  0  0  0  0  0
    6.6605    6.7699   -1.4183 C   0  0  0  0  0  0  0  0  0  0  0  0
    7.6707    6.5420   -0.4940 C   0  0  0  0  0  0  0  0  0  0  0  0
    7.2149    6.2892    0.7937 C   0  0  0  0  0  0  0  0  0  0  0  0
    5.4769    6.3433    0.8469 S   0  0  0  0  0  0  0  0  0  0  0  0
    8.0541    6.0241    1.9036 C   0  0  0  0  0  0  0  0  0  0  0  0
    9.7778    6.1001    1.6318 S   0  0  0  0  0  0  0  0  0  0  0  0
   10.1495    5.6717    3.2852 C   0  0  0  0  0  0  0  0  0  0  0  0
    8.9753    5.4719    4.0040 C   0  0  0  0  0  0  0  0  0  0  0  0
    7.7921    5.6811    3.2259 C   0  0  0  0  0  0  0  0  0  0  0  0
    8.9340    5.0623    5.3958 C   0  0  0  0  0  0  0  0  0  0  0  0
    7.5934    4.8691    5.9415 C   0  0  0  0  0  0  0  0  0  0  0  0
    6.4108    5.1113    5.1732 C   0  0  0  0  0  0  0  0  0  0  0  0
    6.4586    5.5539    3.7847 C   0  0  0  0  0  0  0  0  0  0  0  0
    7.3214    4.4550    7.2219 C   0  0  0  0  0  0  0  0  0  0  0  0
    5.6144    4.3439    7.4814 S   0  0  0  0  0  0  0  0  0  0  0  0
    5.2540    4.8617    5.8705 C   0  0  0  0  0  0  0  0  0  0  0  0
   11.5203    5.5934    3.6317 C   0  0  0  0  0  0  0  0  0  0  0  0
   12.5600    5.8350    2.7424 C   0  0  0  0  0  0  0  0  0  0  0  0
   13.8226    5.7023    3.2991 C   0  0  0  0  0  0  0  0  0  0  0  0
   12.1446    5.1905    5.2065 S   0  0  0  0  0  0  0  0  0  0  0  0
    9.9443    4.8738    6.0713 O   0  0  0  0  0  0  0  0  0  0  0  0
    5.4358    5.8029    3.1498 O   0  0  0  0  0  0  0  0  0  0  0  0
    8.2650    4.0499    8.2968 C   0  0  0  0  0  0  0  0  0  0  0  0
    8.7006    2.5945    8.0987 C   0  0  0  0  0  0  0  0  0  0  0  0
    3.8407    5.0015    5.4327 C   0  0  0  0  0  0  0  0  0  0  0  0
    3.3728    6.4578    5.5119 C   0  0  0  0  0  0  0  0  0  0  0  0
   13.7756    5.3609    4.6366 C   0  0  0  0  0  0  0  0  0  0  0  0
   -0.8499    5.9826    0.5707 C   0  0  0  0  0  0  0  0  0  0  0  0
   -1.1337    5.7694    1.9071 C   0  0  0  0  0  0  0  0  0  0  0  0
   -0.4756    6.5074    2.8813 C   0  0  0  0  0  0  0  0  0  0  0  0
    0.4532    7.4735    2.4985 C   0  0  0  0  0  0  0  0  0  0  0  0
    0.7352    7.6761    1.1669 C   0  0  0  0  0  0  0  0  0  0  0  0
    1.2370    8.9148   -6.0284 C   0  0  0  0  0  0  0  0  0  0  0  0
    1.6295    9.1711   -7.3288 C   0  0  0  0  0  0  0  0  0  0  0  0
    2.4698    8.2817   -7.9851 C   0  0  0  0  0  0  0  0  0  0  0  0
    2.9113    7.1394   -7.3191 C   0  0  0  0  0  0  0  0  0  0  0  0
    2.5216    6.8937   -6.0215 C   0  0  0  0  0  0  0  0  0  0  0  0
   -0.7075    6.2932    4.6182 S   0  0  0  0  0  0  0  0  0  0  0  0
   -2.1970    5.2344    4.7428 C   0  0  0  0  0  0  0  0  0  0  0  0
    3.0356    8.4817   -9.6440 S   0  0  0  0  0  0  0  0  0  0  0  0
    2.3654   10.1074  -10.1592 C   0  0  0  0  0  0  0  0  0  0  0  0
   -2.6302    5.1585    6.1945 C   0  0  0  0  0  0  0  0  0  0  0  0
    2.8494   10.4165  -11.5634 C   0  0  0  0  0  0  0  0  0  0  0  0
   16.2953    4.2097    8.7882 C   0  0  0  0  0  0  0  0  0  0  0  0
   16.0418    4.5789    7.4542 C   0  0  0  0  0  0  0  0  0  0  0  0
   17.1124    4.7576    6.5403 C   0  0  0  0  0  0  0  0  0  0  0  0
   18.4399    4.5828    6.8905 C   0  0  0  0  0  0  0  0  0  0  0  0
   18.6929    4.2357    8.2294 C   0  0  0  0  0  0  0  0  0  0  0  0
   17.6251    4.0522    9.1436 C   0  0  0  0  0  0  0  0  0  0  0  0
   14.7874    4.8153    6.8443 C   0  0  0  0  0  0  0  0  0  0  0  0
   14.8658    5.1214    5.5162 C   0  0  0  0  0  0  0  0  0  0  0  0
   16.5261    5.1668    4.9473 S   0  0  0  0  0  0  0  0  0  0  0  0
   19.9504    4.0272    8.8393 C   0  0  0  0  0  0  0  0  0  0  0  0
   19.8741    3.6440   10.1473 C   0  0  0  0  0  0  0  0  0  0  0  0
   18.2154    3.5582   10.7130 S   0  0  0  0  0  0  0  0  0  0  0  0
   15.1948    4.0134    9.7390 C   0  0  0  0  0  0  0  0  0  0  0  0
   19.5508    4.7307    5.9424 C   0  0  0  0  0  0  0  0  0  0  0  0
   20.9815    3.3087   10.9727 C   0  0  0  0  0  0  0  0  0  0  0  0
   20.9855    2.7876   12.2511 C   0  0  0  0  0  0  0  0  0  0  0  0
   22.2686    2.5210   12.7070 C   0  0  0  0  0  0  0  0  0  0  0  0
   23.2703    2.8407   11.7992 C   0  0  0  0  0  0  0  0  0  0  0  0
   22.5876    3.5079   10.3452 S   0  0  0  0  0  0  0  0  0  0  0  0
   24.6500    2.6052   12.0170 C   0  0  0  0  0  0  0  0  0  0  0  0
   25.0878    1.7760   13.4910 S   0  0  0  0  0  0  0  0  0  0  0  0
   26.7910    1.7971   13.1029 C   0  0  0  0  0  0  0  0  0  0  0  0
   26.9976    2.4332   11.8837 C   0  0  0  0  0  0  0  0  0  0  0  0
   25.7871    2.8785   11.2640 C   0  0  0  0  0  0  0  0  0  0  0  0
   28.3032    2.6341   11.2815 C   0  0  0  0  0  0  0  0  0  0  0  0
   28.2810    3.2249    9.9476 C   0  0  0  0  0  0  0  0  0  0  0  0
   27.0717    3.6762    9.3294 C   0  0  0  0  0  0  0  0  0  0  0  0
   25.7682    3.5360    9.9694 C   0  0  0  0  0  0  0  0  0  0  0  0
   29.3895    3.4154    9.1597 C   0  0  0  0  0  0  0  0  0  0  0  0
   28.9538    4.1745    7.6669 S   0  0  0  0  0  0  0  0  0  0  0  0
   27.2774    4.2346    8.0913 C   0  0  0  0  0  0  0  0  0  0  0  0
   27.6661    1.1661   14.0205 C   0  0  0  0  0  0  0  0  0  0  0  0
   27.2446    0.4341   15.1231 C   0  0  0  0  0  0  0  0  0  0  0  0
   28.2800   -0.0972   15.8780 C   0  0  0  0  0  0  0  0  0  0  0  0
   29.4040    1.1963   13.9339 S   0  0  0  0  0  0  0  0  0  0  0  0
   29.3565    2.3506   11.8490 O   0  0  0  0  0  0  0  0  0  0  0  0
   24.7356    3.9293    9.4308 O   0  0  0  0  0  0  0  0  0  0  0  0
   30.8095    3.0749    9.4375 C   0  0  0  0  0  0  0  0  0  0  0  0
   31.4937    4.1589   10.2753 C   0  0  0  0  0  0  0  0  0  0  0  0
   26.2894    4.8039    7.1376 C   0  0  0  0  0  0  0  0  0  0  0  0
   25.5951    3.7022    6.3312 C   0  0  0  0  0  0  0  0  0  0  0  0
   29.5218    0.2369   15.3757 C   0  0  0  0  0  0  0  0  0  0  0  0
   19.6844    5.8756    5.1649 C   0  0  0  0  0  0  0  0  0  0  0  0
   20.7666    6.0421    4.3208 C   0  0  0  0  0  0  0  0  0  0  0  0
   21.7346    5.0511    4.2323 C   0  0  0  0  0  0  0  0  0  0  0  0
   21.5938    3.8865    4.9849 C   0  0  0  0  0  0  0  0  0  0  0  0
   20.5172    3.7302    5.8280 C   0  0  0  0  0  0  0  0  0  0  0  0
   14.1073    3.2065    9.4156 C   0  0  0  0  0  0  0  0  0  0  0  0
   13.0468    3.0561   10.2876 C   0  0  0  0  0  0  0  0  0  0  0  0
   13.0519    3.7243   11.5052 C   0  0  0  0  0  0  0  0  0  0  0  0
   14.1502    4.5074   11.8519 C   0  0  0  0  0  0  0  0  0  0  0  0
   15.2087    4.6466   10.9813 C   0  0  0  0  0  0  0  0  0  0  0  0
   23.1850    5.1630    3.2324 S   0  0  0  0  0  0  0  0  0  0  0  0
   22.8825    6.6220    2.1668 C   0  0  0  0  0  0  0  0  0  0  0  0
   11.7384    3.6256   12.6808 S   0  0  0  0  0  0  0  0  0  0  0  0
   10.3129    3.0767   11.6658 C   0  0  0  0  0  0  0  0  0  0  0  0
   23.9677    6.6954    1.1092 C   0  0  0  0  0  0  0  0  0  0  0  0
    9.0255    3.3312   12.4269 C   0  0  0  0  0  0  0  0  0  0  0  0
   34.4721    0.2126   15.9429 C   0  0  0  0  0  0  0  0  0  0  0  0
   33.1198   -0.1211   16.1406 C   0  0  0  0  0  0  0  0  0  0  0  0
   32.7443   -1.0787   17.1167 C   0  0  0  0  0  0  0  0  0  0  0  0
   33.6654   -1.7446   17.9065 C   0  0  0  0  0  0  0  0  0  0  0  0
   35.0199   -1.4438   17.6764 C   0  0  0  0  0  0  0  0  0  0  0  0
   35.3959   -0.4754   16.7111 C   0  0  0  0  0  0  0  0  0  0  0  0
   31.9987    0.3864   15.4441 C   0  0  0  0  0  0  0  0  0  0  0  0
   30.8042   -0.1060   15.8841 C   0  0  0  0  0  0  0  0  0  0  0  0
   31.0080   -1.2584   17.1927 S   0  0  0  0  0  0  0  0  0  0  0  0
   36.1444   -2.0172   18.3112 C   0  0  0  0  0  0  0  0  0  0  0  0
   37.3380   -1.4967   17.9012 C   0  0  0  0  0  0  0  0  0  0  0  0
   37.1305   -0.2654   16.6678 S   0  0  0  0  0  0  0  0  0  0  0  0
   34.8425    1.2467   14.9695 C   0  0  0  0  0  0  0  0  0  0  0  0
   33.2915   -2.7284   18.9298 C   0  0  0  0  0  0  0  0  0  0  0  0
   38.6132   -1.8715   18.4053 C   0  0  0  0  0  0  0  0  0  0  0  0
   39.8600   -1.3719   18.0868 C   0  0  0  0  0  0  0  0  0  0  0  0
   40.8719   -1.9732   18.8222 C   0  0  0  0  0  0  0  0  0  0  0  0
   40.4277   -2.9448   19.7100 C   0  0  0  0  0  0  0  0  0  0  0  0
   38.6989   -3.1130   19.6156 S   0  0  0  0  0  0  0  0  0  0  0  0
   41.2693   -3.6706   20.5893 C   0  0  0  0  0  0  0  0  0  0  0  0
   42.9668   -3.2617   20.5810 S   0  0  0  0  0  0  0  0  0  0  0  0
   43.3504   -4.4354   21.8173 C   0  0  0  0  0  0  0  0  0  0  0  0
   42.2028   -5.1131   22.2059 C   0  0  0  0  0  0  0  0  0  0  0  0
   41.0261   -4.6825   21.5118 C   0  0  0  0  0  0  0  0  0  0  0  0
   42.1778   -6.1655   23.2098 C   0  0  0  0  0  0  0  0  0  0  0  0
   40.8646   -6.7611   23.4431 C   0  0  0  0  0  0  0  0  0  0  0  0
   39.6919   -6.3357   22.7418 C   0  0  0  0  0  0  0  0  0  0  0  0
   39.7174   -5.2591   21.7588 C   0  0  0  0  0  0  0  0  0  0  0  0
   40.6137   -7.7710   24.3387 C   0  0  0  0  0  0  0  0  0  0  0  0
   38.9431   -8.2207   24.3033 S   0  0  0  0  0  0  0  0  0  0  0  0
   38.5685   -7.0449   23.0906 C   0  0  0  0  0  0  0  0  0  0  0  0
   44.7120   -4.5133   22.2182 C   0  0  0  0  0  0  0  0  0  0  0  0
   45.7168   -3.7238   21.6861 C   0  0  0  0  0  0  0  0  0  0  0  0
   46.9760   -3.9737   22.2344 C   0  0  0  0  0  0  0  0  0  0  0  0
   45.3606   -5.5860   23.4288 S   0  0  0  0  0  0  0  0  0  0  0  0
   43.1799   -6.5407   23.8118 O   0  0  0  0  0  0  0  0  0  0  0  0
   38.6953   -4.8744   21.1940 O   0  0  0  0  0  0  0  0  0  0  0  0
   41.5616   -8.4983   25.2220 C   0  0  0  0  0  0  0  0  0  0  0  0
   42.2804   -9.6075   24.4481 C   0  0  0  0  0  0  0  0  0  0  0  0
   37.1737   -6.9061   22.5956 C   0  0  0  0  0  0  0  0  0  0  0  0
   36.4338   -5.7771   23.3192 C   0  0  0  0  0  0  0  0  0  0  0  0
   46.9307   -4.9513   23.1860 C   0  0  0  0  0  0  0  0  0  0  0  0
   32.4553   -3.7959   18.6229 C   0  0  0  0  0  0  0  0  0  0  0  0
   32.1632   -4.7669   19.5628 C   0  0  0  0  0  0  0  0  0  0  0  0
   32.7042   -4.6806   20.8382 C   0  0  0  0  0  0  0  0  0  0  0  0
   33.5134   -3.5940   21.1667 C   0  0  0  0  0  0  0  0  0  0  0  0
   33.8026   -2.6328   20.2249 C   0  0  0  0  0  0  0  0  0  0  0  0
   34.2198    2.4912   15.0019 C   0  0  0  0  0  0  0  0  0  0  0  0
   34.5094    3.4616   14.0627 C   0  0  0  0  0  0  0  0  0  0  0  0
   35.4303    3.1959   13.0583 C   0  0  0  0  0  0  0  0  0  0  0  0
   36.0827    1.9642   13.0364 C   0  0  0  0  0  0  0  0  0  0  0  0
   35.7967    1.0047   13.9826 C   0  0  0  0  0  0  0  0  0  0  0  0
   32.4525   -5.8756   22.1128 S   0  0  0  0  0  0  0  0  0  0  0  0
   31.3627   -7.1319   21.3457 C   0  0  0  0  0  0  0  0  0  0  0  0
   35.8487    4.3272   11.7706 S   0  0  0  0  0  0  0  0  0  0  0  0
   34.7321    5.7558   12.0418 C   0  0  0  0  0  0  0  0  0  0  0  0
   31.0885   -8.2323   22.3533 C   0  0  0  0  0  0  0  0  0  0  0  0
   34.8863    6.7261   10.8855 C   0  0  0  0  0  0  0  0  0  0  0  0
   -1.1748    7.8386   -5.4908 H   0  0  0  0  0  0  0  0  0  0  0  0
   -3.3950    7.7450   -4.1294 H   0  0  0  0  0  0  0  0  0  0  0  0
    2.8711    6.5935    0.2560 H   0  0  0  0  0  0  0  0  0  0  0  0
    6.8270    6.9799   -2.4604 H   0  0  0  0  0  0  0  0  0  0  0  0
    8.7189    6.5518   -0.7389 H   0  0  0  0  0  0  0  0  0  0  0  0
   12.3845    6.0996    1.7139 H   0  0  0  0  0  0  0  0  0  0  0  0
   14.7427    5.8467    2.7603 H   0  0  0  0  0  0  0  0  0  0  0  0
    7.7802    4.1624    9.2688 H   0  0  0  0  0  0  0  0  0  0  0  0
    9.1472    4.6915    8.2538 H   0  0  0  0  0  0  0  0  0  0  0  0
    7.8345    1.9358    8.0737 H   0  0  0  0  0  0  0  0  0  0  0  0
    9.3501    2.2839    8.9122 H   0  0  0  0  0  0  0  0  0  0  0  0
    9.2460    2.4980    7.1636 H   0  0  0  0  0  0  0  0  0  0  0  0
    3.2030    4.3784    6.0632 H   0  0  0  0  0  0  0  0  0  0  0  0
    3.7577    4.6699    4.3955 H   0  0  0  0  0  0  0  0  0  0  0  0
    3.5032    6.8491    6.5189 H   0  0  0  0  0  0  0  0  0  0  0  0
    2.3207    6.5177    5.2463 H   0  0  0  0  0  0  0  0  0  0  0  0
    3.9445    7.0660    4.8159 H   0  0  0  0  0  0  0  0  0  0  0  0
   -1.3519    5.3859   -0.1764 H   0  0  0  0  0  0  0  0  0  0  0  0
   -1.8573    5.0153    2.1725 H   0  0  0  0  0  0  0  0  0  0  0  0
    0.9510    8.0558    3.2590 H   0  0  0  0  0  0  0  0  0  0  0  0
    1.4442    8.4387    0.8810 H   0  0  0  0  0  0  0  0  0  0  0  0
    0.5978    9.6221   -5.5197 H   0  0  0  0  0  0  0  0  0  0  0  0
    1.2744   10.0662   -7.8142 H   0  0  0  0  0  0  0  0  0  0  0  0
    3.5619    6.4507   -7.8362 H   0  0  0  0  0  0  0  0  0  0  0  0
    2.8617    5.9999   -5.5206 H   0  0  0  0  0  0  0  0  0  0  0  0
   -1.9426    4.2451    4.3610 H   0  0  0  0  0  0  0  0  0  0  0  0
   -2.9731    5.6879    4.1259 H   0  0  0  0  0  0  0  0  0  0  0  0
    2.7235   10.8544   -9.4502 H   0  0  0  0  0  0  0  0  0  0  0  0
    1.2769   10.0485  -10.1278 H   0  0  0  0  0  0  0  0  0  0  0  0
   -1.8390    4.7302    6.8056 H   0  0  0  0  0  0  0  0  0  0  0  0
   -3.5177    4.5356    6.2835 H   0  0  0  0  0  0  0  0  0  0  0  0
   -2.8592    6.1513    6.5748 H   0  0  0  0  0  0  0  0  0  0  0  0
    3.9361   10.4473  -11.5922 H   0  0  0  0  0  0  0  0  0  0  0  0
    2.4626   11.3815  -11.8843 H   0  0  0  0  0  0  0  0  0  0  0  0
    2.5084    9.6535  -12.2592 H   0  0  0  0  0  0  0  0  0  0  0  0
   13.8480    4.7719    7.3655 H   0  0  0  0  0  0  0  0  0  0  0  0
   20.8908    4.1567    8.3346 H   0  0  0  0  0  0  0  0  0  0  0  0
   20.0888    2.6015   12.8159 H   0  0  0  0  0  0  0  0  0  0  0  0
   22.4847    2.0998   13.6738 H   0  0  0  0  0  0  0  0  0  0  0  0
   26.2024    0.2929   15.3526 H   0  0  0  0  0  0  0  0  0  0  0  0
   28.1430   -0.6953   16.7620 H   0  0  0  0  0  0  0  0  0  0  0  0
   31.3434    2.9521    8.4929 H   0  0  0  0  0  0  0  0  0  0  0  0
   30.8439    2.1370    9.9959 H   0  0  0  0  0  0  0  0  0  0  0  0
   31.4437    5.1232    9.7730 H   0  0  0  0  0  0  0  0  0  0  0  0
   32.5364    3.8923   10.4264 H   0  0  0  0  0  0  0  0  0  0  0  0
   31.0071    4.2344   11.2445 H   0  0  0  0  0  0  0  0  0  0  0  0
   26.7983    5.4888    6.4565 H   0  0  0  0  0  0  0  0  0  0  0  0
   25.5303    5.3512    7.6998 H   0  0  0  0  0  0  0  0  0  0  0  0
   26.3268    3.0902    5.8080 H   0  0  0  0  0  0  0  0  0  0  0  0
   24.9262    4.1484    5.6000 H   0  0  0  0  0  0  0  0  0  0  0  0
   25.0124    3.0707    6.9964 H   0  0  0  0  0  0  0  0  0  0  0  0
   18.9489    6.6626    5.2410 H   0  0  0  0  0  0  0  0  0  0  0  0
   20.8478    6.9538    3.7508 H   0  0  0  0  0  0  0  0  0  0  0  0
   22.3418    3.1126    4.9010 H   0  0  0  0  0  0  0  0  0  0  0  0
   20.4095    2.8165    6.3933 H   0  0  0  0  0  0  0  0  0  0  0  0
   14.0997    2.6698    8.4782 H   0  0  0  0  0  0  0  0  0  0  0  0
   12.2271    2.4131   10.0086 H   0  0  0  0  0  0  0  0  0  0  0  0
   14.1548    5.0122   12.8059 H   0  0  0  0  0  0  0  0  0  0  0  0
   16.0420    5.2777   11.2510 H   0  0  0  0  0  0  0  0  0  0  0  0
   22.8943    7.5110    2.7986 H   0  0  0  0  0  0  0  0  0  0  0  0
   21.8999    6.4966    1.7114 H   0  0  0  0  0  0  0  0  0  0  0  0
   10.4334    2.0128   11.4561 H   0  0  0  0  0  0  0  0  0  0  0  0
   10.3405    3.6510   10.7397 H   0  0  0  0  0  0  0  0  0  0  0  0
   24.9466    6.7877    1.5742 H   0  0  0  0  0  0  0  0  0  0  0  0
   23.8015    7.5591    0.4685 H   0  0  0  0  0  0  0  0  0  0  0  0
   23.9617    5.7975    0.4955 H   0  0  0  0  0  0  0  0  0  0  0  0
    9.0286    2.7908   13.3708 H   0  0  0  0  0  0  0  0  0  0  0  0
    8.1743    2.9973   11.8368 H   0  0  0  0  0  0  0  0  0  0  0  0
    8.9131    4.3920   12.6384 H   0  0  0  0  0  0  0  0  0  0  0  0
   32.0649    1.0872   14.6312 H   0  0  0  0  0  0  0  0  0  0  0  0
   36.0833   -2.8010   19.0447 H   0  0  0  0  0  0  0  0  0  0  0  0
   40.0178   -0.5994   17.3546 H   0  0  0  0  0  0  0  0  0  0  0  0
   41.9135   -1.7187   18.7255 H   0  0  0  0  0  0  0  0  0  0  0  0
   45.5320   -2.9896   20.9212 H   0  0  0  0  0  0  0  0  0  0  0  0
   47.8703   -3.4534   21.9404 H   0  0  0  0  0  0  0  0  0  0  0  0
   41.0167   -8.9308   26.0636 H   0  0  0  0  0  0  0  0  0  0  0  0
   42.3080   -7.7951   25.5961 H   0  0  0  0  0  0  0  0  0  0  0  0
   41.5619  -10.3041   24.0206 H   0  0  0  0  0  0  0  0  0  0  0  0
   42.9439  -10.1522   25.1140 H   0  0  0  0  0  0  0  0  0  0  0  0
   42.8738   -9.1732   23.6481 H   0  0  0  0  0  0  0  0  0  0  0  0
   36.6414   -7.8472   22.7481 H   0  0  0  0  0  0  0  0  0  0  0  0
   37.1993   -6.6739   21.5291 H   0  0  0  0  0  0  0  0  0  0  0  0
   36.4389   -5.9418   24.3947 H   0  0  0  0  0  0  0  0  0  0  0  0
   35.4032   -5.7373   22.9765 H   0  0  0  0  0  0  0  0  0  0  0  0
   36.9114   -4.8256   23.1015 H   0  0  0  0  0  0  0  0  0  0  0  0
   47.7501   -5.3347   23.7622 H   0  0  0  0  0  0  0  0  0  0  0  0
   32.0478   -3.8872   17.6271 H   0  0  0  0  0  0  0  0  0  0  0  0
   31.5223   -5.5869   19.2811 H   0  0  0  0  0  0  0  0  0  0  0  0
   33.9157   -3.5208   22.1657 H   0  0  0  0  0  0  0  0  0  0  0  0
   34.4212   -1.7896   20.4940 H   0  0  0  0  0  0  0  0  0  0  0  0
   33.5082    2.7104   15.7847 H   0  0  0  0  0  0  0  0  0  0  0  0
   34.0096    4.4148   14.1262 H   0  0  0  0  0  0  0  0  0  0  0  0
   36.8071    1.7695   12.2603 H   0  0  0  0  0  0  0  0  0  0  0  0
   36.2935    0.0472   13.9415 H   0  0  0  0  0  0  0  0  0  0  0  0
   31.8757   -7.5269   20.4683 H   0  0  0  0  0  0  0  0  0  0  0  0
   30.4380   -6.6351   21.0503 H   0  0  0  0  0  0  0  0  0  0  0  0
   35.0108    6.2261   12.9857 H   0  0  0  0  0  0  0  0  0  0  0  0
   33.7113    5.3772   12.0955 H   0  0  0  0  0  0  0  0  0  0  0  0
   32.0179   -8.7070   22.6594 H   0  0  0  0  0  0  0  0  0  0  0  0
   30.4396   -8.9851   21.9104 H   0  0  0  0  0  0  0  0  0  0  0  0
   30.6018   -7.8266   23.2370 H   0  0  0  0  0  0  0  0  0  0  0  0
   35.9122    7.0809   10.8196 H   0  0  0  0  0  0  0  0  0  0  0  0
   34.2285    7.5807   11.0300 H   0  0  0  0  0  0  0  0  0  0  0  0
   34.6290    6.2408    9.9468 H   0  0  0  0  0  0  0  0  0  0  0  0
  1  2  2  0  0  0  0
  1  6  1  0  0  0  0
  2  3  1  0  0  0  0
  3  9  1  0  0  0  0
  3  4  2  0  0  0  0
  4 14  1  0  0  0  0
  5  4  1  0  0  0  0
  5 10  1  0  0  0  0
  6  5  2  0  0  0  0
  7  8  2  0  0  0  0
  7  2  1  0  0  0  0
  8  9  1  0  0  0  0
 10177  1  0  0  0  0
 11 15  1  0  0  0  0
 11 10  2  0  0  0  0
 12  6  1  0  0  0  0
 12 11  1  0  0  0  0
 13  1  1  0  0  0  0
 14 43  2  0  0  0  0
 14 47  1  0  0  0  0
 15 19  1  0  0  0  0
 16 15  2  0  0  0  0
 16 17  1  0  0  0  0
 17 18  2  0  0  0  0
 18 19  1  0  0  0  0
 18 20  1  0  0  0  0
 20 24  2  0  0  0  0
 21 20  1  0  0  0  0
 21 22  1  0  0  0  0
 22 32  1  0  0  0  0
 22 23  2  0  0  0  0
 23 25  1  0  0  0  0
 24 28  1  0  0  0  0
 24 23  1  0  0  0  0
 25 26  1  0  0  0  0
 25 36  2  0  0  0  0
 26 29  2  0  0  0  0
 27 31  2  0  0  0  0
 27 26  1  0  0  0  0
 28 27  1  0  0  0  0
 29 30  1  0  0  0  0
 29 38  1  0  0  0  0
 31 30  1  0  0  0  0
 32 35  1  0  0  0  0
 33 34  1  0  0  0  0
 33 32  2  0  0  0  0
 34 42  2  0  0  0  0
 37 28  2  0  0  0  0
 38182  1  0  0  0  0
 39 38  1  0  0  0  0
 39185  1  0  0  0  0
 40 41  1  0  0  0  0
 40 31  1  0  0  0  0
 40187  1  0  0  0  0
 41189  1  0  0  0  0
 42 35  1  0  0  0  0
 42 66  1  0  0  0  0
 43 44  1  0  0  0  0
 44193  1  0  0  0  0
 44 45  2  0  0  0  0
 45 53  1  0  0  0  0
 46 45  1  0  0  0  0
 46194  1  0  0  0  0
 47 46  2  0  0  0  0
 48196  1  0  0  0  0
 48 13  2  0  0  0  0
 49 48  1  0  0  0  0
 50 49  2  0  0  0  0
 50 51  1  0  0  0  0
 51 52  2  0  0  0  0
 52199  1  0  0  0  0
 52 13  1  0  0  0  0
 53 54  1  0  0  0  0
 54 57  1  0  0  0  0
 55 50  1  0  0  0  0
 56203  1  0  0  0  0
 56 55  1  0  0  0  0
 56202  1  0  0  0  0
 57205  1  0  0  0  0
 57206  1  0  0  0  0
 57204  1  0  0  0  0
 58 56  1  0  0  0  0
 59 64  1  0  0  0  0
 59 71  1  0  0  0  0
 60 59  2  0  0  0  0
 61 62  2  0  0  0  0
 61 60  1  0  0  0  0
 62 63  1  0  0  0  0
 63 68  1  0  0  0  0
 63 64  2  0  0  0  0
 64 70  1  0  0  0  0
 65210  1  0  0  0  0
 65 60  1  0  0  0  0
 66 65  2  0  0  0  0
 67 66  1  0  0  0  0
 67 61  1  0  0  0  0
 68 69  2  0  0  0  0
 69 70  1  0  0  0  0
 69 73  1  0  0  0  0
 71110  1  0  0  0  0
 72 62  1  0  0  0  0
 73 74  2  0  0  0  0
 74 75  1  0  0  0  0
 74212  1  0  0  0  0
 75213  1  0  0  0  0
 76 78  1  0  0  0  0
 76 75  2  0  0  0  0
 77 73  1  0  0  0  0
 77 76  1  0  0  0  0
 78 79  1  0  0  0  0
 80 79  1  0  0  0  0
 80 90  1  0  0  0  0
 81 80  2  0  0  0  0
 82 81  1  0  0  0  0
 82 78  2  0  0  0  0
 83 94  2  0  0  0  0
 83 81  1  0  0  0  0
 84 83  1  0  0  0  0
 85 84  1  0  0  0  0
 85 86  1  0  0  0  0
 86 82  1  0  0  0  0
 87 96  1  0  0  0  0
 87 84  2  0  0  0  0
 88 89  1  0  0  0  0
 88 87  1  0  0  0  0
 89 85  2  0  0  0  0
 90 91  2  0  0  0  0
 91214  1  0  0  0  0
 91 92  1  0  0  0  0
 92215  1  0  0  0  0
 93 90  1  0  0  0  0
 93100  1  0  0  0  0
 95 86  2  0  0  0  0
 96217  1  0  0  0  0
 96 97  1  0  0  0  0
 97219  1  0  0  0  0
 97220  1  0  0  0  0
 98222  1  0  0  0  0
 98 89  1  0  0  0  0
 99225  1  0  0  0  0
 99 98  1  0  0  0  0
100 92  2  0  0  0  0
100124  1  0  0  0  0
101226  1  0  0  0  0
101 72  2  0  0  0  0
102101  1  0  0  0  0
103102  2  0  0  0  0
103104  1  0  0  0  0
104105  2  0  0  0  0
105 72  1  0  0  0  0
105229  1  0  0  0  0
106 71  2  0  0  0  0
106107  1  0  0  0  0
107108  2  0  0  0  0
108109  1  0  0  0  0
108113  1  0  0  0  0
109232  1  0  0  0  0
110233  1  0  0  0  0
110109  2  0  0  0  0
111103  1  0  0  0  0
112234  1  0  0  0  0
112111  1  0  0  0  0
114116  1  0  0  0  0
114113  1  0  0  0  0
115238  1  0  0  0  0
115112  1  0  0  0  0
116243  1  0  0  0  0
116241  1  0  0  0  0
117118  2  0  0  0  0
117122  1  0  0  0  0
118119  1  0  0  0  0
119125  1  0  0  0  0
119120  2  0  0  0  0
120130  1  0  0  0  0
121120  1  0  0  0  0
121126  1  0  0  0  0
122121  2  0  0  0  0
123124  2  0  0  0  0
123118  1  0  0  0  0
124125  1  0  0  0  0
126245  1  0  0  0  0
127126  2  0  0  0  0
127131  1  0  0  0  0
128122  1  0  0  0  0
128127  1  0  0  0  0
129164  1  0  0  0  0
129117  1  0  0  0  0
130163  1  0  0  0  0
131135  1  0  0  0  0
132131  2  0  0  0  0
132133  1  0  0  0  0
133134  2  0  0  0  0
134136  1  0  0  0  0
135134  1  0  0  0  0
136140  2  0  0  0  0
137136  1  0  0  0  0
137138  1  0  0  0  0
138139  2  0  0  0  0
138148  1  0  0  0  0
139141  1  0  0  0  0
140144  1  0  0  0  0
140139  1  0  0  0  0
141142  1  0  0  0  0
141152  2  0  0  0  0
142145  2  0  0  0  0
143147  2  0  0  0  0
143142  1  0  0  0  0
144143  1  0  0  0  0
145154  1  0  0  0  0
146145  1  0  0  0  0
147146  1  0  0  0  0
148151  1  0  0  0  0
149148  2  0  0  0  0
149150  1  0  0  0  0
150158  2  0  0  0  0
153144  2  0  0  0  0
154251  1  0  0  0  0
154250  1  0  0  0  0
155253  1  0  0  0  0
155154  1  0  0  0  0
156255  1  0  0  0  0
156147  1  0  0  0  0
156157  1  0  0  0  0
157257  1  0  0  0  0
158151  1  0  0  0  0
158260  1  0  0  0  0
159130  2  0  0  0  0
159160  1  0  0  0  0
160161  2  0  0  0  0
161162  1  0  0  0  0
161169  1  0  0  0  0
162263  1  0  0  0  0
163264  1  0  0  0  0
163162  2  0  0  0  0
164265  1  0  0  0  0
165266  1  0  0  0  0
165164  2  0  0  0  0
166165  1  0  0  0  0
167166  2  0  0  0  0
167168  1  0  0  0  0
168129  2  0  0  0  0
170169  1  0  0  0  0
170173  1  0  0  0  0
171172  1  0  0  0  0
171166  1  0  0  0  0
172272  1  0  0  0  0
172271  1  0  0  0  0
173273  1  0  0  0  0
173275  1  0  0  0  0
174277  1  0  0  0  0
174172  1  0  0  0  0
175  7  1  0  0  0  0
176  8  1  0  0  0  0
178 16  1  0  0  0  0
179 17  1  0  0  0  0
180 33  1  0  0  0  0
181 34  1  0  0  0  0
183 38  1  0  0  0  0
184 39  1  0  0  0  0
186 39  1  0  0  0  0
188 40  1  0  0  0  0
190 41  1  0  0  0  0
191 41  1  0  0  0  0
192 43  1  0  0  0  0
195 47  1  0  0  0  0
197 49  1  0  0  0  0
198 51  1  0  0  0  0
200 54  1  0  0  0  0
201 54  1  0  0  0  0
207 58  1  0  0  0  0
208 58  1  0  0  0  0
209 58  1  0  0  0  0
211 68  1  0  0  0  0
216 96  1  0  0  0  0
218 97  1  0  0  0  0
221 98  1  0  0  0  0
223 99  1  0  0  0  0
224 99  1  0  0  0  0
227102  1  0  0  0  0
228104  1  0  0  0  0
230106  1  0  0  0  0
231107  1  0  0  0  0
235112  1  0  0  0  0
236114  1  0  0  0  0
237114  1  0  0  0  0
239115  1  0  0  0  0
240115  1  0  0  0  0
242116  1  0  0  0  0
244123  1  0  0  0  0
246132  1  0  0  0  0
247133  1  0  0  0  0
248149  1  0  0  0  0
249150  1  0  0  0  0
252155  1  0  0  0  0
254155  1  0  0  0  0
256156  1  0  0  0  0
258157  1  0  0  0  0
259157  1  0  0  0  0
261159  1  0  0  0  0
262160  1  0  0  0  0
267167  1  0  0  0  0
268168  1  0  0  0  0
269170  1  0  0  0  0
270170  1  0  0  0  0
274173  1  0  0  0  0
276174  1  0  0  0  0
278174  1  0  0  0  0
M  END
