SCF done       -376.813772663495          0.000267247563
 OpenBabel12282109573D

206226  0  0  0  0  0  0  0  0999 V2000
    0.7403   -2.0291    6.1002 C   0  0  0  0  0  0  0  0  0  0  0  0
    0.4589   -2.0453    4.7259 C   0  0  0  0  0  0  0  0  0  0  0  0
    0.9819   -2.9832    3.8694 C   0  0  0  0  0  0  0  0  0  0  0  0
    1.8406   -3.9951    4.3163 C   0  0  0  0  0  0  0  0  0  0  0  0
    2.1201   -3.9804    5.6911 C   0  0  0  0  0  0  0  0  0  0  0  0
    1.5961   -3.0431    6.5480 C   0  0  0  0  0  0  0  0  0  0  0  0
    0.2071   -1.0592    7.0192 C   0  0  0  0  0  0  0  0  0  0  0  0
    2.3786   -4.9604    3.3951 C   0  0  0  0  0  0  0  0  0  0  0  0
   -0.3597   -1.1173    4.1860 F   0  0  0  0  0  0  0  0  0  0  0  0
    1.9126   -4.9033    1.7146 S   0  0  0  0  0  0  0  0  0  0  0  0
    3.5665   -6.7175    2.4556 C   0  0  0  0  0  0  0  0  0  0  0  0
    3.2647   -5.9931    3.6078 C   0  0  0  0  0  0  0  0  0  0  0  0
   -0.5880    0.0407    6.7878 C   0  0  0  0  0  0  0  0  0  0  0  0
   -0.9103    0.7507    7.9442 C   0  0  0  0  0  0  0  0  0  0  0  0
   -0.3788    0.2143    9.0989 C   0  0  0  0  0  0  0  0  0  0  0  0
    0.5536   -1.2027    8.7232 S   0  0  0  0  0  0  0  0  0  0  0  0
   -0.5489    0.7257   10.4170 C   0  0  0  0  0  0  0  0  0  0  0  0
   -1.4182    2.2263   10.5955 S   0  0  0  0  0  0  0  0  0  0  0  0
   -1.2451    2.1787   12.3226 C   0  0  0  0  0  0  0  0  0  0  0  0
   -0.5503    1.0541   12.7065 C   0  0  0  0  0  0  0  0  0  0  0  0
   -0.1525    0.2277   11.6482 C   0  0  0  0  0  0  0  0  0  0  0  0
    0.6417   -1.0183   11.8811 C   0  0  0  0  0  0  0  0  0  0  0  0
    2.1416   -0.7398   11.7646 C   0  0  0  0  0  0  0  0  0  0  0  0
   -1.7784    3.1939   13.1798 C   0  0  0  0  0  0  0  0  0  0  0  0
   -1.6643    3.1277   14.5918 C   0  0  0  0  0  0  0  0  0  0  0  0
   -2.1994    4.1332   15.4524 C   0  0  0  0  0  0  0  0  0  0  0  0
   -2.8804    5.2757   14.9606 C   0  0  0  0  0  0  0  0  0  0  0  0
   -2.9720    5.3115   13.5767 C   0  0  0  0  0  0  0  0  0  0  0  0
   -2.4504    4.3224   12.7313 C   0  0  0  0  0  0  0  0  0  0  0  0
   -1.0961    2.1992   15.3732 N   0  0  0  0  0  0  0  0  0  0  0  0
   -1.2888    2.6315   16.5878 N   0  0  0  0  0  0  0  0  0  0  0  0
   -1.9275    3.7607   16.7110 N   0  0  0  0  0  0  0  0  0  0  0  0
   -0.7799    1.9247   17.7284 C   0  0  0  0  0  0  0  0  0  0  0  0
   -2.6286    4.5086   11.4086 F   0  0  0  0  0  0  0  0  0  0  0  0
   -3.5945    6.3437   12.9745 F   0  0  0  0  0  0  0  0  0  0  0  0
   -3.4140    6.2808   15.8338 C   0  0  0  0  0  0  0  0  0  0  0  0
   -3.3608    6.2933   17.2068 C   0  0  0  0  0  0  0  0  0  0  0  0
   -3.9761    7.4204   17.7856 C   0  0  0  0  0  0  0  0  0  0  0  0
   -4.4944    8.2542   16.8372 C   0  0  0  0  0  0  0  0  0  0  0  0
   -4.2436    7.6929   15.2395 S   0  0  0  0  0  0  0  0  0  0  0  0
   -4.0854    7.6388   19.2622 C   0  0  0  0  0  0  0  0  0  0  0  0
    2.9200   -6.2647    1.3235 C   0  0  0  0  0  0  0  0  0  0  0  0
   -5.2008    6.7761   19.8545 C   0  0  0  0  0  0  0  0  0  0  0  0
    0.6388    2.3843   18.0511 C   0  0  0  0  0  0  0  0  0  0  0  0
    2.9332   -4.9124    6.2322 F   0  0  0  0  0  0  0  0  0  0  0  0
   11.7338  -16.3936   -8.8886 C   0  0  0  0  0  0  0  0  0  0  0  0
   12.6442  -17.3848   -8.4933 C   0  0  0  0  0  0  0  0  0  0  0  0
   13.5881  -17.9103   -9.3424 C   0  0  0  0  0  0  0  0  0  0  0  0
   13.7014  -17.4866  -10.6723 C   0  0  0  0  0  0  0  0  0  0  0  0
   12.7625  -16.5267  -11.0790 C   0  0  0  0  0  0  0  0  0  0  0  0
   11.8206  -15.9999  -10.2296 C   0  0  0  0  0  0  0  0  0  0  0  0
   10.7843  -15.7716   -8.0042 C   0  0  0  0  0  0  0  0  0  0  0  0
   14.7426  -17.9990  -11.5229 C   0  0  0  0  0  0  0  0  0  0  0  0
   12.6250  -17.8615   -7.2305 F   0  0  0  0  0  0  0  0  0  0  0  0
   15.7830  -19.2782  -10.9521 S   0  0  0  0  0  0  0  0  0  0  0  0
   16.2315  -18.2915  -13.2768 C   0  0  0  0  0  0  0  0  0  0  0  0
   15.1246  -17.6018  -12.7850 C   0  0  0  0  0  0  0  0  0  0  0  0
   10.6287  -15.8899   -6.6414 C   0  0  0  0  0  0  0  0  0  0  0  0
    9.6304  -15.0667   -6.1195 C   0  0  0  0  0  0  0  0  0  0  0  0
    8.9824  -14.3025   -7.0672 C   0  0  0  0  0  0  0  0  0  0  0  0
    9.6396  -14.6216   -8.6432 S   0  0  0  0  0  0  0  0  0  0  0  0
    7.9619  -13.3389   -6.8238 C   0  0  0  0  0  0  0  0  0  0  0  0
    7.6657  -12.8706   -5.1715 S   0  0  0  0  0  0  0  0  0  0  0  0
    6.4430  -11.7377   -5.6611 C   0  0  0  0  0  0  0  0  0  0  0  0
    6.2841  -11.7610   -7.0287 C   0  0  0  0  0  0  0  0  0  0  0  0
    7.1305  -12.6546   -7.6961 C   0  0  0  0  0  0  0  0  0  0  0  0
    7.1136  -12.7875   -9.1860 C   0  0  0  0  0  0  0  0  0  0  0  0
    8.0766  -11.7912   -9.8347 C   0  0  0  0  0  0  0  0  0  0  0  0
    5.7540  -10.8954   -4.7322 C   0  0  0  0  0  0  0  0  0  0  0  0
    4.7979   -9.9342   -5.1498 C   0  0  0  0  0  0  0  0  0  0  0  0
    4.1439   -9.0554   -4.2349 C   0  0  0  0  0  0  0  0  0  0  0  0
    4.4024   -9.0761   -2.8401 C   0  0  0  0  0  0  0  0  0  0  0  0
    5.3265  -10.0422   -2.4622 C   0  0  0  0  0  0  0  0  0  0  0  0
    5.9667  -10.9056   -3.3595 C   0  0  0  0  0  0  0  0  0  0  0  0
    4.3334   -9.6477   -6.3737 N   0  0  0  0  0  0  0  0  0  0  0  0
    3.4778   -8.6832   -6.1820 N   0  0  0  0  0  0  0  0  0  0  0  0
    3.3171   -8.2824   -4.9521 N   0  0  0  0  0  0  0  0  0  0  0  0
    2.7880   -8.0577   -7.2738 C   0  0  0  0  0  0  0  0  0  0  0  0
    6.8448  -11.7800   -2.8301 F   0  0  0  0  0  0  0  0  0  0  0  0
    5.6552  -10.1742   -1.1620 F   0  0  0  0  0  0  0  0  0  0  0  0
    3.7768   -8.1615   -1.9358 C   0  0  0  0  0  0  0  0  0  0  0  0
    2.8546   -7.1891   -2.2588 C   0  0  0  0  0  0  0  0  0  0  0  0
    2.4325   -6.4112   -1.1761 C   0  0  0  0  0  0  0  0  0  0  0  0
    3.0458   -6.7946    0.0104 C   0  0  0  0  0  0  0  0  0  0  0  0
    4.1365   -8.1282   -0.2375 S   0  0  0  0  0  0  0  0  0  0  0  0
    1.4415   -5.2928   -1.2699 C   0  0  0  0  0  0  0  0  0  0  0  0
   16.7277  -19.2443  -12.4109 C   0  0  0  0  0  0  0  0  0  0  0  0
    0.8843   -5.0733   -2.6706 C   0  0  0  0  0  0  0  0  0  0  0  0
    3.6081   -6.8951   -7.8251 C   0  0  0  0  0  0  0  0  0  0  0  0
   12.7568  -16.0733  -12.3504 F   0  0  0  0  0  0  0  0  0  0  0  0
   30.7961  -21.6159  -21.5111 C   0  0  0  0  0  0  0  0  0  0  0  0
   31.1747  -20.8357  -22.6135 C   0  0  0  0  0  0  0  0  0  0  0  0
   32.3819  -20.9866  -23.2536 C   0  0  0  0  0  0  0  0  0  0  0  0
   33.3206  -21.9389  -22.8432 C   0  0  0  0  0  0  0  0  0  0  0  0
   32.9419  -22.7201  -21.7428 C   0  0  0  0  0  0  0  0  0  0  0  0
   31.7354  -22.5695  -21.1017 C   0  0  0  0  0  0  0  0  0  0  0  0
   29.5434  -21.4749  -20.8162 C   0  0  0  0  0  0  0  0  0  0  0  0
   34.5827  -22.0736  -23.5311 C   0  0  0  0  0  0  0  0  0  0  0  0
   30.3448  -19.8865  -23.0943 F   0  0  0  0  0  0  0  0  0  0  0  0
   34.9647  -21.0075  -24.8607 S   0  0  0  0  0  0  0  0  0  0  0  0
   36.6938  -22.7712  -24.2004 C   0  0  0  0  0  0  0  0  0  0  0  0
   35.6152  -22.9507  -23.3149 C   0  0  0  0  0  0  0  0  0  0  0  0
   28.4962  -20.6092  -21.0372 C   0  0  0  0  0  0  0  0  0  0  0  0
   27.4406  -20.7683  -20.1395 C   0  0  0  0  0  0  0  0  0  0  0  0
   27.6428  -21.7636  -19.2058 C   0  0  0  0  0  0  0  0  0  0  0  0
   29.1903  -22.5115  -19.4584 S   0  0  0  0  0  0  0  0  0  0  0  0
   26.7450  -22.1337  -18.1643 C   0  0  0  0  0  0  0  0  0  0  0  0
   25.2879  -21.1948  -17.9815 S   0  0  0  0  0  0  0  0  0  0  0  0
   24.7787  -22.1565  -16.6279 C   0  0  0  0  0  0  0  0  0  0  0  0
   25.7009  -23.1449  -16.3651 C   0  0  0  0  0  0  0  0  0  0  0  0
   26.8090  -23.1473  -17.2206 C   0  0  0  0  0  0  0  0  0  0  0  0
   27.9237  -24.1317  -17.0589 C   0  0  0  0  0  0  0  0  0  0  0  0
   29.0355  -23.5597  -16.1771 C   0  0  0  0  0  0  0  0  0  0  0  0
   23.5683  -21.8978  -15.9104 C   0  0  0  0  0  0  0  0  0  0  0  0
   23.1901  -22.6490  -14.7680 C   0  0  0  0  0  0  0  0  0  0  0  0
   22.0036  -22.3700  -14.0252 C   0  0  0  0  0  0  0  0  0  0  0  0
   21.1109  -21.3252  -14.3772 C   0  0  0  0  0  0  0  0  0  0  0  0
   21.4981  -20.6253  -15.5132 C   0  0  0  0  0  0  0  0  0  0  0  0
   22.6651  -20.8946  -16.2381 C   0  0  0  0  0  0  0  0  0  0  0  0
   23.7935  -23.6875  -14.1738 N   0  0  0  0  0  0  0  0  0  0  0  0
   23.0171  -23.9870  -13.1704 N   0  0  0  0  0  0  0  0  0  0  0  0
   21.9497  -23.2541  -13.0198 N   0  0  0  0  0  0  0  0  0  0  0  0
   23.3449  -25.0384  -12.2503 C   0  0  0  0  0  0  0  0  0  0  0  0
   22.9016  -20.1115  -17.3088 F   0  0  0  0  0  0  0  0  0  0  0  0
   20.7320  -19.6121  -15.9631 F   0  0  0  0  0  0  0  0  0  0  0  0
   19.9452  -21.0239  -13.6054 C   0  0  0  0  0  0  0  0  0  0  0  0
   19.5503  -21.6379  -12.4359 C   0  0  0  0  0  0  0  0  0  0  0  0
   18.3856  -21.1082  -11.8709 C   0  0  0  0  0  0  0  0  0  0  0  0
   17.8675  -20.0661  -12.6292 C   0  0  0  0  0  0  0  0  0  0  0  0
   18.8389  -19.7584  -14.0397 S   0  0  0  0  0  0  0  0  0  0  0  0
   17.7596  -21.5932  -10.6001 C   0  0  0  0  0  0  0  0  0  0  0  0
   36.4859  -21.7622  -25.0864 C   0  0  0  0  0  0  0  0  0  0  0  0
   18.4343  -22.8239  -10.0077 C   0  0  0  0  0  0  0  0  0  0  0  0
   24.1740  -24.4934  -11.0911 C   0  0  0  0  0  0  0  0  0  0  0  0
   33.7714  -23.6696  -21.2600 F   0  0  0  0  0  0  0  0  0  0  0  0
    0.7168   -2.9283    2.8247 H   0  0  0  0  0  0  0  0  0  0  0  0
    1.8601   -3.0991    7.5929 H   0  0  0  0  0  0  0  0  0  0  0  0
    4.2417   -7.5546    2.4358 H   0  0  0  0  0  0  0  0  0  0  0  0
    3.6914   -6.2237    4.5655 H   0  0  0  0  0  0  0  0  0  0  0  0
   -0.9300    0.3344    5.8136 H   0  0  0  0  0  0  0  0  0  0  0  0
   -1.5213    1.6360    7.9493 H   0  0  0  0  0  0  0  0  0  0  0  0
   -0.3426    0.8418   13.7388 H   0  0  0  0  0  0  0  0  0  0  0  0
    0.3565   -1.7917   11.1659 H   0  0  0  0  0  0  0  0  0  0  0  0
    0.4224   -1.3872   12.8850 H   0  0  0  0  0  0  0  0  0  0  0  0
    2.3867   -0.3742   10.7707 H   0  0  0  0  0  0  0  0  0  0  0  0
    2.7087   -1.6489   11.9476 H   0  0  0  0  0  0  0  0  0  0  0  0
    2.4414    0.0116   12.4917 H   0  0  0  0  0  0  0  0  0  0  0  0
   -0.7920    0.8600   17.4883 H   0  0  0  0  0  0  0  0  0  0  0  0
   -1.4487    2.1287   18.5665 H   0  0  0  0  0  0  0  0  0  0  0  0
   -2.8867    5.5102   17.7682 H   0  0  0  0  0  0  0  0  0  0  0  0
   -5.0129    9.1803   16.9913 H   0  0  0  0  0  0  0  0  0  0  0  0
   -4.2924    8.6915   19.4629 H   0  0  0  0  0  0  0  0  0  0  0  0
   -3.1366    7.3785   19.7364 H   0  0  0  0  0  0  0  0  0  0  0  0
   -6.1573    7.0371   19.4074 H   0  0  0  0  0  0  0  0  0  0  0  0
   -5.2675    6.9265   20.9294 H   0  0  0  0  0  0  0  0  0  0  0  0
   -5.0083    5.7234   19.6610 H   0  0  0  0  0  0  0  0  0  0  0  0
    1.2958    2.1949   17.2059 H   0  0  0  0  0  0  0  0  0  0  0  0
    1.0140    1.8442   18.9154 H   0  0  0  0  0  0  0  0  0  0  0  0
    0.6474    3.4490   18.2710 H   0  0  0  0  0  0  0  0  0  0  0  0
   14.2637  -18.6600   -8.9599 H   0  0  0  0  0  0  0  0  0  0  0  0
   11.1427  -15.2538  -10.6148 H   0  0  0  0  0  0  0  0  0  0  0  0
   16.6715  -18.1057  -14.2406 H   0  0  0  0  0  0  0  0  0  0  0  0
   14.6315  -16.8267  -13.3402 H   0  0  0  0  0  0  0  0  0  0  0  0
   11.2235  -16.5409   -6.0290 H   0  0  0  0  0  0  0  0  0  0  0  0
    9.3796  -15.0215   -5.0744 H   0  0  0  0  0  0  0  0  0  0  0  0
    5.5670  -11.1349   -7.5264 H   0  0  0  0  0  0  0  0  0  0  0  0
    6.1003  -12.5881   -9.5407 H   0  0  0  0  0  0  0  0  0  0  0  0
    7.3834  -13.8026   -9.4815 H   0  0  0  0  0  0  0  0  0  0  0  0
    7.7975  -10.7734   -9.5718 H   0  0  0  0  0  0  0  0  0  0  0  0
    8.0506  -11.8928  -10.9166 H   0  0  0  0  0  0  0  0  0  0  0  0
    9.0943  -11.9674   -9.4957 H   0  0  0  0  0  0  0  0  0  0  0  0
    1.8274   -7.7035   -6.8957 H   0  0  0  0  0  0  0  0  0  0  0  0
    2.6328   -8.8157   -8.0437 H   0  0  0  0  0  0  0  0  0  0  0  0
    2.5139   -7.0653   -3.2682 H   0  0  0  0  0  0  0  0  0  0  0  0
    1.9191   -4.3701   -0.9242 H   0  0  0  0  0  0  0  0  0  0  0  0
    0.6149   -5.4966   -0.5815 H   0  0  0  0  0  0  0  0  0  0  0  0
    1.6798   -4.8202   -3.3672 H   0  0  0  0  0  0  0  0  0  0  0  0
    0.1697   -4.2537   -2.6547 H   0  0  0  0  0  0  0  0  0  0  0  0
    0.3747   -5.9651   -3.0272 H   0  0  0  0  0  0  0  0  0  0  0  0
    3.7768   -6.1533   -7.0483 H   0  0  0  0  0  0  0  0  0  0  0  0
    3.0769   -6.4264   -8.6483 H   0  0  0  0  0  0  0  0  0  0  0  0
    4.5699   -7.2517   -8.1851 H   0  0  0  0  0  0  0  0  0  0  0  0
   32.5989  -20.3463  -24.0947 H   0  0  0  0  0  0  0  0  0  0  0  0
   31.5190  -23.2090  -20.2598 H   0  0  0  0  0  0  0  0  0  0  0  0
   37.5872  -23.3690  -24.1771 H   0  0  0  0  0  0  0  0  0  0  0  0
   35.6117  -23.7047  -22.5511 H   0  0  0  0  0  0  0  0  0  0  0  0
   28.4845  -19.8758  -21.8210 H   0  0  0  0  0  0  0  0  0  0  0  0
   26.5437  -20.1748  -20.1629 H   0  0  0  0  0  0  0  0  0  0  0  0
   25.5641  -23.8482  -15.5647 H   0  0  0  0  0  0  0  0  0  0  0  0
   28.3332  -24.4068  -18.0323 H   0  0  0  0  0  0  0  0  0  0  0  0
   27.5245  -25.0340  -16.5916 H   0  0  0  0  0  0  0  0  0  0  0  0
   29.4496  -22.6575  -16.6201 H   0  0  0  0  0  0  0  0  0  0  0  0
   29.8358  -24.2861  -16.0620 H   0  0  0  0  0  0  0  0  0  0  0  0
   28.6440  -23.3116  -15.1932 H   0  0  0  0  0  0  0  0  0  0  0  0
   23.9073  -25.7939  -12.8018 H   0  0  0  0  0  0  0  0  0  0  0  0
   22.4070  -25.4602  -11.8846 H   0  0  0  0  0  0  0  0  0  0  0  0
   20.1166  -22.4482  -12.0194 H   0  0  0  0  0  0  0  0  0  0  0  0
   16.7050  -21.8169  -10.7901 H   0  0  0  0  0  0  0  0  0  0  0  0
   17.7820  -20.7813   -9.8655 H   0  0  0  0  0  0  0  0  0  0  0  0
   37.1351  -21.4111  -25.8638 H   0  0  0  0  0  0  0  0  0  0  0  0
   18.4181  -23.6494  -10.7152 H   0  0  0  0  0  0  0  0  0  0  0  0
   17.9069  -23.1322   -9.1081 H   0  0  0  0  0  0  0  0  0  0  0  0
   19.4663  -22.6090   -9.7417 H   0  0  0  0  0  0  0  0  0  0  0  0
   25.0988  -24.0590  -11.4624 H   0  0  0  0  0  0  0  0  0  0  0  0
   24.4158  -25.2965  -10.4011 H   0  0  0  0  0  0  0  0  0  0  0  0
   23.6157  -23.7282  -10.5576 H   0  0  0  0  0  0  0  0  0  0  0  0
  1  6  1  0  0  0  0
  1  7  1  0  0  0  0
  2  1  2  0  0  0  0
  3  4  2  0  0  0  0
  3  2  1  0  0  0  0
  4  5  1  0  0  0  0
  5 45  1  0  0  0  0
  5  6  2  0  0  0  0
  6137  1  0  0  0  0
  7 16  1  0  0  0  0
  8 12  2  0  0  0  0
  8  4  1  0  0  0  0
  9  2  1  0  0  0  0
 10  8  1  0  0  0  0
 11 12  1  0  0  0  0
 12139  1  0  0  0  0
 13  7  2  0  0  0  0
 13 14  1  0  0  0  0
 14141  1  0  0  0  0
 14 15  2  0  0  0  0
 15 17  1  0  0  0  0
 16 15  1  0  0  0  0
 17 18  1  0  0  0  0
 17 21  2  0  0  0  0
 18 19  1  0  0  0  0
 19 20  2  0  0  0  0
 19 24  1  0  0  0  0
 20142  1  0  0  0  0
 21 22  1  0  0  0  0
 21 20  1  0  0  0  0
 22144  1  0  0  0  0
 23 22  1  0  0  0  0
 23146  1  0  0  0  0
 23147  1  0  0  0  0
 24 25  1  0  0  0  0
 25 30  2  0  0  0  0
 25 26  1  0  0  0  0
 26 32  2  0  0  0  0
 27 26  1  0  0  0  0
 27 36  1  0  0  0  0
 28 27  2  0  0  0  0
 29 24  2  0  0  0  0
 29 28  1  0  0  0  0
 30 31  1  0  0  0  0
 31 32  1  0  0  0  0
 31 33  1  0  0  0  0
 33 44  1  0  0  0  0
 33149  1  0  0  0  0
 34 29  1  0  0  0  0
 35 28  1  0  0  0  0
 36 37  2  0  0  0  0
 37150  1  0  0  0  0
 37 38  1  0  0  0  0
 38 41  1  0  0  0  0
 39151  1  0  0  0  0
 39 38  2  0  0  0  0
 40 36  1  0  0  0  0
 40 39  1  0  0  0  0
 41152  1  0  0  0  0
 41153  1  0  0  0  0
 41 43  1  0  0  0  0
 42 10  1  0  0  0  0
 42 11  2  0  0  0  0
 43155  1  0  0  0  0
 44159  1  0  0  0  0
 44158  1  0  0  0  0
 46 47  1  0  0  0  0
 46 52  1  0  0  0  0
 47 54  1  0  0  0  0
 48160  1  0  0  0  0
 48 47  2  0  0  0  0
 49 48  1  0  0  0  0
 50 49  2  0  0  0  0
 50 51  1  0  0  0  0
 51 46  2  0  0  0  0
 52 58  2  0  0  0  0
 53 55  1  0  0  0  0
 53 49  1  0  0  0  0
 56 57  1  0  0  0  0
 56 87  2  0  0  0  0
 57 53  2  0  0  0  0
 58 59  1  0  0  0  0
 58164  1  0  0  0  0
 59165  1  0  0  0  0
 60 62  1  0  0  0  0
 60 59  2  0  0  0  0
 61 52  1  0  0  0  0
 61 60  1  0  0  0  0
 62 63  1  0  0  0  0
 64 63  1  0  0  0  0
 64 69  1  0  0  0  0
 65 64  2  0  0  0  0
 66 65  1  0  0  0  0
 66 62  2  0  0  0  0
 67 66  1  0  0  0  0
 68169  1  0  0  0  0
 68171  1  0  0  0  0
 68 67  1  0  0  0  0
 69 74  2  0  0  0  0
 70 69  1  0  0  0  0
 70 71  1  0  0  0  0
 71 72  1  0  0  0  0
 72 73  2  0  0  0  0
 72 81  1  0  0  0  0
 73 80  1  0  0  0  0
 74 79  1  0  0  0  0
 74 73  1  0  0  0  0
 75 76  1  0  0  0  0
 75 70  2  0  0  0  0
 76 77  1  0  0  0  0
 77 71  2  0  0  0  0
 78172  1  0  0  0  0
 78 76  1  0  0  0  0
 81 85  1  0  0  0  0
 82 81  2  0  0  0  0
 82 83  1  0  0  0  0
 83 84  2  0  0  0  0
 84 42  1  0  0  0  0
 85 84  1  0  0  0  0
 86 83  1  0  0  0  0
 86175  1  0  0  0  0
 86176  1  0  0  0  0
 87 55  1  0  0  0  0
 88178  1  0  0  0  0
 88 86  1  0  0  0  0
 89 78  1  0  0  0  0
 89180  1  0  0  0  0
 90 50  1  0  0  0  0
 91 96  1  0  0  0  0
 91 97  1  0  0  0  0
 92 91  2  0  0  0  0
 93 94  2  0  0  0  0
 93 92  1  0  0  0  0
 94 95  1  0  0  0  0
 95135  1  0  0  0  0
 95 96  2  0  0  0  0
 96184  1  0  0  0  0
 97106  1  0  0  0  0
 98102  2  0  0  0  0
 98 94  1  0  0  0  0
 99 92  1  0  0  0  0
100 98  1  0  0  0  0
101185  1  0  0  0  0
101102  1  0  0  0  0
102186  1  0  0  0  0
103 97  2  0  0  0  0
103104  1  0  0  0  0
104105  2  0  0  0  0
105107  1  0  0  0  0
106105  1  0  0  0  0
107108  1  0  0  0  0
107111  2  0  0  0  0
108109  1  0  0  0  0
109110  2  0  0  0  0
109114  1  0  0  0  0
110189  1  0  0  0  0
111112  1  0  0  0  0
111110  1  0  0  0  0
112191  1  0  0  0  0
112113  1  0  0  0  0
113193  1  0  0  0  0
113194  1  0  0  0  0
114115  1  0  0  0  0
115120  2  0  0  0  0
115116  1  0  0  0  0
116122  2  0  0  0  0
117116  1  0  0  0  0
117126  1  0  0  0  0
118117  2  0  0  0  0
119114  2  0  0  0  0
119118  1  0  0  0  0
120121  1  0  0  0  0
121122  1  0  0  0  0
121123  1  0  0  0  0
123196  1  0  0  0  0
123134  1  0  0  0  0
124119  1  0  0  0  0
125118  1  0  0  0  0
126127  2  0  0  0  0
127197  1  0  0  0  0
127128  1  0  0  0  0
128131  1  0  0  0  0
129 87  1  0  0  0  0
129128  2  0  0  0  0
130126  1  0  0  0  0
130129  1  0  0  0  0
131133  1  0  0  0  0
131199  1  0  0  0  0
132100  1  0  0  0  0
132101  2  0  0  0  0
133203  1  0  0  0  0
133202  1  0  0  0  0
134206  1  0  0  0  0
134205  1  0  0  0  0
136  3  1  0  0  0  0
138 11  1  0  0  0  0
140 13  1  0  0  0  0
143 22  1  0  0  0  0
145 23  1  0  0  0  0
148 33  1  0  0  0  0
154 43  1  0  0  0  0
156 43  1  0  0  0  0
157 44  1  0  0  0  0
161 51  1  0  0  0  0
162 56  1  0  0  0  0
163 57  1  0  0  0  0
166 65  1  0  0  0  0
167 67  1  0  0  0  0
168 67  1  0  0  0  0
170 68  1  0  0  0  0
173 78  1  0  0  0  0
174 82  1  0  0  0  0
177 88  1  0  0  0  0
179 88  1  0  0  0  0
181 89  1  0  0  0  0
182 89  1  0  0  0  0
183 93  1  0  0  0  0
187103  1  0  0  0  0
188104  1  0  0  0  0
190112  1  0  0  0  0
192113  1  0  0  0  0
195123  1  0  0  0  0
198131  1  0  0  0  0
200132  1  0  0  0  0
201133  1  0  0  0  0
204134  1  0  0  0  0
M  END
