SCF done       -319.604383789684          0.000562754627
 OpenBabel12282109573D

176193  0  0  0  0  0  0  0  0999 V2000
   -0.0005    3.3747    0.0271 C   0  0  0  0  0  0  0  0  0  0  0  0
   -0.1707    3.1185    1.4103 C   0  0  0  0  0  0  0  0  0  0  0  0
   -0.9953    2.1152    1.9033 C   0  0  0  0  0  0  0  0  0  0  0  0
   -1.7231    1.3797    0.9455 C   0  0  0  0  0  0  0  0  0  0  0  0
   -1.5603    1.6308   -0.4374 C   0  0  0  0  0  0  0  0  0  0  0  0
   -0.6927    2.6071   -0.9262 C   0  0  0  0  0  0  0  0  0  0  0  0
   -2.6737    0.3643    1.1730 C   0  0  0  0  0  0  0  0  0  0  0  0
   -3.1967   -0.1850    0.0299 C   0  0  0  0  0  0  0  0  0  0  0  0
   -2.5323    0.5549   -1.4072 S   0  0  0  0  0  0  0  0  0  0  0  0
    0.9002    4.4593   -0.1913 C   0  0  0  0  0  0  0  0  0  0  0  0
    1.3989    4.9710    0.9516 C   0  0  0  0  0  0  0  0  0  0  0  0
    0.8140    4.1855    2.3758 S   0  0  0  0  0  0  0  0  0  0  0  0
   -0.5230    2.7892   -2.3547 C   0  0  0  0  0  0  0  0  0  0  0  0
   -1.1047    1.8053    3.3140 C   0  0  0  0  0  0  0  0  0  0  0  0
   -4.1770   -1.2204    0.0417 C   0  0  0  0  0  0  0  0  0  0  0  0
   -1.4797    2.7199   -3.3273 C   0  0  0  0  0  0  0  0  0  0  0  0
   -0.9402    2.8978   -4.6155 C   0  0  0  0  0  0  0  0  0  0  0  0
    0.4093    3.0823   -4.6662 C   0  0  0  0  0  0  0  0  0  0  0  0
    1.0499    3.0541   -3.0598 S   0  0  0  0  0  0  0  0  0  0  0  0
   -1.1451    0.5688    3.8951 C   0  0  0  0  0  0  0  0  0  0  0  0
   -1.2630    0.6471    5.2955 C   0  0  0  0  0  0  0  0  0  0  0  0
   -1.3268    1.9088    5.8070 C   0  0  0  0  0  0  0  0  0  0  0  0
   -1.2215    3.0585    4.5180 S   0  0  0  0  0  0  0  0  0  0  0  0
   -4.6901   -1.7898    1.6056 S   0  0  0  0  0  0  0  0  0  0  0  0
   -5.8066   -2.9260    0.9020 C   0  0  0  0  0  0  0  0  0  0  0  0
   -5.7717   -2.8562   -0.4622 C   0  0  0  0  0  0  0  0  0  0  0  0
   -4.8573   -1.9007   -0.9620 C   0  0  0  0  0  0  0  0  0  0  0  0
   -1.7076    2.8864   -5.7212 F   0  0  0  0  0  0  0  0  0  0  0  0
    1.2701    3.3197   -5.8585 C   0  0  0  0  0  0  0  0  0  0  0  0
    1.8511    4.7343   -5.8572 C   0  0  0  0  0  0  0  0  0  0  0  0
   -1.3147   -0.4536    6.0705 F   0  0  0  0  0  0  0  0  0  0  0  0
   -1.4231    2.3268    7.2335 C   0  0  0  0  0  0  0  0  0  0  0  0
   -0.1467    3.0322    7.6940 C   0  0  0  0  0  0  0  0  0  0  0  0
   -4.6730   -1.6846   -2.3991 C   0  0  0  0  0  0  0  0  0  0  0  0
   -3.8486   -0.9490   -2.8969 O   0  0  0  0  0  0  0  0  0  0  0  0
   -5.5252   -2.4171   -3.1238 O   0  0  0  0  0  0  0  0  0  0  0  0
   -5.4394   -2.2815   -4.5428 C   0  0  0  0  0  0  0  0  0  0  0  0
   -6.1180   -1.0094   -5.0313 C   0  0  0  0  0  0  0  0  0  0  0  0
   -7.5076   -4.6378    3.7062 C   0  0  0  0  0  0  0  0  0  0  0  0
   -8.1806   -5.4085    2.7231 C   0  0  0  0  0  0  0  0  0  0  0  0
   -9.1113   -6.3888    3.0360 C   0  0  0  0  0  0  0  0  0  0  0  0
   -9.3273   -6.6275    4.4112 C   0  0  0  0  0  0  0  0  0  0  0  0
   -8.6689   -5.8528    5.3968 C   0  0  0  0  0  0  0  0  0  0  0  0
   -7.7681   -4.8386    5.0760 C   0  0  0  0  0  0  0  0  0  0  0  0
  -10.1526   -7.6056    4.9989 C   0  0  0  0  0  0  0  0  0  0  0  0
  -10.1818   -7.5698    6.3708 C   0  0  0  0  0  0  0  0  0  0  0  0
   -9.1570   -6.3069    7.0081 S   0  0  0  0  0  0  0  0  0  0  0  0
   -6.6025   -3.7239    3.1173 C   0  0  0  0  0  0  0  0  0  0  0  0
   -6.5999   -3.7466    1.7542 C   0  0  0  0  0  0  0  0  0  0  0  0
   -7.7164   -4.9294    1.1097 S   0  0  0  0  0  0  0  0  0  0  0  0
   -7.1492   -4.0336    6.1090 C   0  0  0  0  0  0  0  0  0  0  0  0
   -9.8452   -7.1300    2.0312 C   0  0  0  0  0  0  0  0  0  0  0  0
  -10.9390   -8.4853    7.1583 C   0  0  0  0  0  0  0  0  0  0  0  0
   -6.7336   -4.4285    7.3499 C   0  0  0  0  0  0  0  0  0  0  0  0
   -6.2048   -3.3595    8.0978 C   0  0  0  0  0  0  0  0  0  0  0  0
   -6.2171   -2.1452    7.4777 C   0  0  0  0  0  0  0  0  0  0  0  0
   -6.9015   -2.3187    5.9002 S   0  0  0  0  0  0  0  0  0  0  0  0
  -11.1662   -7.4809    2.0488 C   0  0  0  0  0  0  0  0  0  0  0  0
  -11.5330   -8.2153    0.9053 C   0  0  0  0  0  0  0  0  0  0  0  0
  -10.5294   -8.4477    0.0129 C   0  0  0  0  0  0  0  0  0  0  0  0
   -9.0679   -7.7214    0.5884 S   0  0  0  0  0  0  0  0  0  0  0  0
  -11.7946   -9.7339    6.2965 S   0  0  0  0  0  0  0  0  0  0  0  0
  -12.4195  -10.4181    7.7706 C   0  0  0  0  0  0  0  0  0  0  0  0
  -11.9904   -9.7056    8.8545 C   0  0  0  0  0  0  0  0  0  0  0  0
  -11.1565   -8.6126    8.5259 C   0  0  0  0  0  0  0  0  0  0  0  0
   -5.7186   -3.5284    9.3410 F   0  0  0  0  0  0  0  0  0  0  0  0
   -5.7201   -0.8349    7.9824 C   0  0  0  0  0  0  0  0  0  0  0  0
   -4.6099   -0.2710    7.0954 C   0  0  0  0  0  0  0  0  0  0  0  0
  -12.7897   -8.6616    0.7158 F   0  0  0  0  0  0  0  0  0  0  0  0
  -10.5986   -9.1585   -1.2943 C   0  0  0  0  0  0  0  0  0  0  0  0
  -10.3932   -8.1942   -2.4633 C   0  0  0  0  0  0  0  0  0  0  0  0
  -10.6049   -7.7261    9.5537 C   0  0  0  0  0  0  0  0  0  0  0  0
   -9.8538   -6.7973    9.3487 O   0  0  0  0  0  0  0  0  0  0  0  0
  -11.0410   -8.0540   10.7741 O   0  0  0  0  0  0  0  0  0  0  0  0
  -10.5620   -7.2619   11.8616 C   0  0  0  0  0  0  0  0  0  0  0  0
   -9.1659   -7.6861   12.2934 C   0  0  0  0  0  0  0  0  0  0  0  0
  -14.3858  -13.4043    6.8254 C   0  0  0  0  0  0  0  0  0  0  0  0
  -14.6183  -13.5908    8.2111 C   0  0  0  0  0  0  0  0  0  0  0  0
  -15.3456  -14.6586    8.7205 C   0  0  0  0  0  0  0  0  0  0  0  0
  -15.9006  -15.5466    7.7778 C   0  0  0  0  0  0  0  0  0  0  0  0
  -15.6609  -15.3666    6.3939 C   0  0  0  0  0  0  0  0  0  0  0  0
  -14.8977  -14.3201    5.8837 C   0  0  0  0  0  0  0  0  0  0  0  0
  -16.7223  -16.6693    8.0386 C   0  0  0  0  0  0  0  0  0  0  0  0
  -17.0661  -17.3732    6.9236 C   0  0  0  0  0  0  0  0  0  0  0  0
  -16.4033  -16.6386    5.4677 S   0  0  0  0  0  0  0  0  0  0  0  0
  -13.6164  -12.2429    6.5808 C   0  0  0  0  0  0  0  0  0  0  0  0
  -13.2332  -11.5858    7.7124 C   0  0  0  0  0  0  0  0  0  0  0  0
  -13.8330  -12.3572    9.1627 S   0  0  0  0  0  0  0  0  0  0  0  0
  -14.6347  -14.1998    4.4643 C   0  0  0  0  0  0  0  0  0  0  0  0
  -15.5143  -14.8883   10.1409 C   0  0  0  0  0  0  0  0  0  0  0  0
  -17.8441  -18.5669    6.7942 C   0  0  0  0  0  0  0  0  0  0  0  0
  -15.4771  -14.4789    3.4247 C   0  0  0  0  0  0  0  0  0  0  0  0
  -14.8658  -14.2649    2.1743 C   0  0  0  0  0  0  0  0  0  0  0  0
  -13.5690  -13.8464    2.2182 C   0  0  0  0  0  0  0  0  0  0  0  0
  -13.0722  -13.7031    3.8676 S   0  0  0  0  0  0  0  0  0  0  0  0
  -15.4265  -16.0757   10.8108 C   0  0  0  0  0  0  0  0  0  0  0  0
  -15.6563  -15.9203   12.1906 C   0  0  0  0  0  0  0  0  0  0  0  0
  -15.9284  -14.6481   12.5979 C   0  0  0  0  0  0  0  0  0  0  0  0
  -15.8857  -13.5849   11.2338 S   0  0  0  0  0  0  0  0  0  0  0  0
  -18.2098  -19.1165    5.1856 S   0  0  0  0  0  0  0  0  0  0  0  0
  -19.0069  -20.5144    5.7805 C   0  0  0  0  0  0  0  0  0  0  0  0
  -18.9867  -20.5704    7.1329 C   0  0  0  0  0  0  0  0  0  0  0  0
  -18.3329  -19.4629    7.7353 C   0  0  0  0  0  0  0  0  0  0  0  0
  -15.5221  -14.4606    1.0163 F   0  0  0  0  0  0  0  0  0  0  0  0
  -12.6564  -13.5114    1.0898 C   0  0  0  0  0  0  0  0  0  0  0  0
  -12.1753  -12.0620    1.1628 C   0  0  0  0  0  0  0  0  0  0  0  0
  -15.6081  -16.9607   13.0441 F   0  0  0  0  0  0  0  0  0  0  0  0
  -16.2014  -14.1530   13.9758 C   0  0  0  0  0  0  0  0  0  0  0  0
  -15.1129  -13.1900   14.4508 C   0  0  0  0  0  0  0  0  0  0  0  0
  -18.2564  -19.3706    9.2049 C   0  0  0  0  0  0  0  0  0  0  0  0
  -18.1911  -18.3562    9.8590 O   0  0  0  0  0  0  0  0  0  0  0  0
  -18.3130  -20.5899    9.7561 O   0  0  0  0  0  0  0  0  0  0  0  0
  -18.2782  -20.6523   11.1827 C   0  0  0  0  0  0  0  0  0  0  0  0
  -16.8647  -20.4933   11.7240 C   0  0  0  0  0  0  0  0  0  0  0  0
   -2.9907    0.0603    2.1543 H   0  0  0  0  0  0  0  0  0  0  0  0
    1.1493    4.8405   -1.1638 H   0  0  0  0  0  0  0  0  0  0  0  0
    2.0873    5.7859    1.0626 H   0  0  0  0  0  0  0  0  0  0  0  0
   -2.5280    2.5774   -3.1464 H   0  0  0  0  0  0  0  0  0  0  0  0
   -1.0477   -0.3591    3.3633 H   0  0  0  0  0  0  0  0  0  0  0  0
   -6.3815   -3.4700   -1.0995 H   0  0  0  0  0  0  0  0  0  0  0  0
    0.6634    3.1679   -6.7537 H   0  0  0  0  0  0  0  0  0  0  0  0
    2.0883    2.5949   -5.8699 H   0  0  0  0  0  0  0  0  0  0  0  0
    1.0523    5.4723   -5.8583 H   0  0  0  0  0  0  0  0  0  0  0  0
    2.4665    4.8876   -6.7398 H   0  0  0  0  0  0  0  0  0  0  0  0
    2.4649    4.8880   -4.9725 H   0  0  0  0  0  0  0  0  0  0  0  0
   -1.5951    1.4358    7.8415 H   0  0  0  0  0  0  0  0  0  0  0  0
   -2.2731    3.0027    7.3605 H   0  0  0  0  0  0  0  0  0  0  0  0
    0.7091    2.3682    7.5960 H   0  0  0  0  0  0  0  0  0  0  0  0
   -0.2377    3.3305    8.7352 H   0  0  0  0  0  0  0  0  0  0  0  0
    0.0318    3.9189    7.0897 H   0  0  0  0  0  0  0  0  0  0  0  0
   -5.9370   -3.1704   -4.9358 H   0  0  0  0  0  0  0  0  0  0  0  0
   -4.3845   -2.2815   -4.8365 H   0  0  0  0  0  0  0  0  0  0  0  0
   -7.1511   -0.9790   -4.6926 H   0  0  0  0  0  0  0  0  0  0  0  0
   -6.0981   -0.9823   -6.1169 H   0  0  0  0  0  0  0  0  0  0  0  0
   -5.5922   -0.1377   -4.6493 H   0  0  0  0  0  0  0  0  0  0  0  0
  -10.6950   -8.3408    4.4324 H   0  0  0  0  0  0  0  0  0  0  0  0
   -5.9561   -3.0705    3.6734 H   0  0  0  0  0  0  0  0  0  0  0  0
   -6.7662   -5.4368    7.7162 H   0  0  0  0  0  0  0  0  0  0  0  0
  -11.8646   -7.1931    2.8122 H   0  0  0  0  0  0  0  0  0  0  0  0
  -12.2580   -9.9529    9.8655 H   0  0  0  0  0  0  0  0  0  0  0  0
   -5.3493   -0.9794    8.9994 H   0  0  0  0  0  0  0  0  0  0  0  0
   -6.5480   -0.1207    8.0185 H   0  0  0  0  0  0  0  0  0  0  0  0
   -3.7613   -0.9498    7.0675 H   0  0  0  0  0  0  0  0  0  0  0  0
   -4.2744    0.6881    7.4812 H   0  0  0  0  0  0  0  0  0  0  0  0
   -4.9737   -0.1286    6.0799 H   0  0  0  0  0  0  0  0  0  0  0  0
  -11.5779   -9.6353   -1.3747 H   0  0  0  0  0  0  0  0  0  0  0  0
   -9.8303   -9.9354   -1.3303 H   0  0  0  0  0  0  0  0  0  0  0  0
  -11.1597   -7.4229   -2.4567 H   0  0  0  0  0  0  0  0  0  0  0  0
  -10.4490   -8.7315   -3.4064 H   0  0  0  0  0  0  0  0  0  0  0  0
   -9.4192   -7.7158   -2.3892 H   0  0  0  0  0  0  0  0  0  0  0  0
  -11.2885   -7.4206   12.6611 H   0  0  0  0  0  0  0  0  0  0  0  0
  -10.5600   -6.2092   11.5605 H   0  0  0  0  0  0  0  0  0  0  0  0
   -9.1526   -8.7459   12.5372 H   0  0  0  0  0  0  0  0  0  0  0  0
   -8.8681   -7.1157   13.1683 H   0  0  0  0  0  0  0  0  0  0  0  0
   -8.4556   -7.4965   11.4926 H   0  0  0  0  0  0  0  0  0  0  0  0
  -17.0805  -16.9226    9.0168 H   0  0  0  0  0  0  0  0  0  0  0  0
  -13.3534  -11.8855    5.6026 H   0  0  0  0  0  0  0  0  0  0  0  0
  -16.5011  -14.7844    3.5294 H   0  0  0  0  0  0  0  0  0  0  0  0
  -15.1735  -17.0150   10.3561 H   0  0  0  0  0  0  0  0  0  0  0  0
  -19.4416  -21.2099    5.0909 H   0  0  0  0  0  0  0  0  0  0  0  0
  -19.4275  -21.3625    7.7094 H   0  0  0  0  0  0  0  0  0  0  0  0
  -13.1935  -13.6812    0.1542 H   0  0  0  0  0  0  0  0  0  0  0  0
  -11.7894  -14.1783    1.1120 H   0  0  0  0  0  0  0  0  0  0  0  0
  -13.0170  -11.3760    1.1095 H   0  0  0  0  0  0  0  0  0  0  0  0
  -11.5025  -11.8497    0.3359 H   0  0  0  0  0  0  0  0  0  0  0  0
  -11.6437  -11.8869    2.0960 H   0  0  0  0  0  0  0  0  0  0  0  0
  -16.2566  -15.0141   14.6451 H   0  0  0  0  0  0  0  0  0  0  0  0
  -17.1673  -13.6411   13.9949 H   0  0  0  0  0  0  0  0  0  0  0  0
  -14.1450  -13.6859   14.4592 H   0  0  0  0  0  0  0  0  0  0  0  0
  -15.3337  -12.8415   15.4563 H   0  0  0  0  0  0  0  0  0  0  0  0
  -15.0559  -12.3305   13.7865 H   0  0  0  0  0  0  0  0  0  0  0  0
  -18.6847  -21.6359   11.4268 H   0  0  0  0  0  0  0  0  0  0  0  0
  -18.9264  -19.8683   11.5880 H   0  0  0  0  0  0  0  0  0  0  0  0
  -16.2001  -21.2194   11.2615 H   0  0  0  0  0  0  0  0  0  0  0  0
  -16.8686  -20.6477   12.7989 H   0  0  0  0  0  0  0  0  0  0  0  0
  -16.4960  -19.4917   11.5201 H   0  0  0  0  0  0  0  0  0  0  0  0
  1  2  2  0  0  0  0
  2  3  1  0  0  0  0
  2 12  1  0  0  0  0
  3 14  1  0  0  0  0
  4  7  1  0  0  0  0
  4  3  2  0  0  0  0
  5  4  1  0  0  0  0
  6  5  2  0  0  0  0
  6  1  1  0  0  0  0
  7115  1  0  0  0  0
  8 15  1  0  0  0  0
  8  7  2  0  0  0  0
  9  5  1  0  0  0  0
  9  8  1  0  0  0  0
 10  1  1  0  0  0  0
 10 11  2  0  0  0  0
 11117  1  0  0  0  0
 11 12  1  0  0  0  0
 13  6  1  0  0  0  0
 14 20  2  0  0  0  0
 14 23  1  0  0  0  0
 15 24  1  0  0  0  0
 16118  1  0  0  0  0
 16 13  2  0  0  0  0
 17 16  1  0  0  0  0
 18 17  2  0  0  0  0
 18 19  1  0  0  0  0
 19 13  1  0  0  0  0
 20 21  1  0  0  0  0
 21 22  2  0  0  0  0
 21 31  1  0  0  0  0
 22 32  1  0  0  0  0
 23 22  1  0  0  0  0
 25 24  1  0  0  0  0
 25 49  1  0  0  0  0
 26 25  2  0  0  0  0
 27 26  1  0  0  0  0
 27 15  2  0  0  0  0
 28 17  1  0  0  0  0
 29 30  1  0  0  0  0
 29 18  1  0  0  0  0
 30125  1  0  0  0  0
 32127  1  0  0  0  0
 32 33  1  0  0  0  0
 32126  1  0  0  0  0
 33129  1  0  0  0  0
 34 27  1  0  0  0  0
 35 34  2  0  0  0  0
 36 34  1  0  0  0  0
 37 36  1  0  0  0  0
 38133  1  0  0  0  0
 38135  1  0  0  0  0
 38 37  1  0  0  0  0
 39 44  2  0  0  0  0
 40 41  2  0  0  0  0
 40 39  1  0  0  0  0
 41 42  1  0  0  0  0
 42 45  1  0  0  0  0
 42 43  2  0  0  0  0
 43 47  1  0  0  0  0
 44 43  1  0  0  0  0
 44 51  1  0  0  0  0
 45 46  2  0  0  0  0
 46 47  1  0  0  0  0
 46 53  1  0  0  0  0
 48137  1  0  0  0  0
 48 39  1  0  0  0  0
 49 48  2  0  0  0  0
 50 49  1  0  0  0  0
 50 40  1  0  0  0  0
 51 54  2  0  0  0  0
 52 58  2  0  0  0  0
 52 41  1  0  0  0  0
 53 65  2  0  0  0  0
 54138  1  0  0  0  0
 54 55  1  0  0  0  0
 55 66  1  0  0  0  0
 56 67  1  0  0  0  0
 56 55  2  0  0  0  0
 57 51  1  0  0  0  0
 57 56  1  0  0  0  0
 58139  1  0  0  0  0
 59 58  1  0  0  0  0
 60 61  1  0  0  0  0
 60 59  2  0  0  0  0
 61 52  1  0  0  0  0
 62 53  1  0  0  0  0
 62 63  1  0  0  0  0
 63 64  2  0  0  0  0
 64140  1  0  0  0  0
 65 64  1  0  0  0  0
 65 72  1  0  0  0  0
 67142  1  0  0  0  0
 67141  1  0  0  0  0
 68144  1  0  0  0  0
 68 67  1  0  0  0  0
 69 59  1  0  0  0  0
 70 60  1  0  0  0  0
 71148  1  0  0  0  0
 71150  1  0  0  0  0
 71 70  1  0  0  0  0
 72 74  1  0  0  0  0
 73 72  2  0  0  0  0
 74 75  1  0  0  0  0
 75 76  1  0  0  0  0
 75151  1  0  0  0  0
 76153  1  0  0  0  0
 76154  1  0  0  0  0
 77 78  2  0  0  0  0
 78 79  1  0  0  0  0
 78 88  1  0  0  0  0
 79 90  1  0  0  0  0
 80 83  1  0  0  0  0
 80 79  2  0  0  0  0
 81 80  1  0  0  0  0
 82 81  2  0  0  0  0
 82 77  1  0  0  0  0
 83156  1  0  0  0  0
 84 83  2  0  0  0  0
 85 81  1  0  0  0  0
 85 84  1  0  0  0  0
 86 77  1  0  0  0  0
 86 87  2  0  0  0  0
 87 63  1  0  0  0  0
 87 88  1  0  0  0  0
 89 82  1  0  0  0  0
 90 96  2  0  0  0  0
 90 99  1  0  0  0  0
 91 84  1  0  0  0  0
 91103  2  0  0  0  0
 92158  1  0  0  0  0
 92 89  2  0  0  0  0
 93 94  2  0  0  0  0
 93 92  1  0  0  0  0
 94 95  1  0  0  0  0
 95 89  1  0  0  0  0
 96 97  1  0  0  0  0
 97 98  2  0  0  0  0
 97107  1  0  0  0  0
 98108  1  0  0  0  0
 99 98  1  0  0  0  0
100101  1  0  0  0  0
100 91  1  0  0  0  0
101102  2  0  0  0  0
102161  1  0  0  0  0
102103  1  0  0  0  0
103110  1  0  0  0  0
104 93  1  0  0  0  0
105163  1  0  0  0  0
105106  1  0  0  0  0
105 94  1  0  0  0  0
106166  1  0  0  0  0
108168  1  0  0  0  0
108109  1  0  0  0  0
108167  1  0  0  0  0
109169  1  0  0  0  0
109170  1  0  0  0  0
110112  1  0  0  0  0
110111  2  0  0  0  0
112113  1  0  0  0  0
113172  1  0  0  0  0
113173  1  0  0  0  0
113114  1  0  0  0  0
114175  1  0  0  0  0
116 10  1  0  0  0  0
119 20  1  0  0  0  0
120 26  1  0  0  0  0
121 29  1  0  0  0  0
122 29  1  0  0  0  0
123 30  1  0  0  0  0
124 30  1  0  0  0  0
128 33  1  0  0  0  0
130 33  1  0  0  0  0
131 37  1  0  0  0  0
132 37  1  0  0  0  0
134 38  1  0  0  0  0
136 45  1  0  0  0  0
143 68  1  0  0  0  0
145 68  1  0  0  0  0
146 70  1  0  0  0  0
147 70  1  0  0  0  0
149 71  1  0  0  0  0
152 75  1  0  0  0  0
155 76  1  0  0  0  0
157 86  1  0  0  0  0
159 96  1  0  0  0  0
160101  1  0  0  0  0
162105  1  0  0  0  0
164106  1  0  0  0  0
165106  1  0  0  0  0
171109  1  0  0  0  0
174114  1  0  0  0  0
176114  1  0  0  0  0
M  END
