SCF done       -171.135196931403          0.000399904629
 OpenBabel12282109573D

 86 94  0  0  0  0  0  0  0  0999 V2000
    5.7360    3.9679    4.5909 C   0  0  0  0  0  0  0  0  0  0  0  0
    4.8699    4.9952    4.1880 C   0  0  0  0  0  0  0  0  0  0  0  0
    4.0238    4.6266    3.1677 C   0  0  0  0  0  0  0  0  0  0  0  0
    4.3141    2.9651    2.7155 S   0  0  0  0  0  0  0  0  0  0  0  0
    5.5561    2.8204    3.8796 C   0  0  0  0  0  0  0  0  0  0  0  0
    3.0168    5.4178    2.5080 C   0  0  0  0  0  0  0  0  0  0  0  0
    2.0217    4.8478    1.7258 C   0  0  0  0  0  0  0  0  0  0  0  0
    1.0202    5.5872    1.0972 C   0  0  0  0  0  0  0  0  0  0  0  0
    0.9308    6.9703    1.1897 C   0  0  0  0  0  0  0  0  0  0  0  0
    1.9521    7.5943    1.9659 C   0  0  0  0  0  0  0  0  0  0  0  0
    2.9710    6.8413    2.6079 C   0  0  0  0  0  0  0  0  0  0  0  0
    1.9267    8.9368    2.0728 N   0  0  0  0  0  0  0  0  0  0  0  0
    2.8623    9.5397    2.7691 C   0  0  0  0  0  0  0  0  0  0  0  0
    3.8924    8.7782    3.3942 C   0  0  0  0  0  0  0  0  0  0  0  0
    3.9299    7.4869    3.3070 N   0  0  0  0  0  0  0  0  0  0  0  0
    1.9707    3.5132    1.5532 F   0  0  0  0  0  0  0  0  0  0  0  0
    0.1248    4.8774    0.3886 F   0  0  0  0  0  0  0  0  0  0  0  0
    2.8971   10.8519    2.9128 O   0  0  0  0  0  0  0  0  0  0  0  0
    1.8874   11.6207    2.2576 C   0  0  0  0  0  0  0  0  0  0  0  0
    2.1506   13.0883    2.5331 C   0  0  0  0  0  0  0  0  0  0  0  0
   -1.1638    7.3116   -0.2085 C   0  0  0  0  0  0  0  0  0  0  0  0
   -1.9964    8.3381   -0.6429 C   0  0  0  0  0  0  0  0  0  0  0  0
   -1.5915    9.5872   -0.2202 C   0  0  0  0  0  0  0  0  0  0  0  0
   -0.1339    9.4683    0.7317 S   0  0  0  0  0  0  0  0  0  0  0  0
   -0.1034    7.7467    0.5651 C   0  0  0  0  0  0  0  0  0  0  0  0
   -2.2246   10.8513   -0.4786 C   0  0  0  0  0  0  0  0  0  0  0  0
   -1.5511   12.0594   -0.3555 C   0  0  0  0  0  0  0  0  0  0  0  0
   -2.1325   13.2955   -0.6291 C   0  0  0  0  0  0  0  0  0  0  0  0
   -3.4498   13.4348   -1.0475 C   0  0  0  0  0  0  0  0  0  0  0  0
   -4.1853   12.2172   -1.1531 C   0  0  0  0  0  0  0  0  0  0  0  0
   -3.5927   10.9574   -0.8752 C   0  0  0  0  0  0  0  0  0  0  0  0
   -5.4789   12.2955   -1.5209 N   0  0  0  0  0  0  0  0  0  0  0  0
   -6.1864   11.1926   -1.6049 C   0  0  0  0  0  0  0  0  0  0  0  0
   -5.5872    9.9330   -1.3091 C   0  0  0  0  0  0  0  0  0  0  0  0
   -4.3440    9.8383   -0.9602 N   0  0  0  0  0  0  0  0  0  0  0  0
   -0.2544   12.0838    0.0154 F   0  0  0  0  0  0  0  0  0  0  0  0
   -1.3321   14.3673   -0.4752 F   0  0  0  0  0  0  0  0  0  0  0  0
   -7.4623   11.2003   -1.9442 O   0  0  0  0  0  0  0  0  0  0  0  0
   -8.0787   12.4640   -2.1968 C   0  0  0  0  0  0  0  0  0  0  0  0
   -9.5578   12.2334   -2.4397 C   0  0  0  0  0  0  0  0  0  0  0  0
   -3.5146   15.9638   -1.2990 C   0  0  0  0  0  0  0  0  0  0  0  0
   -4.3759   16.9653   -1.7411 C   0  0  0  0  0  0  0  0  0  0  0  0
   -5.5988   16.4869   -2.1562 C   0  0  0  0  0  0  0  0  0  0  0  0
   -5.6797   14.7560   -1.9706 S   0  0  0  0  0  0  0  0  0  0  0  0
   -4.0569   14.6949   -1.3732 C   0  0  0  0  0  0  0  0  0  0  0  0
   -6.7025   17.2398   -2.6977 C   0  0  0  0  0  0  0  0  0  0  0  0
   -8.0086   16.7772   -2.6371 C   0  0  0  0  0  0  0  0  0  0  0  0
   -9.0860   17.5009   -3.1641 C   0  0  0  0  0  0  0  0  0  0  0  0
   -8.9102   18.7113   -3.7754 C   0  0  0  0  0  0  0  0  0  0  0  0
   -7.6063   19.2233   -3.8736 C   0  0  0  0  0  0  0  0  0  0  0  0
   -6.5039   18.4975   -3.3455 C   0  0  0  0  0  0  0  0  0  0  0  0
   -7.4256   20.4148   -4.4859 N   0  0  0  0  0  0  0  0  0  0  0  0
   -6.2015   20.8709   -4.5889 C   0  0  0  0  0  0  0  0  0  0  0  0
   -5.0928   20.1280   -4.0862 C   0  0  0  0  0  0  0  0  0  0  0  0
   -5.2529   18.9881   -3.4897 N   0  0  0  0  0  0  0  0  0  0  0  0
   -8.2938   15.6048   -2.0349 F   0  0  0  0  0  0  0  0  0  0  0  0
  -10.3183   16.9764   -3.0541 F   0  0  0  0  0  0  0  0  0  0  0  0
   -5.9596   22.0354   -5.1781 O   0  0  0  0  0  0  0  0  0  0  0  0
   -7.0923   22.7399   -5.6853 C   0  0  0  0  0  0  0  0  0  0  0  0
   -6.5998   24.0158   -6.3424 C   0  0  0  0  0  0  0  0  0  0  0  0
    6.4629    4.0752    5.3758 H   0  0  0  0  0  0  0  0  0  0  0  0
    4.8550    5.9749    4.6238 H   0  0  0  0  0  0  0  0  0  0  0  0
    6.0800    1.8900    3.9770 H   0  0  0  0  0  0  0  0  0  0  0  0
    4.6741    9.2714    3.9532 H   0  0  0  0  0  0  0  0  0  0  0  0
    0.9060   11.3152    2.6333 H   0  0  0  0  0  0  0  0  0  0  0  0
    1.9170   11.4090    1.1854 H   0  0  0  0  0  0  0  0  0  0  0  0
    2.0949   13.2912    3.5990 H   0  0  0  0  0  0  0  0  0  0  0  0
    1.4066   13.6849    2.0148 H   0  0  0  0  0  0  0  0  0  0  0  0
    3.1386   13.3656    2.1768 H   0  0  0  0  0  0  0  0  0  0  0  0
   -1.3421    6.2834   -0.4583 H   0  0  0  0  0  0  0  0  0  0  0  0
   -2.8655    8.1818   -1.2521 H   0  0  0  0  0  0  0  0  0  0  0  0
   -6.1697    9.0249   -1.3620 H   0  0  0  0  0  0  0  0  0  0  0  0
   -7.6003   12.9259   -3.0662 H   0  0  0  0  0  0  0  0  0  0  0  0
   -7.9173   13.1197   -1.3366 H   0  0  0  0  0  0  0  0  0  0  0  0
   -9.7062   11.6018   -3.3114 H   0  0  0  0  0  0  0  0  0  0  0  0
  -10.0440   13.1900   -2.6027 H   0  0  0  0  0  0  0  0  0  0  0  0
  -10.0080   11.7488   -1.5777 H   0  0  0  0  0  0  0  0  0  0  0  0
   -2.5256   16.1730   -0.9387 H   0  0  0  0  0  0  0  0  0  0  0  0
   -4.1201   18.0074   -1.7551 H   0  0  0  0  0  0  0  0  0  0  0  0
   -9.7411   19.2664   -4.1760 H   0  0  0  0  0  0  0  0  0  0  0  0
   -4.0857   20.5017   -4.2004 H   0  0  0  0  0  0  0  0  0  0  0  0
   -7.7770   22.9538   -4.8569 H   0  0  0  0  0  0  0  0  0  0  0  0
   -7.6175   22.0973   -6.4008 H   0  0  0  0  0  0  0  0  0  0  0  0
   -6.0764   24.6328   -5.6174 H   0  0  0  0  0  0  0  0  0  0  0  0
   -7.4442   24.5717   -6.7391 H   0  0  0  0  0  0  0  0  0  0  0  0
   -5.9168   23.7793   -7.1536 H   0  0  0  0  0  0  0  0  0  0  0  0
  1 61  1  0  0  0  0
  2  1  1  0  0  0  0
  2 62  1  0  0  0  0
  3  2  2  0  0  0  0
  4  3  1  0  0  0  0
  4  5  1  0  0  0  0
  5 63  1  0  0  0  0
  5  1  2  0  0  0  0
  6 11  1  0  0  0  0
  6  3  1  0  0  0  0
  7  6  2  0  0  0  0
  8  9  2  0  0  0  0
  8  7  1  0  0  0  0
  9 10  1  0  0  0  0
 10 12  1  0  0  0  0
 10 11  2  0  0  0  0
 11 15  1  0  0  0  0
 12 13  2  0  0  0  0
 13 18  1  0  0  0  0
 13 14  1  0  0  0  0
 14 64  1  0  0  0  0
 15 14  2  0  0  0  0
 16  7  1  0  0  0  0
 17  8  1  0  0  0  0
 19 20  1  0  0  0  0
 19 65  1  0  0  0  0
 19 18  1  0  0  0  0
 20 67  1  0  0  0  0
 21 25  2  0  0  0  0
 22 23  2  0  0  0  0
 22 21  1  0  0  0  0
 23 24  1  0  0  0  0
 25 24  1  0  0  0  0
 25  9  1  0  0  0  0
 26 27  1  0  0  0  0
 26 23  1  0  0  0  0
 27 36  1  0  0  0  0
 28 37  1  0  0  0  0
 28 27  2  0  0  0  0
 29 28  1  0  0  0  0
 30 29  2  0  0  0  0
 30 31  1  0  0  0  0
 31 26  2  0  0  0  0
 32 30  1  0  0  0  0
 33 32  2  0  0  0  0
 33 34  1  0  0  0  0
 34 35  2  0  0  0  0
 35 31  1  0  0  0  0
 38 33  1  0  0  0  0
 39 38  1  0  0  0  0
 39 74  1  0  0  0  0
 40 39  1  0  0  0  0
 40 77  1  0  0  0  0
 41 78  1  0  0  0  0
 42 41  1  0  0  0  0
 43 44  1  0  0  0  0
 43 42  2  0  0  0  0
 44 45  1  0  0  0  0
 45 41  2  0  0  0  0
 45 29  1  0  0  0  0
 46 47  1  0  0  0  0
 46 43  1  0  0  0  0
 47 56  1  0  0  0  0
 48 57  1  0  0  0  0
 48 47  2  0  0  0  0
 49 48  1  0  0  0  0
 50 49  2  0  0  0  0
 50 51  1  0  0  0  0
 51 46  2  0  0  0  0
 52 50  1  0  0  0  0
 53 52  2  0  0  0  0
 53 54  1  0  0  0  0
 54 55  2  0  0  0  0
 55 51  1  0  0  0  0
 58 53  1  0  0  0  0
 59 58  1  0  0  0  0
 59 82  1  0  0  0  0
 60 59  1  0  0  0  0
 60 84  1  0  0  0  0
 66 19  1  0  0  0  0
 68 20  1  0  0  0  0
 69 20  1  0  0  0  0
 70 21  1  0  0  0  0
 71 22  1  0  0  0  0
 72 34  1  0  0  0  0
 73 39  1  0  0  0  0
 75 40  1  0  0  0  0
 76 40  1  0  0  0  0
 79 42  1  0  0  0  0
 80 49  1  0  0  0  0
 81 54  1  0  0  0  0
 83 59  1  0  0  0  0
 85 60  1  0  0  0  0
 86 60  1  0  0  0  0
M  END
