SCF done       -145.791778698750          0.000311543568
 OpenBabel12282109573D

 86 94  0  0  0  0  0  0  0  0999 V2000
   -5.9301    1.4082   -4.5979 C   0  0  0  0  0  0  0  0  0  0  0  0
   -4.9984    2.0083   -3.7318 C   0  0  0  0  0  0  0  0  0  0  0  0
   -5.1449    3.3679   -3.6262 C   0  0  0  0  0  0  0  0  0  0  0  0
   -6.4721    3.9067   -4.6315 S   0  0  0  0  0  0  0  0  0  0  0  0
   -6.7873    2.3050   -5.1534 C   0  0  0  0  0  0  0  0  0  0  0  0
   -4.3902    4.3283   -2.8604 C   0  0  0  0  0  0  0  0  0  0  0  0
   -4.6224    5.6870   -3.0186 C   0  0  0  0  0  0  0  0  0  0  0  0
   -3.9016    6.6467   -2.3275 C   0  0  0  0  0  0  0  0  0  0  0  0
   -2.8947    6.3155   -1.4329 C   0  0  0  0  0  0  0  0  0  0  0  0
   -2.6522    4.9310   -1.2068 C   0  0  0  0  0  0  0  0  0  0  0  0
   -3.3924    3.9447   -1.9177 C   0  0  0  0  0  0  0  0  0  0  0  0
   -1.7380    4.5579   -0.2849 N   0  0  0  0  0  0  0  0  0  0  0  0
   -1.5488    3.2817   -0.0674 C   0  0  0  0  0  0  0  0  0  0  0  0
   -2.2697    2.2979   -0.7973 C   0  0  0  0  0  0  0  0  0  0  0  0
   -3.1552    2.6344   -1.6821 N   0  0  0  0  0  0  0  0  0  0  0  0
   -0.6791    2.8675    0.8544 O   0  0  0  0  0  0  0  0  0  0  0  0
    0.0126    3.8761    1.5854 C   0  0  0  0  0  0  0  0  0  0  0  0
    0.7475    3.2093    2.7339 C   0  0  0  0  0  0  0  0  0  0  0  0
   -0.9091    7.2777   -0.1602 C   0  0  0  0  0  0  0  0  0  0  0  0
   -0.4638    8.4970    0.3564 C   0  0  0  0  0  0  0  0  0  0  0  0
   -1.3465    9.5345    0.1680 C   0  0  0  0  0  0  0  0  0  0  0  0
   -2.7621    8.9700   -0.6805 S   0  0  0  0  0  0  0  0  0  0  0  0
   -2.1408    7.3457   -0.7663 C   0  0  0  0  0  0  0  0  0  0  0  0
   -1.2515   10.9125    0.5697 C   0  0  0  0  0  0  0  0  0  0  0  0
   -2.3767   11.7251    0.5643 C   0  0  0  0  0  0  0  0  0  0  0  0
   -2.3311   13.0464    0.9725 C   0  0  0  0  0  0  0  0  0  0  0  0
   -1.1603   13.6543    1.4060 C   0  0  0  0  0  0  0  0  0  0  0  0
    0.0283   12.8690    1.3822 C   0  0  0  0  0  0  0  0  0  0  0  0
   -0.0209   11.5059    0.9750 C   0  0  0  0  0  0  0  0  0  0  0  0
    1.2111   13.4292    1.7197 N   0  0  0  0  0  0  0  0  0  0  0  0
    2.2935   12.6959    1.6629 C   0  0  0  0  0  0  0  0  0  0  0  0
    2.2375   11.3300    1.2743 C   0  0  0  0  0  0  0  0  0  0  0  0
    1.1147   10.7730    0.9438 N   0  0  0  0  0  0  0  0  0  0  0  0
    3.4870   13.2120    1.9585 O   0  0  0  0  0  0  0  0  0  0  0  0
    3.5242   14.5891    2.3212 C   0  0  0  0  0  0  0  0  0  0  0  0
    4.9778   15.0190    2.3974 C   0  0  0  0  0  0  0  0  0  0  0  0
   -0.2276   15.7463    2.5291 C   0  0  0  0  0  0  0  0  0  0  0  0
   -0.6028   17.0649    2.8016 C   0  0  0  0  0  0  0  0  0  0  0  0
   -1.8538   17.3929    2.3374 C   0  0  0  0  0  0  0  0  0  0  0  0
   -2.5778   16.0184    1.5463 S   0  0  0  0  0  0  0  0  0  0  0  0
   -1.1772   15.0252    1.8453 C   0  0  0  0  0  0  0  0  0  0  0  0
   -2.5829   18.6325    2.4411 C   0  0  0  0  0  0  0  0  0  0  0  0
   -3.9342   18.6741    2.1341 C   0  0  0  0  0  0  0  0  0  0  0  0
   -4.6834   19.8454    2.2317 C   0  0  0  0  0  0  0  0  0  0  0  0
   -4.1030   21.0180    2.6396 C   0  0  0  0  0  0  0  0  0  0  0  0
   -2.7341   21.0340    2.9521 C   0  0  0  0  0  0  0  0  0  0  0  0
   -1.9589   19.8460    2.8546 C   0  0  0  0  0  0  0  0  0  0  0  0
   -2.1705   22.2021    3.3432 N   0  0  0  0  0  0  0  0  0  0  0  0
   -0.8917   22.2002    3.6166 C   0  0  0  0  0  0  0  0  0  0  0  0
   -0.1110   21.0142    3.5027 C   0  0  0  0  0  0  0  0  0  0  0  0
   -0.6362   19.8863    3.1360 N   0  0  0  0  0  0  0  0  0  0  0  0
   -0.2773   23.3174    4.0065 O   0  0  0  0  0  0  0  0  0  0  0  0
   -1.0909   24.4833    4.1016 C   0  0  0  0  0  0  0  0  0  0  0  0
   -0.2102   25.6409    4.5347 C   0  0  0  0  0  0  0  0  0  0  0  0
   -5.9618    0.3522   -4.7999 H   0  0  0  0  0  0  0  0  0  0  0  0
   -4.2402    1.4704   -3.1962 H   0  0  0  0  0  0  0  0  0  0  0  0
   -7.5895    2.1261   -5.8419 H   0  0  0  0  0  0  0  0  0  0  0  0
   -5.3827    6.0099   -3.7148 H   0  0  0  0  0  0  0  0  0  0  0  0
   -4.1181    7.6907   -2.5029 H   0  0  0  0  0  0  0  0  0  0  0  0
   -2.0998    1.2451   -0.6227 H   0  0  0  0  0  0  0  0  0  0  0  0
   -0.7097    4.6167    1.9470 H   0  0  0  0  0  0  0  0  0  0  0  0
    0.7158    4.3824    0.9132 H   0  0  0  0  0  0  0  0  0  0  0  0
    0.0406    2.7073    3.3888 H   0  0  0  0  0  0  0  0  0  0  0  0
    1.2910    3.9575    3.3034 H   0  0  0  0  0  0  0  0  0  0  0  0
    1.4489    2.4727    2.3515 H   0  0  0  0  0  0  0  0  0  0  0  0
   -0.3479    6.3650   -0.1103 H   0  0  0  0  0  0  0  0  0  0  0  0
    0.4767    8.6313    0.8560 H   0  0  0  0  0  0  0  0  0  0  0  0
   -3.3210   11.3071    0.2473 H   0  0  0  0  0  0  0  0  0  0  0  0
   -3.2434   13.6254    0.9658 H   0  0  0  0  0  0  0  0  0  0  0  0
    3.1346   10.7287    1.2374 H   0  0  0  0  0  0  0  0  0  0  0  0
    3.0282   14.7142    3.2915 H   0  0  0  0  0  0  0  0  0  0  0  0
    2.9733   15.1722    1.5743 H   0  0  0  0  0  0  0  0  0  0  0  0
    5.5083   14.4153    3.1288 H   0  0  0  0  0  0  0  0  0  0  0  0
    5.0351   16.0638    2.6883 H   0  0  0  0  0  0  0  0  0  0  0  0
    5.4568   14.8920    1.4304 H   0  0  0  0  0  0  0  0  0  0  0  0
    0.7080   15.3162    2.8277 H   0  0  0  0  0  0  0  0  0  0  0  0
    0.0142   17.7701    3.3255 H   0  0  0  0  0  0  0  0  0  0  0  0
   -4.4226   17.7646    1.8153 H   0  0  0  0  0  0  0  0  0  0  0  0
   -5.7344   19.8180    1.9846 H   0  0  0  0  0  0  0  0  0  0  0  0
   -4.6614   21.9361    2.7284 H   0  0  0  0  0  0  0  0  0  0  0  0
    0.9476   21.0336    3.7194 H   0  0  0  0  0  0  0  0  0  0  0  0
   -1.8937   24.2991    4.8247 H   0  0  0  0  0  0  0  0  0  0  0  0
   -1.5532   24.6752    3.1265 H   0  0  0  0  0  0  0  0  0  0  0  0
    0.2448   25.4248    5.4976 H   0  0  0  0  0  0  0  0  0  0  0  0
   -0.8074   26.5443    4.6177 H   0  0  0  0  0  0  0  0  0  0  0  0
    0.5803   25.8020    3.8067 H   0  0  0  0  0  0  0  0  0  0  0  0
  1  2  1  0  0  0  0
  2  3  2  0  0  0  0
  2 56  1  0  0  0  0
  3  6  1  0  0  0  0
  4  3  1  0  0  0  0
  5  4  1  0  0  0  0
  5  1  2  0  0  0  0
  6 11  1  0  0  0  0
  7  6  2  0  0  0  0
  7  8  1  0  0  0  0
  8  9  2  0  0  0  0
  9 10  1  0  0  0  0
  9 23  1  0  0  0  0
 10 12  1  0  0  0  0
 11 15  1  0  0  0  0
 11 10  2  0  0  0  0
 12 13  2  0  0  0  0
 13 16  1  0  0  0  0
 14 60  1  0  0  0  0
 14 13  1  0  0  0  0
 15 14  2  0  0  0  0
 16 17  1  0  0  0  0
 17 61  1  0  0  0  0
 17 18  1  0  0  0  0
 18 64  1  0  0  0  0
 18 63  1  0  0  0  0
 19 66  1  0  0  0  0
 19 20  1  0  0  0  0
 20 67  1  0  0  0  0
 21 20  2  0  0  0  0
 21 24  1  0  0  0  0
 22 21  1  0  0  0  0
 23 22  1  0  0  0  0
 23 19  2  0  0  0  0
 24 29  1  0  0  0  0
 25 24  2  0  0  0  0
 25 26  1  0  0  0  0
 26 27  2  0  0  0  0
 27 41  1  0  0  0  0
 28 27  1  0  0  0  0
 28 30  1  0  0  0  0
 29 28  2  0  0  0  0
 31 30  2  0  0  0  0
 31 34  1  0  0  0  0
 32 31  1  0  0  0  0
 33 29  1  0  0  0  0
 33 32  2  0  0  0  0
 34 35  1  0  0  0  0
 35 36  1  0  0  0  0
 35 71  1  0  0  0  0
 36 74  1  0  0  0  0
 36 73  1  0  0  0  0
 37 38  1  0  0  0  0
 37 76  1  0  0  0  0
 38 77  1  0  0  0  0
 39 42  1  0  0  0  0
 39 38  2  0  0  0  0
 40 41  1  0  0  0  0
 40 39  1  0  0  0  0
 41 37  2  0  0  0  0
 42 47  2  0  0  0  0
 43 44  2  0  0  0  0
 43 42  1  0  0  0  0
 44 45  1  0  0  0  0
 45 80  1  0  0  0  0
 45 46  2  0  0  0  0
 46 48  1  0  0  0  0
 47 46  1  0  0  0  0
 47 51  1  0  0  0  0
 48 49  2  0  0  0  0
 49 52  1  0  0  0  0
 50 49  1  0  0  0  0
 50 81  1  0  0  0  0
 51 50  2  0  0  0  0
 52 53  1  0  0  0  0
 53 54  1  0  0  0  0
 53 82  1  0  0  0  0
 54 85  1  0  0  0  0
 54 84  1  0  0  0  0
 55  1  1  0  0  0  0
 57  5  1  0  0  0  0
 58  7  1  0  0  0  0
 59  8  1  0  0  0  0
 62 17  1  0  0  0  0
 65 18  1  0  0  0  0
 68 25  1  0  0  0  0
 69 26  1  0  0  0  0
 70 32  1  0  0  0  0
 72 35  1  0  0  0  0
 75 36  1  0  0  0  0
 78 43  1  0  0  0  0
 79 44  1  0  0  0  0
 83 53  1  0  0  0  0
 86 54  1  0  0  0  0
M  END
