SCF done       -518.220090016378          0.000646348881
 OpenBabel12282109573D

308343  0  0  1  0  0  0  0  0999 V2000
   -0.6239  -12.5550   -9.3766 C   0  0  0  0  0  0  0  0  0  0  0  0
    0.3867  -13.0645   -8.5487 C   0  0  0  0  0  0  0  0  0  0  0  0
    0.6520  -12.4485   -7.3011 C   0  0  1  0  0  0  0  0  0  0  0  0
   -0.0599  -11.3557   -6.8251 C   0  0  0  0  0  0  0  0  0  0  0  0
   -1.0698  -10.8450   -7.6535 C   0  0  0  0  0  0  0  0  0  0  0  0
   -1.3299  -11.4560   -8.9051 C   0  0  0  0  0  0  0  0  0  0  0  0
    1.2189  -14.2054   -8.7142 C   0  0  0  0  0  0  0  0  0  0  0  0
    2.0810  -14.4344   -7.6545 C   0  0  0  0  0  0  0  0  0  0  0  0
    1.9251  -13.2463   -6.3965 S   0  0  0  0  0  0  0  0  0  0  0  0
   -1.9043   -9.7105   -7.4807 C   0  0  0  0  0  0  0  0  0  0  0  0
   -2.7604   -9.4689   -8.5479 C   0  0  0  0  0  0  0  0  0  0  0  0
   -2.5940  -10.6479   -9.8140 S   0  0  0  0  0  0  0  0  0  0  0  0
   -0.9374  -13.1137  -10.6815 C   0  0  0  0  0  0  0  0  0  0  0  0
    0.2342  -10.7990   -5.5149 C   0  0  0  0  0  0  0  0  0  0  0  0
   -2.1551  -13.5090  -11.1458 C   0  0  0  0  0  0  0  0  0  0  0  0
   -2.1369  -13.9617  -12.4875 C   0  0  0  0  0  0  0  0  0  0  0  0
   -0.8967  -13.8720  -13.0486 C   0  0  0  0  0  0  0  0  0  0  0  0
    0.2694  -13.2528  -11.9227 S   0  0  0  0  0  0  0  0  0  0  0  0
    1.4316  -10.3614   -5.0381 C   0  0  0  0  0  0  0  0  0  0  0  0
    1.3804   -9.9005   -3.6994 C   0  0  0  0  0  0  0  0  0  0  0  0
    0.1368  -10.0279   -3.1538 C   0  0  0  0  0  0  0  0  0  0  0  0
   -0.9917  -10.6992   -4.2887 S   0  0  0  0  0  0  0  0  0  0  0  0
   -0.4396  -14.2859  -14.4064 C   0  0  0  0  0  0  0  0  0  0  0  0
    0.1184  -15.7111  -14.3789 C   0  0  0  0  0  0  0  0  0  0  0  0
   -0.3589   -9.6182   -1.8082 C   0  0  0  0  0  0  0  0  0  0  0  0
   -1.1127   -8.2887   -1.8919 C   0  0  0  0  0  0  0  0  0  0  0  0
   -3.9961   -6.5565   -6.6847 C   0  0  0  0  0  0  0  0  0  0  0  0
   -5.2079   -5.7430   -7.6179 S   0  0  0  0  0  0  0  0  0  0  0  0
   -5.5310   -4.6350   -6.3112 C   0  0  0  0  0  0  0  0  0  0  0  0
   -4.6832   -4.8921   -5.2439 C   0  0  0  0  0  0  0  0  0  0  0  0
   -3.8186   -5.9577   -5.4525 C   0  0  0  0  0  0  0  0  0  0  0  0
   -6.5930   -3.6779   -6.3151 C   0  0  0  0  0  0  0  0  0  0  0  0
   -6.9569   -3.0020   -5.1079 C   0  0  0  0  0  0  0  0  0  0  0  0
   -8.1120   -2.1692   -4.9967 C   0  0  0  0  0  0  0  0  0  0  0  0
   -9.0006   -1.9106   -6.0876 C   0  0  0  0  0  0  0  0  0  0  0  0
   -8.5432   -2.4659   -7.2791 C   0  0  0  0  0  0  0  0  0  0  0  0
   -7.4109   -3.3238   -7.3829 C   0  0  0  0  0  0  0  0  0  0  0  0
   -9.0945   -2.3077   -8.6314 C   0  0  0  0  0  0  0  0  0  0  0  0
   -8.3001   -3.0622   -9.4695 N   0  0  0  0  0  0  0  0  0  0  0  0
   -7.2910   -3.7177   -8.7944 C   0  0  0  0  0  0  0  0  0  0  0  0
   -8.5307   -3.1909  -10.8911 C   0  0  0  0  0  0  0  0  0  0  0  0
   -9.4833   -4.3428  -11.1913 C   0  0  0  0  0  0  0  0  0  0  0  0
   -6.4896   -4.4441   -9.3425 O   0  0  0  0  0  0  0  0  0  0  0  0
  -10.0274   -1.6396   -9.0252 O   0  0  0  0  0  0  0  0  0  0  0  0
   -6.3642   -3.0122   -3.9086 N   0  0  0  0  0  0  0  0  0  0  0  0
   -7.1059   -2.2438   -3.1626 N   0  0  0  0  0  0  0  0  0  0  0  0
   -8.1522   -1.7214   -3.7365 N   0  0  0  0  0  0  0  0  0  0  0  0
   -6.8152   -2.0263   -1.7745 C   0  0  0  0  0  0  0  0  0  0  0  0
   -7.4603   -3.1129   -0.9194 C   0  0  0  0  0  0  0  0  0  0  0  0
  -10.2390   -1.2335   -5.8640 C   0  0  0  0  0  0  0  0  0  0  0  0
  -11.4390   -0.9440   -7.0960 S   0  0  0  0  0  0  0  0  0  0  0  0
  -12.5683   -0.3605   -5.9172 C   0  0  0  0  0  0  0  0  0  0  0  0
  -12.0215   -0.3533   -4.6495 C   0  0  0  0  0  0  0  0  0  0  0  0
  -10.7196   -0.8346   -4.6249 C   0  0  0  0  0  0  0  0  0  0  0  0
   -2.0878   -8.5044   -6.2604 S   0  0  0  0  0  0  0  0  0  0  0  0
   -3.3316   -7.7018   -7.1996 C   0  0  0  0  0  0  0  0  0  0  0  0
   -3.5713   -8.3409   -8.3941 C   0  0  0  0  0  0  0  0  0  0  0  0
    1.3813  -15.4412   -9.9094 S   0  0  0  0  0  0  0  0  0  0  0  0
    2.6016  -16.2225   -8.9681 C   0  0  0  0  0  0  0  0  0  0  0  0
    2.8797  -15.5846   -7.8019 C   0  0  0  0  0  0  0  0  0  0  0  0
    2.5970   -9.3980   -2.9838 C   0  0  0  0  0  0  0  0  0  0  0  0
    3.3692  -10.5615   -2.3597 C   0  0  0  0  0  0  0  0  0  0  0  0
   -3.3791  -14.4166  -13.1906 C   0  0  0  0  0  0  0  0  0  0  0  0
   -4.1592  -13.2165  -13.7297 C   0  0  0  0  0  0  0  0  0  0  0  0
  -18.6991    0.3254   -5.2588 C   0  0  0  0  0  0  0  0  0  0  0  0
  -17.7855    0.2954   -6.3243 C   0  0  0  0  0  0  0  0  0  0  0  0
  -18.2602    0.3249   -7.6609 C   0  0  2  0  0  0  0  0  0  0  0  0
  -19.6085    0.3677   -7.9878 C   0  0  0  0  0  0  0  0  0  0  0  0
  -20.5197    0.3285   -6.9206 C   0  0  0  0  0  0  0  0  0  0  0  0
  -20.0476    0.3348   -5.5858 C   0  0  0  0  0  0  0  0  0  0  0  0
  -16.3685    0.2227   -6.3128 C   0  0  0  0  0  0  0  0  0  0  0  0
  -15.7936    0.1770   -7.5774 C   0  0  0  0  0  0  0  0  0  0  0  0
  -16.9717    0.2742   -8.8493 S   0  0  0  0  0  0  0  0  0  0  0  0
  -21.9228    0.1284   -6.9415 C   0  0  0  0  0  0  0  0  0  0  0  0
  -22.4980   -0.0048   -5.6835 C   0  0  0  0  0  0  0  0  0  0  0  0
  -21.3379    0.1998   -4.4026 S   0  0  0  0  0  0  0  0  0  0  0  0
  -18.2977    0.2859   -3.8610 C   0  0  0  0  0  0  0  0  0  0  0  0
  -20.0455    0.4378   -9.3699 C   0  0  0  0  0  0  0  0  0  0  0  0
  -18.6269    1.1677   -2.8779 C   0  0  0  0  0  0  0  0  0  0  0  0
  -18.1181    0.8193   -1.6022 C   0  0  0  0  0  0  0  0  0  0  0  0
  -17.4321   -0.3593   -1.6221 C   0  0  0  0  0  0  0  0  0  0  0  0
  -17.3864   -1.0442   -3.2164 S   0  0  0  0  0  0  0  0  0  0  0  0
  -19.6504   -0.3263  -10.4262 C   0  0  0  0  0  0  0  0  0  0  0  0
  -20.2631    0.0311  -11.6517 C   0  0  0  0  0  0  0  0  0  0  0  0
  -21.1041    1.0977  -11.5213 C   0  0  0  0  0  0  0  0  0  0  0  0
  -21.1682    1.6617   -9.8821 S   0  0  0  0  0  0  0  0  0  0  0  0
  -16.7013   -1.0541   -0.5233 C   0  0  0  0  0  0  0  0  0  0  0  0
  -15.1991   -0.7733   -0.6096 C   0  0  0  0  0  0  0  0  0  0  0  0
  -21.9805    1.7456  -12.5391 C   0  0  0  0  0  0  0  0  0  0  0  0
  -23.3985    1.1727  -12.4711 C   0  0  0  0  0  0  0  0  0  0  0  0
  -25.5390   -1.1219   -7.4091 C   0  0  0  0  0  0  0  0  0  0  0  0
  -26.6541   -1.8026   -6.2684 S   0  0  0  0  0  0  0  0  0  0  0  0
  -27.6200   -2.4714   -7.5551 C   0  0  0  0  0  0  0  0  0  0  0  0
  -27.1198   -2.0828   -8.7880 C   0  0  0  0  0  0  0  0  0  0  0  0
  -25.9612   -1.3229   -8.7095 C   0  0  0  0  0  0  0  0  0  0  0  0
  -28.6413   -3.4516   -7.3560 C   0  0  0  0  0  0  0  0  0  0  0  0
  -29.0519   -4.2769   -8.4466 C   0  0  0  0  0  0  0  0  0  0  0  0
  -29.8348   -5.4479   -8.2450 C   0  0  0  0  0  0  0  0  0  0  0  0
  -30.3201   -5.8857   -6.9791 C   0  0  0  0  0  0  0  0  0  0  0  0
  -30.0699   -4.9642   -5.9661 C   0  0  0  0  0  0  0  0  0  0  0  0
  -29.2401   -3.8202   -6.1552 C   0  0  0  0  0  0  0  0  0  0  0  0
  -30.5037   -4.9549   -4.5537 C   0  0  0  0  0  0  0  0  0  0  0  0
  -29.9072   -3.8501   -3.9744 N   0  0  0  0  0  0  0  0  0  0  0  0
  -29.1323   -3.1326   -4.8608 C   0  0  0  0  0  0  0  0  0  0  0  0
  -30.1132   -3.4580   -2.5981 C   0  0  0  0  0  0  0  0  0  0  0  0
  -31.2737   -2.4776   -2.4706 C   0  0  0  0  0  0  0  0  0  0  0  0
  -28.5154   -2.1341   -4.5570 O   0  0  0  0  0  0  0  0  0  0  0  0
  -31.2415   -5.6961   -3.9443 O   0  0  0  0  0  0  0  0  0  0  0  0
  -28.7840   -4.2089   -9.7572 N   0  0  0  0  0  0  0  0  0  0  0  0
  -29.3742   -5.2514  -10.2724 N   0  0  0  0  0  0  0  0  0  0  0  0
  -30.0054   -6.0256   -9.4371 N   0  0  0  0  0  0  0  0  0  0  0  0
  -29.3010   -5.5577  -11.6721 C   0  0  0  0  0  0  0  0  0  0  0  0
  -28.3934   -6.7621  -11.8988 C   0  0  0  0  0  0  0  0  0  0  0  0
  -30.8622   -7.2069   -6.8879 C   0  0  0  0  0  0  0  0  0  0  0  0
  -30.5566   -8.3087   -8.2120 S   0  0  0  0  0  0  0  0  0  0  0  0
  -31.2377   -9.6355   -7.3252 C   0  0  0  0  0  0  0  0  0  0  0  0
  -31.7281   -9.2149   -6.1065 C   0  0  0  0  0  0  0  0  0  0  0  0
  -31.5134   -7.8602   -5.8620 C   0  0  0  0  0  0  0  0  0  0  0  0
  -23.0724   -0.1984   -8.1846 S   0  0  0  0  0  0  0  0  0  0  0  0
  -24.3032   -0.5620   -6.9878 C   0  0  0  0  0  0  0  0  0  0  0  0
  -23.8436   -0.3848   -5.7029 C   0  0  0  0  0  0  0  0  0  0  0  0
  -15.1568    0.1211   -5.0873 S   0  0  0  0  0  0  0  0  0  0  0  0
  -13.9025   -0.0552   -6.3000 C   0  0  2  0  0  0  0  0  0  0  0  0
  -14.4066    0.0092   -7.5782 C   0  0  0  0  0  0  0  0  0  0  0  0
  -19.9446   -0.6736  -12.9349 C   0  0  0  0  0  0  0  0  0  0  0  0
  -18.6624   -0.1116  -13.5509 C   0  0  0  0  0  0  0  0  0  0  0  0
  -18.3839    1.6508   -0.3845 C   0  0  0  0  0  0  0  0  0  0  0  0
  -19.7292    1.2750    0.2384 C   0  0  0  0  0  0  0  0  0  0  0  0
  -31.5111  -15.8354   -7.2880 C   0  0  0  0  0  0  0  0  0  0  0  0
  -31.0445  -14.8426   -8.1647 C   0  0  0  0  0  0  0  0  0  0  0  0
  -30.4211  -15.2097   -9.3832 C   0  0  1  0  0  0  0  0  0  0  0  0
  -30.2274  -16.5283   -9.7680 C   0  0  0  0  0  0  0  0  0  0  0  0
  -30.6614  -17.5195   -8.8744 C   0  0  0  0  0  0  0  0  0  0  0  0
  -31.3124  -17.1547   -7.6694 C   0  0  0  0  0  0  0  0  0  0  0  0
  -31.1097  -13.4299   -8.0567 C   0  0  0  0  0  0  0  0  0  0  0  0
  -30.5640  -12.7529   -9.1400 C   0  0  0  0  0  0  0  0  0  0  0  0
  -29.9435  -13.8295  -10.3550 S   0  0  0  0  0  0  0  0  0  0  0  0
  -30.4835  -18.9248   -8.9290 C   0  0  0  0  0  0  0  0  0  0  0  0
  -30.9870  -19.6043   -7.8265 C   0  0  0  0  0  0  0  0  0  0  0  0
  -31.7371  -18.5380   -6.6771 S   0  0  0  0  0  0  0  0  0  0  0  0
  -32.1463  -15.4905   -6.0270 C   0  0  0  0  0  0  0  0  0  0  0  0
  -29.6002  -16.8469  -11.0390 C   0  0  0  0  0  0  0  0  0  0  0  0
  -31.6531  -14.7149   -5.0222 C   0  0  0  0  0  0  0  0  0  0  0  0
  -32.5306  -14.5821   -3.9181 C   0  0  0  0  0  0  0  0  0  0  0  0
  -33.7033  -15.2539   -4.1037 C   0  0  0  0  0  0  0  0  0  0  0  0
  -33.7283  -16.0857   -5.6266 S   0  0  0  0  0  0  0  0  0  0  0  0
  -28.4096  -16.3960  -11.5225 C   0  0  0  0  0  0  0  0  0  0  0  0
  -28.0921  -16.8896  -12.8114 C   0  0  0  0  0  0  0  0  0  0  0  0
  -29.0730  -17.6923  -13.3164 C   0  0  0  0  0  0  0  0  0  0  0  0
  -30.3913  -17.8660  -12.2018 S   0  0  0  0  0  0  0  0  0  0  0  0
  -34.8660  -15.4002   -3.1806 C   0  0  0  0  0  0  0  0  0  0  0  0
  -34.7160  -16.6478   -2.3064 C   0  0  0  0  0  0  0  0  0  0  0  0
  -29.1106  -18.4556  -14.5968 C   0  0  0  0  0  0  0  0  0  0  0  0
  -28.6475  -19.8982  -14.3771 C   0  0  0  0  0  0  0  0  0  0  0  0
  -29.5756  -22.6616   -9.2964 C   0  0  0  0  0  0  0  0  0  0  0  0
  -29.9000  -24.0279   -8.2781 S   0  0  0  0  0  0  0  0  0  0  0  0
  -29.0096  -25.0947   -9.3441 C   0  0  0  0  0  0  0  0  0  0  0  0
  -28.5167  -24.3847  -10.4215 C   0  0  0  0  0  0  0  0  0  0  0  0
  -28.8307  -23.0296  -10.3973 C   0  0  0  0  0  0  0  0  0  0  0  0
  -28.9005  -26.4814   -9.0052 C   0  0  0  0  0  0  0  0  0  0  0  0
  -29.5685  -26.9323   -7.8304 C   0  0  0  0  0  0  0  0  0  0  0  0
  -29.5706  -28.2757   -7.3620 C   0  0  0  0  0  0  0  0  0  0  0  0
  -28.8753  -29.3227   -8.0439 C   0  0  0  0  0  0  0  0  0  0  0  0
  -28.2196  -28.8629   -9.1834 C   0  0  0  0  0  0  0  0  0  0  0  0
  -28.2232  -27.5112   -9.6545 C   0  0  0  0  0  0  0  0  0  0  0  0
  -27.4023  -29.6483  -10.1204 C   0  0  0  0  0  0  0  0  0  0  0  0
  -26.9591  -28.7718  -11.0853 N   0  0  0  0  0  0  0  0  0  0  0  0
  -27.3988  -27.4792  -10.8814 C   0  0  0  0  0  0  0  0  0  0  0  0
  -26.0927  -29.1600  -12.1759 C   0  0  0  0  0  0  0  0  0  0  0  0
  -24.6262  -29.0988  -11.7639 C   0  0  0  0  0  0  0  0  0  0  0  0
  -27.1078  -26.5730  -11.6300 O   0  0  0  0  0  0  0  0  0  0  0  0
  -27.1263  -30.8288  -10.1270 O   0  0  0  0  0  0  0  0  0  0  0  0
  -30.2955  -26.2082   -6.9762 N   0  0  0  0  0  0  0  0  0  0  0  0
  -30.6952  -27.0588   -6.0759 N   0  0  0  0  0  0  0  0  0  0  0  0
  -30.3070  -28.2908   -6.2415 N   0  0  0  0  0  0  0  0  0  0  0  0
  -31.5374  -26.6628   -4.9835 C   0  0  0  0  0  0  0  0  0  0  0  0
  -32.8926  -26.1988   -5.5047 C   0  0  0  0  0  0  0  0  0  0  0  0
  -28.9178  -30.6574   -7.5190 C   0  0  0  0  0  0  0  0  0  0  0  0
  -28.1222  -32.0503   -8.2110 S   0  0  0  0  0  0  0  0  0  0  0  0
  -28.7229  -33.0577   -6.9693 C   0  0  0  0  0  0  0  0  0  0  0  0
  -29.4931  -32.3865   -6.0653 C   0  0  0  0  0  0  0  0  0  0  0  0
  -29.6034  -31.0291   -6.3760 C   0  0  0  0  0  0  0  0  0  0  0  0
  -29.6798  -20.0053  -10.0065 S   0  0  0  0  0  0  0  0  0  0  0  0
  -30.0355  -21.3618   -8.9554 C   0  0  0  0  0  0  0  0  0  0  0  0
  -30.7471  -20.9813   -7.8407 C   0  0  0  0  0  0  0  0  0  0  0  0
  -31.6953  -12.3216   -6.8698 S   0  0  0  0  0  0  0  0  0  0  0  0
  -31.1579  -10.9592   -7.8358 C   0  0  2  0  0  0  0  0  0  0  0  0
  -30.5869  -11.3607   -9.0214 C   0  0  0  0  0  0  0  0  0  0  0  0
  -26.8333  -16.4984  -13.5233 C   0  0  0  0  0  0  0  0  0  0  0  0
  -26.9989  -15.1341  -14.1944 C   0  0  0  0  0  0  0  0  0  0  0  0
  -32.1877  -13.7362   -2.7301 C   0  0  0  0  0  0  0  0  0  0  0  0
  -32.3806  -12.2540   -3.0530 C   0  0  0  0  0  0  0  0  0  0  0  0
   -3.0414  -13.5095  -10.5358 H   0  0  0  0  0  0  0  0  0  0  0  0
    2.3248  -10.3346   -5.6372 H   0  0  0  0  0  0  0  0  0  0  0  0
    0.3401  -13.6026  -14.7495 H   0  0  0  0  0  0  0  0  0  0  0  0
   -1.2735  -14.2291  -15.1083 H   0  0  0  0  0  0  0  0  0  0  0  0
    0.9575  -15.7707  -13.6894 H   0  0  0  0  0  0  0  0  0  0  0  0
    0.4576  -16.0049  -15.3693 H   0  0  0  0  0  0  0  0  0  0  0  0
   -0.6459  -16.4111  -14.0489 H   0  0  0  0  0  0  0  0  0  0  0  0
    0.4824   -9.5240   -1.1199 H   0  0  0  0  0  0  0  0  0  0  0  0
   -1.0311  -10.3865   -1.4194 H   0  0  0  0  0  0  0  0  0  0  0  0
   -0.4588   -7.5066   -2.2719 H   0  0  0  0  0  0  0  0  0  0  0  0
   -1.4759   -7.9951   -0.9099 H   0  0  0  0  0  0  0  0  0  0  0  0
   -1.9617   -8.3838   -2.5653 H   0  0  0  0  0  0  0  0  0  0  0  0
   -4.7144   -4.3126   -4.3409 H   0  0  0  0  0  0  0  0  0  0  0  0
   -3.0930   -6.2994   -4.7351 H   0  0  0  0  0  0  0  0  0  0  0  0
   -7.5610   -3.3647  -11.3634 H   0  0  0  0  0  0  0  0  0  0  0  0
   -8.9538   -2.2456  -11.2393 H   0  0  0  0  0  0  0  0  0  0  0  0
   -9.0640   -5.2790  -10.8300 H   0  0  0  0  0  0  0  0  0  0  0  0
   -9.6418   -4.4200  -12.2632 H   0  0  0  0  0  0  0  0  0  0  0  0
  -10.4416   -4.1720  -10.7060 H   0  0  0  0  0  0  0  0  0  0  0  0
   -7.2076   -1.0433   -1.5077 H   0  0  0  0  0  0  0  0  0  0  0  0
   -5.7299   -2.0424   -1.6578 H   0  0  0  0  0  0  0  0  0  0  0  0
   -8.5400   -3.1011   -1.0477 H   0  0  0  0  0  0  0  0  0  0  0  0
   -7.2299   -2.9432    0.1283 H   0  0  0  0  0  0  0  0  0  0  0  0
   -7.0826   -4.0906   -1.2085 H   0  0  0  0  0  0  0  0  0  0  0  0
  -12.5607   -0.0185   -3.7805 H   0  0  0  0  0  0  0  0  0  0  0  0
  -10.1291   -0.9195   -3.7325 H   0  0  0  0  0  0  0  0  0  0  0  0
   -4.2981   -8.0019   -9.1089 H   0  0  0  0  0  0  0  0  0  0  0  0
    3.0464  -17.1207   -9.3481 H   0  0  0  0  0  0  0  0  0  0  0  0
    3.6075  -15.9136   -7.0838 H   0  0  0  0  0  0  0  0  0  0  0  0
    2.3141   -8.6851   -2.2079 H   0  0  0  0  0  0  0  0  0  0  0  0
    3.2398   -8.8810   -3.6991 H   0  0  0  0  0  0  0  0  0  0  0  0
    2.7503  -11.0789   -1.6300 H   0  0  0  0  0  0  0  0  0  0  0  0
    4.2667  -10.2007   -1.8624 H   0  0  0  0  0  0  0  0  0  0  0  0
    3.6587  -11.2757   -3.1272 H   0  0  0  0  0  0  0  0  0  0  0  0
   -4.0052  -14.9654  -12.4837 H   0  0  0  0  0  0  0  0  0  0  0  0
   -3.1262  -15.0898  -14.0107 H   0  0  0  0  0  0  0  0  0  0  0  0
   -4.4164  -12.5387  -12.9191 H   0  0  0  0  0  0  0  0  0  0  0  0
   -5.0757  -13.5446  -14.2148 H   0  0  0  0  0  0  0  0  0  0  0  0
   -3.5591  -12.6688  -14.4532 H   0  0  0  0  0  0  0  0  0  0  0  0
  -19.1932    2.0637   -3.0631 H   0  0  0  0  0  0  0  0  0  0  0  0
  -18.9674   -1.1516  -10.3299 H   0  0  0  0  0  0  0  0  0  0  0  0
  -16.8687   -2.1308   -0.6007 H   0  0  0  0  0  0  0  0  0  0  0  0
  -17.0854   -0.7200    0.4419 H   0  0  0  0  0  0  0  0  0  0  0  0
  -14.8101   -1.1156   -1.5661 H   0  0  0  0  0  0  0  0  0  0  0  0
  -14.6699   -1.2889    0.1883 H   0  0  0  0  0  0  0  0  0  0  0  0
  -15.0085    0.2942   -0.5232 H   0  0  0  0  0  0  0  0  0  0  0  0
  -21.5656    1.5894  -13.5363 H   0  0  0  0  0  0  0  0  0  0  0  0
  -22.0197    2.8207  -12.3521 H   0  0  0  0  0  0  0  0  0  0  0  0
  -23.3838    0.1023  -12.6652 H   0  0  0  0  0  0  0  0  0  0  0  0
  -24.0383    1.6534  -13.2071 H   0  0  0  0  0  0  0  0  0  0  0  0
  -23.8194    1.3363  -11.4814 H   0  0  0  0  0  0  0  0  0  0  0  0
  -27.5849   -2.3780   -9.7096 H   0  0  0  0  0  0  0  0  0  0  0  0
  -25.4218   -0.9496   -9.5624 H   0  0  0  0  0  0  0  0  0  0  0  0
  -29.1863   -2.9967   -2.2485 H   0  0  0  0  0  0  0  0  0  0  0  0
  -30.3174   -4.3680   -2.0291 H   0  0  0  0  0  0  0  0  0  0  0  0
  -31.0702   -1.5806   -3.0508 H   0  0  0  0  0  0  0  0  0  0  0  0
  -31.4079   -2.1987   -1.4293 H   0  0  0  0  0  0  0  0  0  0  0  0
  -32.1920   -2.9341   -2.8331 H   0  0  0  0  0  0  0  0  0  0  0  0
  -28.9145   -4.6701  -12.1749 H   0  0  0  0  0  0  0  0  0  0  0  0
  -30.3115   -5.7782  -12.0249 H   0  0  0  0  0  0  0  0  0  0  0  0
  -27.3822   -6.5438  -11.5640 H   0  0  0  0  0  0  0  0  0  0  0  0
  -28.3667   -7.0116  -12.9554 H   0  0  0  0  0  0  0  0  0  0  0  0
  -28.7717   -7.6160  -11.3423 H   0  0  0  0  0  0  0  0  0  0  0  0
  -32.2063   -9.8818   -5.4106 H   0  0  0  0  0  0  0  0  0  0  0  0
  -31.8084   -7.3659   -4.9560 H   0  0  0  0  0  0  0  0  0  0  0  0
  -24.4479   -0.5583   -4.8317 H   0  0  0  0  0  0  0  0  0  0  0  0
  -13.7970   -0.0811   -8.4582 H   0  0  0  0  0  0  0  0  0  0  0  0
  -20.7694   -0.5674  -13.6409 H   0  0  0  0  0  0  0  0  0  0  0  0
  -19.8097   -1.7377  -12.7302 H   0  0  0  0  0  0  0  0  0  0  0  0
  -18.7834    0.9450  -13.7794 H   0  0  0  0  0  0  0  0  0  0  0  0
  -18.4173   -0.6405  -14.4692 H   0  0  0  0  0  0  0  0  0  0  0  0
  -17.8327   -0.2166  -12.8558 H   0  0  0  0  0  0  0  0  0  0  0  0
  -18.4012    2.7040   -0.6721 H   0  0  0  0  0  0  0  0  0  0  0  0
  -17.5877    1.5147    0.3489 H   0  0  0  0  0  0  0  0  0  0  0  0
  -20.5305    1.4125   -0.4839 H   0  0  0  0  0  0  0  0  0  0  0  0
  -19.9330    1.8954    1.1082 H   0  0  0  0  0  0  0  0  0  0  0  0
  -19.7256    0.2319    0.5473 H   0  0  0  0  0  0  0  0  0  0  0  0
  -30.6705  -14.2779   -5.0482 H   0  0  0  0  0  0  0  0  0  0  0  0
  -27.7537  -15.7561  -10.9587 H   0  0  0  0  0  0  0  0  0  0  0  0
  -35.7835  -15.4823   -3.7668 H   0  0  0  0  0  0  0  0  0  0  0  0
  -34.9462  -14.5140   -2.5483 H   0  0  0  0  0  0  0  0  0  0  0  0
  -34.6532  -17.5363   -2.9304 H   0  0  0  0  0  0  0  0  0  0  0  0
  -35.5695  -16.7486   -1.6404 H   0  0  0  0  0  0  0  0  0  0  0  0
  -33.8104  -16.5847   -1.7072 H   0  0  0  0  0  0  0  0  0  0  0  0
  -28.4703  -17.9695  -15.3349 H   0  0  0  0  0  0  0  0  0  0  0  0
  -30.1314  -18.4626  -14.9848 H   0  0  0  0  0  0  0  0  0  0  0  0
  -27.6287  -19.9153  -13.9964 H   0  0  0  0  0  0  0  0  0  0  0  0
  -28.6812  -20.4542  -15.3108 H   0  0  0  0  0  0  0  0  0  0  0  0
  -29.2929  -20.3913  -13.6535 H   0  0  0  0  0  0  0  0  0  0  0  0
  -27.9391  -24.8412  -11.2016 H   0  0  0  0  0  0  0  0  0  0  0  0
  -28.5233  -22.3285  -11.1535 H   0  0  0  0  0  0  0  0  0  0  0  0
  -26.2868  -28.4731  -13.0030 H   0  0  0  0  0  0  0  0  0  0  0  0
  -26.3641  -30.1790  -12.4621 H   0  0  0  0  0  0  0  0  0  0  0  0
  -24.3632  -28.0875  -11.4622 H   0  0  0  0  0  0  0  0  0  0  0  0
  -23.9963  -29.3907  -12.5995 H   0  0  0  0  0  0  0  0  0  0  0  0
  -24.4434  -29.7762  -10.9330 H   0  0  0  0  0  0  0  0  0  0  0  0
  -31.0438  -25.8474   -4.4479 H   0  0  0  0  0  0  0  0  0  0  0  0
  -31.6359  -27.5297   -4.3284 H   0  0  0  0  0  0  0  0  0  0  0  0
  -32.7545  -25.3753   -6.2007 H   0  0  0  0  0  0  0  0  0  0  0  0
  -33.5121  -25.8640   -4.6780 H   0  0  0  0  0  0  0  0  0  0  0  0
  -33.4018  -27.0112   -6.0176 H   0  0  0  0  0  0  0  0  0  0  0  0
  -28.4752  -34.1015   -6.9709 H   0  0  0  0  0  0  0  0  0  0  0  0
  -29.9624  -32.8441   -5.2125 H   0  0  0  0  0  0  0  0  0  0  0  0
  -30.1652  -30.3280   -5.7897 H   0  0  0  0  0  0  0  0  0  0  0  0
  -31.0595  -21.6693   -7.0771 H   0  0  0  0  0  0  0  0  0  0  0  0
  -30.1940  -10.6752   -9.7492 H   0  0  0  0  0  0  0  0  0  0  0  0
  -26.5720  -17.2476  -14.2716 H   0  0  0  0  0  0  0  0  0  0  0  0
  -26.0183  -16.4471  -12.7981 H   0  0  0  0  0  0  0  0  0  0  0  0
  -27.7948  -15.1709  -14.9351 H   0  0  0  0  0  0  0  0  0  0  0  0
  -26.0764  -14.8383  -14.6888 H   0  0  0  0  0  0  0  0  0  0  0  0
  -27.2567  -14.3788  -13.4554 H   0  0  0  0  0  0  0  0  0  0  0  0
  -31.1444  -13.9124   -2.4587 H   0  0  0  0  0  0  0  0  0  0  0  0
  -32.8089  -14.0111   -1.8772 H   0  0  0  0  0  0  0  0  0  0  0  0
  -31.7441  -11.9657   -3.8864 H   0  0  0  0  0  0  0  0  0  0  0  0
  -32.1277  -11.6396   -2.1920 H   0  0  0  0  0  0  0  0  0  0  0  0
  -33.4148  -12.0592   -3.3291 H   0  0  0  0  0  0  0  0  0  0  0  0
  1  6  2  0  0  0  0
  1  2  1  0  0  0  0
  3  2  1  1  0  0  0
  3  4  1  0  0  0  0
  3  9  1  0  0  0  0
  4 14  1  0  0  0  0
  5 10  1  0  0  0  0
  5  4  2  0  0  0  0
  6  5  1  0  0  0  0
  7  2  2  0  0  0  0
  7  8  1  0  0  0  0
  8  9  1  0  0  0  0
 10 55  1  0  0  0  0
 11 57  1  0  0  0  0
 11 10  2  0  0  0  0
 12  6  1  0  0  0  0
 12 11  1  0  0  0  0
 13  1  1  0  0  0  0
 14 19  2  0  0  0  0
 14 22  1  0  0  0  0
 15 13  2  0  0  0  0
 15193  1  0  0  0  0
 16 15  1  0  0  0  0
 17 16  2  0  0  0  0
 17 18  1  0  0  0  0
 18 13  1  0  0  0  0
 19 20  1  0  0  0  0
 20 21  2  0  0  0  0
 20 61  1  0  0  0  0
 21 25  1  0  0  0  0
 22 21  1  0  0  0  0
 23 24  1  0  0  0  0
 23 17  1  0  0  0  0
 24199  1  0  0  0  0
 24197  1  0  0  0  0
 25201  1  0  0  0  0
 25200  1  0  0  0  0
 26 25  1  0  0  0  0
 26203  1  0  0  0  0
 27 31  2  0  0  0  0
 28 27  1  0  0  0  0
 28 29  1  0  0  0  0
 29 30  2  0  0  0  0
 30205  1  0  0  0  0
 31 30  1  0  0  0  0
 31206  1  0  0  0  0
 32 29  1  0  0  0  0
 32 33  1  0  0  0  0
 33 34  1  0  0  0  0
 33 45  2  0  0  0  0
 34 47  2  0  0  0  0
 35 50  1  0  0  0  0
 35 34  1  0  0  0  0
 36 35  2  0  0  0  0
 37 36  1  0  0  0  0
 37 32  2  0  0  0  0
 38 36  1  0  0  0  0
 39 40  1  0  0  0  0
 39 38  1  0  0  0  0
 40 37  1  0  0  0  0
 41 39  1  0  0  0  0
 42 41  1  0  0  0  0
 42209  1  0  0  0  0
 42211  1  0  0  0  0
 43 40  2  0  0  0  0
 44 38  2  0  0  0  0
 45 46  1  0  0  0  0
 46 48  1  0  0  0  0
 47 46  1  0  0  0  0
 48213  1  0  0  0  0
 48212  1  0  0  0  0
 48 49  1  0  0  0  0
 49215  1  0  0  0  0
 50 54  2  0  0  0  0
 51 52  1  0  0  0  0
 51 50  1  0  0  0  0
 52 53  2  0  0  0  0
 53 54  1  0  0  0  0
 53217  1  0  0  0  0
 54218  1  0  0  0  0
 56 27  1  0  0  0  0
 56 55  1  0  0  0  0
 57 56  2  0  0  0  0
 58 59  1  0  0  0  0
 58  7  1  0  0  0  0
 59 60  1  0  0  0  0
 60  8  2  0  0  0  0
 60221  1  0  0  0  0
 61 62  1  0  0  0  0
 61222  1  0  0  0  0
 62225  1  0  0  0  0
 62224  1  0  0  0  0
 63 16  1  0  0  0  0
 63227  1  0  0  0  0
 64 63  1  0  0  0  0
 64229  1  0  0  0  0
 65 77  1  0  0  0  0
 66 71  2  0  0  0  0
 66 65  1  0  0  0  0
 67 73  1  6  0  0  0
 67 66  1  0  0  0  0
 68 67  1  0  0  0  0
 68 69  2  0  0  0  0
 69 70  1  0  0  0  0
 70 65  2  0  0  0  0
 70 76  1  0  0  0  0
 71122  1  0  0  0  0
 72 71  1  0  0  0  0
 73 72  1  0  0  0  0
 74 69  1  0  0  0  0
 74 75  2  0  0  0  0
 75 76  1  0  0  0  0
 77 82  1  0  0  0  0
 77 79  2  0  0  0  0
 78 68  1  0  0  0  0
 79 80  1  0  0  0  0
 80127  1  0  0  0  0
 81 80  2  0  0  0  0
 81 87  1  0  0  0  0
 82 81  1  0  0  0  0
 83233  1  0  0  0  0
 83 78  2  0  0  0  0
 84 85  2  0  0  0  0
 84 83  1  0  0  0  0
 85 86  1  0  0  0  0
 86 78  1  0  0  0  0
 87235  1  0  0  0  0
 88 87  1  0  0  0  0
 88238  1  0  0  0  0
 88237  1  0  0  0  0
 89 90  1  0  0  0  0
 89240  1  0  0  0  0
 89 85  1  0  0  0  0
 90243  1  0  0  0  0
 91120  1  0  0  0  0
 91 92  1  0  0  0  0
 93 96  1  0  0  0  0
 93 92  1  0  0  0  0
 94 95  1  0  0  0  0
 94 93  2  0  0  0  0
 95 91  2  0  0  0  0
 96101  2  0  0  0  0
 97 98  1  0  0  0  0
 97 96  1  0  0  0  0
 98 99  1  0  0  0  0
 99114  1  0  0  0  0
 99100  2  0  0  0  0
100102  1  0  0  0  0
101100  1  0  0  0  0
101104  1  0  0  0  0
102103  1  0  0  0  0
102108  2  0  0  0  0
103105  1  0  0  0  0
104107  2  0  0  0  0
104103  1  0  0  0  0
105106  1  0  0  0  0
105246  1  0  0  0  0
105247  1  0  0  0  0
106249  1  0  0  0  0
109 97  2  0  0  0  0
110109  1  0  0  0  0
110111  1  0  0  0  0
111 98  2  0  0  0  0
112110  1  0  0  0  0
113112  1  0  0  0  0
113253  1  0  0  0  0
113255  1  0  0  0  0
114118  2  0  0  0  0
115116  1  0  0  0  0
115114  1  0  0  0  0
116117  2  0  0  0  0
117118  1  0  0  0  0
117256  1  0  0  0  0
118257  1  0  0  0  0
119120  1  0  0  0  0
119 74  1  0  0  0  0
120121  2  0  0  0  0
121 75  1  0  0  0  0
121258  1  0  0  0  0
123 52  1  1  0  0  0
123122  1  0  0  0  0
124 72  2  0  0  0  0
124123  1  0  0  0  0
125261  1  0  0  0  0
125 84  1  0  0  0  0
126125  1  0  0  0  0
126264  1  0  0  0  0
127128  1  0  0  0  0
127266  1  0  0  0  0
128269  1  0  0  0  0
128268  1  0  0  0  0
129141  1  0  0  0  0
130135  2  0  0  0  0
130129  1  0  0  0  0
131137  1  6  0  0  0
131130  1  0  0  0  0
132131  1  0  0  0  0
132133  2  0  0  0  0
133134  1  0  0  0  0
134129  2  0  0  0  0
134140  1  0  0  0  0
135186  1  0  0  0  0
136188  2  0  0  0  0
136135  1  0  0  0  0
137136  1  0  0  0  0
138133  1  0  0  0  0
138139  2  0  0  0  0
139140  1  0  0  0  0
141146  1  0  0  0  0
141143  2  0  0  0  0
142132  1  0  0  0  0
143144  1  0  0  0  0
144191  1  0  0  0  0
145144  2  0  0  0  0
145151  1  0  0  0  0
146145  1  0  0  0  0
147142  2  0  0  0  0
147271  1  0  0  0  0
148147  1  0  0  0  0
149148  2  0  0  0  0
149150  1  0  0  0  0
150142  1  0  0  0  0
151273  1  0  0  0  0
151152  1  0  0  0  0
152276  1  0  0  0  0
152275  1  0  0  0  0
153154  1  0  0  0  0
153149  1  0  0  0  0
154279  1  0  0  0  0
154281  1  0  0  0  0
155184  1  0  0  0  0
155156  1  0  0  0  0
157160  1  0  0  0  0
157156  1  0  0  0  0
158159  1  0  0  0  0
158157  2  0  0  0  0
159155  2  0  0  0  0
160161  1  0  0  0  0
161162  1  0  0  0  0
161173  2  0  0  0  0
162175  2  0  0  0  0
163178  1  0  0  0  0
163162  1  0  0  0  0
164163  2  0  0  0  0
165164  1  0  0  0  0
165160  2  0  0  0  0
166164  1  0  0  0  0
167168  1  0  0  0  0
167166  1  0  0  0  0
168165  1  0  0  0  0
169170  1  0  0  0  0
169167  1  0  0  0  0
170286  1  0  0  0  0
170288  1  0  0  0  0
171168  2  0  0  0  0
172166  2  0  0  0  0
173174  1  0  0  0  0
174176  1  0  0  0  0
175174  1  0  0  0  0
176289  1  0  0  0  0
176290  1  0  0  0  0
177176  1  0  0  0  0
177292  1  0  0  0  0
178182  2  0  0  0  0
179178  1  0  0  0  0
179180  1  0  0  0  0
180181  2  0  0  0  0
181295  1  0  0  0  0
182181  1  0  0  0  0
182296  1  0  0  0  0
183184  1  0  0  0  0
183138  1  0  0  0  0
184185  2  0  0  0  0
185139  1  0  0  0  0
185297  1  0  0  0  0
187116  1  1  0  0  0
187186  1  0  0  0  0
188187  1  0  0  0  0
189148  1  0  0  0  0
189300  1  0  0  0  0
190189  1  0  0  0  0
190303  1  0  0  0  0
191304  1  0  0  0  0
191305  1  0  0  0  0
192191  1  0  0  0  0
192307  1  0  0  0  0
194 19  1  0  0  0  0
195 23  1  0  0  0  0
196 23  1  0  0  0  0
198 24  1  0  0  0  0
202 26  1  0  0  0  0
204 26  1  0  0  0  0
207 41  1  0  0  0  0
208 41  1  0  0  0  0
210 42  1  0  0  0  0
214 49  1  0  0  0  0
216 49  1  0  0  0  0
219 57  1  0  0  0  0
220 59  1  0  0  0  0
223 61  1  0  0  0  0
226 62  1  0  0  0  0
228 63  1  0  0  0  0
230 64  1  0  0  0  0
231 64  1  0  0  0  0
232 79  1  0  0  0  0
234 87  1  0  0  0  0
236 88  1  0  0  0  0
239 89  1  0  0  0  0
241 90  1  0  0  0  0
242 90  1  0  0  0  0
244 94  1  0  0  0  0
245 95  1  0  0  0  0
248106  1  0  0  0  0
250106  1  0  0  0  0
251112  1  0  0  0  0
252112  1  0  0  0  0
254113  1  0  0  0  0
259124  1  0  0  0  0
260125  1  0  0  0  0
262126  1  0  0  0  0
263126  1  0  0  0  0
265127  1  0  0  0  0
267128  1  0  0  0  0
270143  1  0  0  0  0
272151  1  0  0  0  0
274152  1  0  0  0  0
277153  1  0  0  0  0
278153  1  0  0  0  0
280154  1  0  0  0  0
282158  1  0  0  0  0
283159  1  0  0  0  0
284169  1  0  0  0  0
285169  1  0  0  0  0
287170  1  0  0  0  0
291177  1  0  0  0  0
293177  1  0  0  0  0
294180  1  0  0  0  0
298188  1  0  0  0  0
299189  1  0  0  0  0
301190  1  0  0  0  0
302190  1  0  0  0  0
306192  1  0  0  0  0
308192  1  0  0  0  0
M  END
