SCF done       -435.104484330190          0.000528694124
 OpenBabel12282109573D

254283  0  0  0  0  0  0  0  0999 V2000
   -1.6007    7.1737    4.6152 C   0  0  0  0  0  0  0  0  0  0  0  0
   -2.3196    6.1367    5.2365 C   0  0  0  0  0  0  0  0  0  0  0  0
   -1.6578    4.9479    5.6235 C   0  0  0  0  0  0  0  0  0  0  0  0
   -0.3000    4.7249    5.4141 C   0  0  0  0  0  0  0  0  0  0  0  0
    0.4276    5.7770    4.8281 C   0  0  0  0  0  0  0  0  0  0  0  0
   -0.2364    6.9651    4.4390 C   0  0  0  0  0  0  0  0  0  0  0  0
   -3.7050    6.0963    5.5723 C   0  0  0  0  0  0  0  0  0  0  0  0
   -4.0721    4.9360    6.1518 C   0  0  0  0  0  0  0  0  0  0  0  0
   -2.7707    3.8142    6.3400 S   0  0  0  0  0  0  0  0  0  0  0  0
    1.8185    5.8351    4.5563 C   0  0  0  0  0  0  0  0  0  0  0  0
    2.2098    6.9876    3.9443 C   0  0  0  0  0  0  0  0  0  0  0  0
    0.8672    8.0853    3.6867 S   0  0  0  0  0  0  0  0  0  0  0  0
   -2.2254    8.4027    4.1643 C   0  0  0  0  0  0  0  0  0  0  0  0
    0.3409    3.4689    5.7493 C   0  0  0  0  0  0  0  0  0  0  0  0
   -1.7297    9.6718    4.2549 C   0  0  0  0  0  0  0  0  0  0  0  0
   -2.5805   10.6320    3.6675 C   0  0  0  0  0  0  0  0  0  0  0  0
   -3.7135   10.1181    3.1078 C   0  0  0  0  0  0  0  0  0  0  0  0
   -3.7532    8.4031    3.3274 S   0  0  0  0  0  0  0  0  0  0  0  0
    1.2434    2.7650    5.0041 C   0  0  0  0  0  0  0  0  0  0  0  0
    1.6534    1.5710    5.6347 C   0  0  0  0  0  0  0  0  0  0  0  0
    1.0902    1.3564    6.8587 C   0  0  0  0  0  0  0  0  0  0  0  0
    0.0057    2.6469    7.2470 S   0  0  0  0  0  0  0  0  0  0  0  0
   -4.8379   10.8416    2.4530 C   0  0  0  0  0  0  0  0  0  0  0  0
   -5.9355   11.1798    3.4650 C   0  0  0  0  0  0  0  0  0  0  0  0
    1.2546    0.1895    7.7684 C   0  0  0  0  0  0  0  0  0  0  0  0
    0.1430   -0.8382    7.5420 C   0  0  0  0  0  0  0  0  0  0  0  0
    3.5196    7.3644    3.5286 C   0  0  0  0  0  0  0  0  0  0  0  0
    4.8994    6.3714    3.9002 S   0  0  0  0  0  0  0  0  0  0  0  0
    5.9699    7.4814    3.0964 C   0  0  0  0  0  0  0  0  0  0  0  0
    5.2718    8.5395    2.5738 C   0  0  0  0  0  0  0  0  0  0  0  0
    3.8960    8.4811    2.8246 C   0  0  0  0  0  0  0  0  0  0  0  0
    7.3950    7.2371    2.9985 C   0  0  0  0  0  0  0  0  0  0  0  0
    8.1705    6.8173    4.0924 C   0  0  0  0  0  0  0  0  0  0  0  0
    9.5589    6.6088    3.9352 C   0  0  0  0  0  0  0  0  0  0  0  0
   10.2283    6.7719    2.7241 C   0  0  0  0  0  0  0  0  0  0  0  0
    9.4555    7.2119    1.6347 C   0  0  0  0  0  0  0  0  0  0  0  0
    8.0701    7.4330    1.7959 C   0  0  0  0  0  0  0  0  0  0  0  0
    9.8835    7.5170    0.3087 C   0  0  0  0  0  0  0  0  0  0  0  0
    8.8865    7.9131   -0.5119 C   0  0  0  0  0  0  0  0  0  0  0  0
    7.3395    7.9472    0.2993 S   0  0  0  0  0  0  0  0  0  0  0  0
    8.9671    8.2764   -1.9537 C   0  0  0  0  0  0  0  0  0  0  0  0
    8.3286    7.1981   -2.8314 C   0  0  0  0  0  0  0  0  0  0  0  0
    7.7542    6.5911    5.4373 C   0  0  0  0  0  0  0  0  0  0  0  0
    8.7528    6.2068    6.2615 C   0  0  0  0  0  0  0  0  0  0  0  0
   10.2873    6.1021    5.4346 S   0  0  0  0  0  0  0  0  0  0  0  0
    8.6885    5.9238    7.7219 C   0  0  0  0  0  0  0  0  0  0  0  0
    9.4477    6.9821    8.5242 C   0  0  0  0  0  0  0  0  0  0  0  0
   11.6473    6.5176    2.5886 C   0  0  0  0  0  0  0  0  0  0  0  0
   12.7568    7.0228    3.8266 S   0  0  0  0  0  0  0  0  0  0  0  0
   14.1115    6.4065    2.9264 C   0  0  0  0  0  0  0  0  0  0  0  0
   13.7010    5.8435    1.7438 C   0  0  0  0  0  0  0  0  0  0  0  0
   12.3139    5.9061    1.5568 C   0  0  0  0  0  0  0  0  0  0  0  0
   -2.2056   12.3126    3.6560 Cl  0  0  0  0  0  0  0  0  0  0  0  0
    2.7777    0.4845    4.9105 Cl  0  0  0  0  0  0  0  0  0  0  0  0
   17.7933    7.3783    6.1566 C   0  0  0  0  0  0  0  0  0  0  0  0
   17.1408    7.0210    4.9603 C   0  0  0  0  0  0  0  0  0  0  0  0
   17.8917    6.5974    3.8367 C   0  0  0  0  0  0  0  0  0  0  0  0
   19.2806    6.5092    3.8342 C   0  0  0  0  0  0  0  0  0  0  0  0
   19.9353    6.8840    5.0252 C   0  0  0  0  0  0  0  0  0  0  0  0
   19.1809    7.2922    6.1525 C   0  0  0  0  0  0  0  0  0  0  0  0
   15.7488    6.9678    4.7130 C   0  0  0  0  0  0  0  0  0  0  0  0
   15.4247    6.5363    3.4618 C   0  0  0  0  0  0  0  0  0  0  0  0
   16.8451    6.1593    2.5102 S   0  0  0  0  0  0  0  0  0  0  0  0
   21.3281    6.9625    5.2707 C   0  0  0  0  0  0  0  0  0  0  0  0
   21.6436    7.3858    6.5277 C   0  0  0  0  0  0  0  0  0  0  0  0
   20.2167    7.7201    7.4869 S   0  0  0  0  0  0  0  0  0  0  0  0
   17.0685    7.8143    7.3333 C   0  0  0  0  0  0  0  0  0  0  0  0
   19.9978    6.0367    2.6674 C   0  0  0  0  0  0  0  0  0  0  0  0
   17.3342    7.5183    8.6399 C   0  0  0  0  0  0  0  0  0  0  0  0
   16.4262    8.1274    9.5325 C   0  0  0  0  0  0  0  0  0  0  0  0
   15.4786    8.9052    8.9342 C   0  0  0  0  0  0  0  0  0  0  0  0
   15.6985    8.8851    7.2191 S   0  0  0  0  0  0  0  0  0  0  0  0
   19.7089    6.2717    1.3530 C   0  0  0  0  0  0  0  0  0  0  0  0
   20.5843    5.6005    0.4734 C   0  0  0  0  0  0  0  0  0  0  0  0
   21.5417    4.8490    1.0898 C   0  0  0  0  0  0  0  0  0  0  0  0
   21.3628    4.9613    2.8060 S   0  0  0  0  0  0  0  0  0  0  0  0
   14.3369    9.6381    9.5471 C   0  0  0  0  0  0  0  0  0  0  0  0
   13.0153    8.9151    9.2760 C   0  0  0  0  0  0  0  0  0  0  0  0
   22.5887    3.9867    0.4762 C   0  0  0  0  0  0  0  0  0  0  0  0
   22.1082    2.5384    0.3560 C   0  0  0  0  0  0  0  0  0  0  0  0
   22.9387    7.5508    7.0946 C   0  0  0  0  0  0  0  0  0  0  0  0
   24.3686    7.2792    6.1435 S   0  0  0  0  0  0  0  0  0  0  0  0
   25.3985    7.6289    7.5026 C   0  0  0  0  0  0  0  0  0  0  0  0
   24.6470    7.9414    8.6083 C   0  0  0  0  0  0  0  0  0  0  0  0
   23.2673    7.8940    8.3831 C   0  0  0  0  0  0  0  0  0  0  0  0
   26.8413    7.6208    7.3888 C   0  0  0  0  0  0  0  0  0  0  0  0
   27.5404    6.6656    6.6275 C   0  0  0  0  0  0  0  0  0  0  0  0
   28.9488    6.7277    6.5352 C   0  0  0  0  0  0  0  0  0  0  0  0
   29.7189    7.7075    7.1577 C   0  0  0  0  0  0  0  0  0  0  0  0
   29.0242    8.6404    7.9482 C   0  0  0  0  0  0  0  0  0  0  0  0
   27.6163    8.5809    8.0401 C   0  0  0  0  0  0  0  0  0  0  0  0
   29.5597    9.7004    8.7383 C   0  0  0  0  0  0  0  0  0  0  0  0
   28.6229   10.4473    9.3614 C   0  0  0  0  0  0  0  0  0  0  0  0
   27.0048    9.8778    9.0323 S   0  0  0  0  0  0  0  0  0  0  0  0
   28.8227   11.6064   10.2747 C   0  0  0  0  0  0  0  0  0  0  0  0
   28.4430   11.2526   11.7135 C   0  0  0  0  0  0  0  0  0  0  0  0
   27.0197    5.5540    5.9015 C   0  0  0  0  0  0  0  0  0  0  0  0
   27.9612    4.8274    5.2609 C   0  0  0  0  0  0  0  0  0  0  0  0
   29.5687    5.4564    5.5185 S   0  0  0  0  0  0  0  0  0  0  0  0
   27.7762    3.6049    4.4310 C   0  0  0  0  0  0  0  0  0  0  0  0
   28.4791    2.3968    5.0510 C   0  0  0  0  0  0  0  0  0  0  0  0
   31.1559    7.7746    6.9994 C   0  0  0  0  0  0  0  0  0  0  0  0
   32.1247    6.3314    6.9998 S   0  0  0  0  0  0  0  0  0  0  0  0
   33.5816    7.2562    6.7867 C   0  0  0  0  0  0  0  0  0  0  0  0
   33.3059    8.5995    6.7173 C   0  0  0  0  0  0  0  0  0  0  0  0
   31.9411    8.8885    6.8357 C   0  0  0  0  0  0  0  0  0  0  0  0
   16.5200    7.8969   11.2367 Cl  0  0  0  0  0  0  0  0  0  0  0  0
   20.4523    5.7340   -1.2382 Cl  0  0  0  0  0  0  0  0  0  0  0  0
   37.0022    3.6228    6.4192 C   0  0  0  0  0  0  0  0  0  0  0  0
   36.4335    4.9094    6.5050 C   0  0  0  0  0  0  0  0  0  0  0  0
   37.2669    6.0544    6.5372 C   0  0  0  0  0  0  0  0  0  0  0  0
   38.6545    5.9898    6.5256 C   0  0  0  0  0  0  0  0  0  0  0  0
   39.2250    4.7044    6.4430 C   0  0  0  0  0  0  0  0  0  0  0  0
   38.3922    3.5604    6.3953 C   0  0  0  0  0  0  0  0  0  0  0  0
   35.0648    5.2557    6.6096 C   0  0  0  0  0  0  0  0  0  0  0  0
   34.8404    6.5980    6.6897 C   0  0  0  0  0  0  0  0  0  0  0  0
   36.3291    7.5193    6.6530 S   0  0  0  0  0  0  0  0  0  0  0  0
   40.5966    4.3658    6.3378 C   0  0  0  0  0  0  0  0  0  0  0  0
   40.8255    3.0269    6.2237 C   0  0  0  0  0  0  0  0  0  0  0  0
   39.3366    2.1027    6.2407 S   0  0  0  0  0  0  0  0  0  0  0  0
   36.1982    2.4204    6.3355 C   0  0  0  0  0  0  0  0  0  0  0  0
   39.4878    7.1732    6.6043 C   0  0  0  0  0  0  0  0  0  0  0  0
   36.4538    1.2001    6.8940 C   0  0  0  0  0  0  0  0  0  0  0  0
   35.4837    0.2324    6.5581 C   0  0  0  0  0  0  0  0  0  0  0  0
   34.4863    0.6879    5.7460 C   0  0  0  0  0  0  0  0  0  0  0  0
   34.7458    2.3559    5.3736 S   0  0  0  0  0  0  0  0  0  0  0  0
   40.6168    7.3571    7.3498 C   0  0  0  0  0  0  0  0  0  0  0  0
   41.1760    8.6417    7.1796 C   0  0  0  0  0  0  0  0  0  0  0  0
   40.4996    9.4408    6.3048 C   0  0  0  0  0  0  0  0  0  0  0  0
   39.1194    8.6036    5.6824 S   0  0  0  0  0  0  0  0  0  0  0  0
   33.3382   -0.0630    5.1677 C   0  0  0  0  0  0  0  0  0  0  0  0
   33.6777   -0.5988    3.7747 C   0  0  0  0  0  0  0  0  0  0  0  0
   40.7782   10.8535    5.9267 C   0  0  0  0  0  0  0  0  0  0  0  0
   39.9426   11.8193    6.7703 C   0  0  0  0  0  0  0  0  0  0  0  0
   42.0795    2.3606    6.1193 C   0  0  0  0  0  0  0  0  0  0  0  0
   43.5696    3.2392    6.3030 S   0  0  0  0  0  0  0  0  0  0  0  0
   44.5088    1.7940    6.0615 C   0  0  0  0  0  0  0  0  0  0  0  0
   43.6867    0.7147    5.8536 C   0  0  0  0  0  0  0  0  0  0  0  0
   42.3238    1.0303    5.8829 C   0  0  0  0  0  0  0  0  0  0  0  0
   45.9533    1.8030    6.1586 C   0  0  0  0  0  0  0  0  0  0  0  0
   46.7455    2.8536    5.6597 C   0  0  0  0  0  0  0  0  0  0  0  0
   48.1483    2.8242    5.8302 C   0  0  0  0  0  0  0  0  0  0  0  0
   48.8200    1.8018    6.4913 C   0  0  0  0  0  0  0  0  0  0  0  0
   48.0339    0.7380    6.9628 C   0  0  0  0  0  0  0  0  0  0  0  0
   46.6329    0.7597    6.7880 C   0  0  0  0  0  0  0  0  0  0  0  0
   48.4670   -0.4451    7.6321 C   0  0  0  0  0  0  0  0  0  0  0  0
   47.4606   -1.2707    7.9896 C   0  0  0  0  0  0  0  0  0  0  0  0
   45.8998   -0.6504    7.5057 S   0  0  0  0  0  0  0  0  0  0  0  0
   47.5461   -2.5939    8.6676 C   0  0  0  0  0  0  0  0  0  0  0  0
   47.2362   -3.7340    7.6957 C   0  0  0  0  0  0  0  0  0  0  0  0
   46.3347    4.0182    4.9473 C   0  0  0  0  0  0  0  0  0  0  0  0
   47.3490    4.8493    4.6215 C   0  0  0  0  0  0  0  0  0  0  0  0
   48.8963    4.2463    5.1572 S   0  0  0  0  0  0  0  0  0  0  0  0
   47.2822    6.1315    3.8675 C   0  0  0  0  0  0  0  0  0  0  0  0
   47.9214    5.9961    2.4845 C   0  0  0  0  0  0  0  0  0  0  0  0
   50.2547    1.8298    6.7084 C   0  0  0  0  0  0  0  0  0  0  0  0
   51.3573    2.2311    5.4241 S   0  0  0  0  0  0  0  0  0  0  0  0
   52.7048    2.0292    6.4693 C   0  0  0  0  0  0  0  0  0  0  0  0
   52.3320    1.6822    7.7275 C   0  0  0  0  0  0  0  0  0  0  0  0
   50.9339    1.5637    7.8642 C   0  0  0  0  0  0  0  0  0  0  0  0
   35.5564   -1.3866    7.1397 Cl  0  0  0  0  0  0  0  0  0  0  0  0
   42.6013    9.1437    8.0075 Cl  0  0  0  0  0  0  0  0  0  0  0  0
   -4.3857    6.9071    5.3917 H   0  0  0  0  0  0  0  0  0  0  0  0
   -5.0463    4.6525    6.4989 H   0  0  0  0  0  0  0  0  0  0  0  0
    2.5125    5.0582    4.8210 H   0  0  0  0  0  0  0  0  0  0  0  0
   -0.8113    9.9269    4.7497 H   0  0  0  0  0  0  0  0  0  0  0  0
    1.5732    3.0570    4.0243 H   0  0  0  0  0  0  0  0  0  0  0  0
   -5.2559   10.2231    1.6565 H   0  0  0  0  0  0  0  0  0  0  0  0
   -4.4519   11.7634    2.0128 H   0  0  0  0  0  0  0  0  0  0  0  0
   -6.3360   10.2698    3.9061 H   0  0  0  0  0  0  0  0  0  0  0  0
   -6.7445   11.7155    2.9755 H   0  0  0  0  0  0  0  0  0  0  0  0
   -5.5350   11.8041    4.2600 H   0  0  0  0  0  0  0  0  0  0  0  0
    1.2283    0.5290    8.8056 H   0  0  0  0  0  0  0  0  0  0  0  0
    2.2252   -0.2724    7.5768 H   0  0  0  0  0  0  0  0  0  0  0  0
   -0.8293   -0.3891    7.7315 H   0  0  0  0  0  0  0  0  0  0  0  0
    0.2737   -1.6854    8.2102 H   0  0  0  0  0  0  0  0  0  0  0  0
    0.1650   -1.1970    6.5158 H   0  0  0  0  0  0  0  0  0  0  0  0
    5.7453    9.3519    2.0532 H   0  0  0  0  0  0  0  0  0  0  0  0
    3.1919    9.2277    2.5026 H   0  0  0  0  0  0  0  0  0  0  0  0
   10.9104    7.4667   -0.0040 H   0  0  0  0  0  0  0  0  0  0  0  0
   10.0166    8.4034   -2.2272 H   0  0  0  0  0  0  0  0  0  0  0  0
    8.4503    9.2247   -2.1204 H   0  0  0  0  0  0  0  0  0  0  0  0
    8.8365    6.2464   -2.6916 H   0  0  0  0  0  0  0  0  0  0  0  0
    8.3950    7.4776   -3.8797 H   0  0  0  0  0  0  0  0  0  0  0  0
    7.2804    7.0723   -2.5697 H   0  0  0  0  0  0  0  0  0  0  0  0
    6.7411    6.7203    5.7720 H   0  0  0  0  0  0  0  0  0  0  0  0
    9.1257    4.9423    7.9224 H   0  0  0  0  0  0  0  0  0  0  0  0
    7.6413    5.9026    8.0303 H   0  0  0  0  0  0  0  0  0  0  0  0
   10.4950    6.9977    8.2315 H   0  0  0  0  0  0  0  0  0  0  0  0
    9.3864    6.7648    9.5875 H   0  0  0  0  0  0  0  0  0  0  0  0
    9.0245    7.9680    8.3451 H   0  0  0  0  0  0  0  0  0  0  0  0
   14.3854    5.3951    1.0454 H   0  0  0  0  0  0  0  0  0  0  0  0
   11.8108    5.4753    0.7097 H   0  0  0  0  0  0  0  0  0  0  0  0
   14.9957    7.2209    5.4356 H   0  0  0  0  0  0  0  0  0  0  0  0
   22.0839    6.7285    4.5437 H   0  0  0  0  0  0  0  0  0  0  0  0
   18.1191    6.8599    8.9622 H   0  0  0  0  0  0  0  0  0  0  0  0
   18.9264    6.9244    1.0142 H   0  0  0  0  0  0  0  0  0  0  0  0
   14.2857   10.6486    9.1350 H   0  0  0  0  0  0  0  0  0  0  0  0
   14.5055    9.7105   10.6230 H   0  0  0  0  0  0  0  0  0  0  0  0
   12.8360    8.8472    8.2051 H   0  0  0  0  0  0  0  0  0  0  0  0
   12.1903    9.4544    9.7342 H   0  0  0  0  0  0  0  0  0  0  0  0
   13.0447    7.9090    9.6881 H   0  0  0  0  0  0  0  0  0  0  0  0
   23.4925    4.0201    1.0879 H   0  0  0  0  0  0  0  0  0  0  0  0
   22.8252    4.3761   -0.5163 H   0  0  0  0  0  0  0  0  0  0  0  0
   21.8720    2.1362    1.3387 H   0  0  0  0  0  0  0  0  0  0  0  0
   22.8815    1.9233   -0.0968 H   0  0  0  0  0  0  0  0  0  0  0  0
   21.2158    2.4881   -0.2631 H   0  0  0  0  0  0  0  0  0  0  0  0
   25.0784    8.1611    9.5676 H   0  0  0  0  0  0  0  0  0  0  0  0
   22.5260    8.0964    9.1357 H   0  0  0  0  0  0  0  0  0  0  0  0
   30.6140    9.8764    8.8489 H   0  0  0  0  0  0  0  0  0  0  0  0
   28.2071   12.4450    9.9390 H   0  0  0  0  0  0  0  0  0  0  0  0
   29.8706   11.9108   10.2324 H   0  0  0  0  0  0  0  0  0  0  0  0
   27.3956   10.9643   11.7659 H   0  0  0  0  0  0  0  0  0  0  0  0
   28.6018   12.1075   12.3658 H   0  0  0  0  0  0  0  0  0  0  0  0
   29.0490   10.4234   12.0715 H   0  0  0  0  0  0  0  0  0  0  0  0
   25.9758    5.3026    5.8691 H   0  0  0  0  0  0  0  0  0  0  0  0
   28.1844    3.7805    3.4318 H   0  0  0  0  0  0  0  0  0  0  0  0
   26.7070    3.4059    4.3335 H   0  0  0  0  0  0  0  0  0  0  0  0
   29.5464    2.5879    5.1388 H   0  0  0  0  0  0  0  0  0  0  0  0
   28.3317    1.5157    4.4315 H   0  0  0  0  0  0  0  0  0  0  0  0
   28.0814    2.1958    6.0431 H   0  0  0  0  0  0  0  0  0  0  0  0
   34.0709    9.3420    6.5737 H   0  0  0  0  0  0  0  0  0  0  0  0
   31.5369    9.8817    6.7561 H   0  0  0  0  0  0  0  0  0  0  0  0
   34.2606    4.5439    6.6346 H   0  0  0  0  0  0  0  0  0  0  0  0
   41.3918    5.0884    6.3163 H   0  0  0  0  0  0  0  0  0  0  0  0
   37.2797    0.9970    7.5497 H   0  0  0  0  0  0  0  0  0  0  0  0
   41.0163    6.6263    8.0284 H   0  0  0  0  0  0  0  0  0  0  0  0
   32.4693    0.5948    5.1018 H   0  0  0  0  0  0  0  0  0  0  0  0
   33.0952   -0.8964    5.8302 H   0  0  0  0  0  0  0  0  0  0  0  0
   33.9193    0.2221    3.1033 H   0  0  0  0  0  0  0  0  0  0  0  0
   32.8319   -1.1464    3.3672 H   0  0  0  0  0  0  0  0  0  0  0  0
   34.5334   -1.2676    3.8269 H   0  0  0  0  0  0  0  0  0  0  0  0
   40.5453   11.0010    4.8702 H   0  0  0  0  0  0  0  0  0  0  0  0
   41.8399   11.0560    6.0813 H   0  0  0  0  0  0  0  0  0  0  0  0
   38.8824   11.6253    6.6246 H   0  0  0  0  0  0  0  0  0  0  0  0
   40.1534   12.8464    6.4841 H   0  0  0  0  0  0  0  0  0  0  0  0
   40.1759   11.6964    7.8252 H   0  0  0  0  0  0  0  0  0  0  0  0
   44.0570   -0.2736    5.6514 H   0  0  0  0  0  0  0  0  0  0  0  0
   41.5353    0.3143    5.7327 H   0  0  0  0  0  0  0  0  0  0  0  0
   49.5022   -0.6646    7.8208 H   0  0  0  0  0  0  0  0  0  0  0  0
   46.8338   -2.6266    9.4959 H   0  0  0  0  0  0  0  0  0  0  0  0
   48.5523   -2.7175    9.0735 H   0  0  0  0  0  0  0  0  0  0  0  0
   46.2310   -3.6237    7.2954 H   0  0  0  0  0  0  0  0  0  0  0  0
   47.3053   -4.6921    8.2045 H   0  0  0  0  0  0  0  0  0  0  0  0
   47.9415   -3.7268    6.8677 H   0  0  0  0  0  0  0  0  0  0  0  0
   45.3139    4.2226    4.6814 H   0  0  0  0  0  0  0  0  0  0  0  0
   47.8059    6.9102    4.4282 H   0  0  0  0  0  0  0  0  0  0  0  0
   46.2357    6.4264    3.7665 H   0  0  0  0  0  0  0  0  0  0  0  0
   48.9658    5.7079    2.5794 H   0  0  0  0  0  0  0  0  0  0  0  0
   47.8676    6.9414    1.9504 H   0  0  0  0  0  0  0  0  0  0  0  0
   47.4047    5.2365    1.9020 H   0  0  0  0  0  0  0  0  0  0  0  0
   53.6932    2.1812    6.0836 H   0  0  0  0  0  0  0  0  0  0  0  0
   53.0255    1.5169    8.5326 H   0  0  0  0  0  0  0  0  0  0  0  0
   50.4430    1.3279    8.7917 H   0  0  0  0  0  0  0  0  0  0  0  0
  1  2  1  0  0  0  0
  2  7  1  0  0  0  0
  2  3  2  0  0  0  0
  3  9  1  0  0  0  0
  4  3  1  0  0  0  0
  4 14  1  0  0  0  0
  5  4  2  0  0  0  0
  6  1  2  0  0  0  0
  6  5  1  0  0  0  0
  7  8  2  0  0  0  0
  8  9  1  0  0  0  0
  8164  1  0  0  0  0
 10165  1  0  0  0  0
 10  5  1  0  0  0  0
 11 10  2  0  0  0  0
 12 11  1  0  0  0  0
 12  6  1  0  0  0  0
 13 15  2  0  0  0  0
 13  1  1  0  0  0  0
 14 22  1  0  0  0  0
 15166  1  0  0  0  0
 16 15  1  0  0  0  0
 17 18  1  0  0  0  0
 17 16  2  0  0  0  0
 18 13  1  0  0  0  0
 19 20  1  0  0  0  0
 19 14  2  0  0  0  0
 20 21  2  0  0  0  0
 21 22  1  0  0  0  0
 21 25  1  0  0  0  0
 23 17  1  0  0  0  0
 23 24  1  0  0  0  0
 24170  1  0  0  0  0
 24172  1  0  0  0  0
 25173  1  0  0  0  0
 26175  1  0  0  0  0
 26 25  1  0  0  0  0
 26176  1  0  0  0  0
 27 28  1  0  0  0  0
 27 11  1  0  0  0  0
 29 28  1  0  0  0  0
 30 31  1  0  0  0  0
 30 29  2  0  0  0  0
 31 27  2  0  0  0  0
 32 29  1  0  0  0  0
 32 33  2  0  0  0  0
 33 43  1  0  0  0  0
 34 33  1  0  0  0  0
 34 45  1  0  0  0  0
 35 34  2  0  0  0  0
 36 37  2  0  0  0  0
 36 35  1  0  0  0  0
 37 32  1  0  0  0  0
 38 36  1  0  0  0  0
 39 40  1  0  0  0  0
 39 38  2  0  0  0  0
 40 37  1  0  0  0  0
 41 39  1  0  0  0  0
 42183  1  0  0  0  0
 42185  1  0  0  0  0
 42 41  1  0  0  0  0
 43186  1  0  0  0  0
 43 44  2  0  0  0  0
 44 46  1  0  0  0  0
 45 44  1  0  0  0  0
 46187  1  0  0  0  0
 46188  1  0  0  0  0
 46 47  1  0  0  0  0
 47190  1  0  0  0  0
 48 35  1  0  0  0  0
 48 49  1  0  0  0  0
 50 62  1  0  0  0  0
 50 49  1  0  0  0  0
 51 50  2  0  0  0  0
 52 51  1  0  0  0  0
 52 48  2  0  0  0  0
 53 16  1  0  0  0  0
 54 20  1  0  0  0  0
 55 67  1  0  0  0  0
 56 55  2  0  0  0  0
 57 56  1  0  0  0  0
 58 57  2  0  0  0  0
 58 59  1  0  0  0  0
 59 64  1  0  0  0  0
 59 60  2  0  0  0  0
 60 55  1  0  0  0  0
 60 66  1  0  0  0  0
 61 56  1  0  0  0  0
 61194  1  0  0  0  0
 62 61  2  0  0  0  0
 63 62  1  0  0  0  0
 63 57  1  0  0  0  0
 64 65  2  0  0  0  0
 65 81  1  0  0  0  0
 65 66  1  0  0  0  0
 67 69  2  0  0  0  0
 68 76  1  0  0  0  0
 68 58  1  0  0  0  0
 69196  1  0  0  0  0
 69 70  1  0  0  0  0
 70107  1  0  0  0  0
 71 70  2  0  0  0  0
 71 77  1  0  0  0  0
 72 67  1  0  0  0  0
 72 71  1  0  0  0  0
 73 68  2  0  0  0  0
 74 75  2  0  0  0  0
 74 73  1  0  0  0  0
 75 76  1  0  0  0  0
 77199  1  0  0  0  0
 78 77  1  0  0  0  0
 78202  1  0  0  0  0
 78201  1  0  0  0  0
 79203  1  0  0  0  0
 79 75  1  0  0  0  0
 80 79  1  0  0  0  0
 80205  1  0  0  0  0
 81 85  2  0  0  0  0
 82 81  1  0  0  0  0
 82 83  1  0  0  0  0
 83 84  2  0  0  0  0
 84208  1  0  0  0  0
 85 84  1  0  0  0  0
 85209  1  0  0  0  0
 86 83  1  0  0  0  0
 86 91  2  0  0  0  0
 87 86  1  0  0  0  0
 88 87  2  0  0  0  0
 88 89  1  0  0  0  0
 89 90  2  0  0  0  0
 90 91  1  0  0  0  0
 90 92  1  0  0  0  0
 91 94  1  0  0  0  0
 92210  1  0  0  0  0
 92 93  2  0  0  0  0
 93 95  1  0  0  0  0
 94 93  1  0  0  0  0
 95 96  1  0  0  0  0
 96213  1  0  0  0  0
 96215  1  0  0  0  0
 96214  1  0  0  0  0
 97 87  1  0  0  0  0
 98 99  1  0  0  0  0
 98 97  2  0  0  0  0
 99 88  1  0  0  0  0
100101  1  0  0  0  0
100 98  1  0  0  0  0
101219  1  0  0  0  0
101221  1  0  0  0  0
102103  1  0  0  0  0
102 89  1  0  0  0  0
104103  1  0  0  0  0
105104  2  0  0  0  0
105106  1  0  0  0  0
106102  2  0  0  0  0
108 74  1  0  0  0  0
109110  1  0  0  0  0
110111  2  0  0  0  0
110115  1  0  0  0  0
111117  1  0  0  0  0
112111  1  0  0  0  0
112122  1  0  0  0  0
113112  2  0  0  0  0
114109  2  0  0  0  0
114113  1  0  0  0  0
115224  1  0  0  0  0
115116  2  0  0  0  0
116104  1  0  0  0  0
117116  1  0  0  0  0
118113  1  0  0  0  0
119120  1  0  0  0  0
119118  2  0  0  0  0
120114  1  0  0  0  0
121109  1  0  0  0  0
121123  2  0  0  0  0
122127  2  0  0  0  0
123226  1  0  0  0  0
124123  1  0  0  0  0
124161  1  0  0  0  0
125124  2  0  0  0  0
126125  1  0  0  0  0
126121  1  0  0  0  0
127227  1  0  0  0  0
128127  1  0  0  0  0
128162  1  0  0  0  0
129128  2  0  0  0  0
130129  1  0  0  0  0
130122  1  0  0  0  0
131125  1  0  0  0  0
131229  1  0  0  0  0
132232  1  0  0  0  0
132131  1  0  0  0  0
133234  1  0  0  0  0
133129  1  0  0  0  0
133134  1  0  0  0  0
134237  1  0  0  0  0
135119  1  0  0  0  0
135136  1  0  0  0  0
137140  1  0  0  0  0
137136  1  0  0  0  0
138139  1  0  0  0  0
138137  2  0  0  0  0
139135  2  0  0  0  0
140145  2  0  0  0  0
141142  2  0  0  0  0
141140  1  0  0  0  0
142143  1  0  0  0  0
143156  1  0  0  0  0
143144  2  0  0  0  0
144146  1  0  0  0  0
145144  1  0  0  0  0
145148  1  0  0  0  0
146240  1  0  0  0  0
146147  2  0  0  0  0
147149  1  0  0  0  0
148147  1  0  0  0  0
149242  1  0  0  0  0
149241  1  0  0  0  0
150244  1  0  0  0  0
150149  1  0  0  0  0
151141  1  0  0  0  0
152151  2  0  0  0  0
152153  1  0  0  0  0
153142  1  0  0  0  0
154247  1  0  0  0  0
154152  1  0  0  0  0
155249  1  0  0  0  0
155154  1  0  0  0  0
156160  2  0  0  0  0
157158  1  0  0  0  0
157156  1  0  0  0  0
158159  2  0  0  0  0
159160  1  0  0  0  0
159253  1  0  0  0  0
160254  1  0  0  0  0
163  7  1  0  0  0  0
167 19  1  0  0  0  0
168 23  1  0  0  0  0
169 23  1  0  0  0  0
171 24  1  0  0  0  0
174 25  1  0  0  0  0
177 26  1  0  0  0  0
178 30  1  0  0  0  0
179 31  1  0  0  0  0
180 38  1  0  0  0  0
181 41  1  0  0  0  0
182 41  1  0  0  0  0
184 42  1  0  0  0  0
189 47  1  0  0  0  0
191 47  1  0  0  0  0
192 51  1  0  0  0  0
193 52  1  0  0  0  0
195 64  1  0  0  0  0
197 73  1  0  0  0  0
198 77  1  0  0  0  0
200 78  1  0  0  0  0
204 79  1  0  0  0  0
206 80  1  0  0  0  0
207 80  1  0  0  0  0
211 95  1  0  0  0  0
212 95  1  0  0  0  0
216 97  1  0  0  0  0
217100  1  0  0  0  0
218100  1  0  0  0  0
220101  1  0  0  0  0
222105  1  0  0  0  0
223106  1  0  0  0  0
225118  1  0  0  0  0
228131  1  0  0  0  0
230132  1  0  0  0  0
231132  1  0  0  0  0
233133  1  0  0  0  0
235134  1  0  0  0  0
236134  1  0  0  0  0
238138  1  0  0  0  0
239139  1  0  0  0  0
243150  1  0  0  0  0
245150  1  0  0  0  0
246151  1  0  0  0  0
248154  1  0  0  0  0
250155  1  0  0  0  0
251155  1  0  0  0  0
252158  1  0  0  0  0
M  END
