SCF done       -224.468978310231          0.000514998988
 OpenBabel12282109573D

138148  0  0  0  0  0  0  0  0999 V2000
    1.2809    0.4573   -0.0169 C   0  0  0  0  0  0  0  0  0  0  0  0
    1.5531   -0.9334   -0.0352 C   0  0  0  0  0  0  0  0  0  0  0  0
    0.5773   -1.9124    0.0816 C   0  0  0  0  0  0  0  0  0  0  0  0
   -0.7507   -1.4586    0.1911 C   0  0  0  0  0  0  0  0  0  0  0  0
   -1.0308   -0.0718    0.2237 C   0  0  0  0  0  0  0  0  0  0  0  0
   -0.0490    0.9106    0.1179 C   0  0  0  0  0  0  0  0  0  0  0  0
   -1.9256   -2.2436    0.2155 C   0  0  0  0  0  0  0  0  0  0  0  0
   -3.0772   -1.5119    0.2863 C   0  0  0  0  0  0  0  0  0  0  0  0
   -2.7512    0.2089    0.3328 S   0  0  0  0  0  0  0  0  0  0  0  0
    2.4723    1.2213   -0.1022 C   0  0  0  0  0  0  0  0  0  0  0  0
    3.6050    0.4657   -0.1939 C   0  0  0  0  0  0  0  0  0  0  0  0
    3.2574   -1.2518   -0.1708 S   0  0  0  0  0  0  0  0  0  0  0  0
   -0.4029    2.3150    0.1230 C   0  0  0  0  0  0  0  0  0  0  0  0
    0.8937   -3.3264    0.1027 C   0  0  0  0  0  0  0  0  0  0  0  0
   -4.4033   -2.0310    0.3254 C   0  0  0  0  0  0  0  0  0  0  0  0
    4.9617    0.8758   -0.3089 C   0  0  0  0  0  0  0  0  0  0  0  0
    6.0570    0.0472   -0.3774 C   0  0  0  0  0  0  0  0  0  0  0  0
    7.2825    0.7123   -0.4991 C   0  0  0  0  0  0  0  0  0  0  0  0
    7.1243    2.0915   -0.5276 C   0  0  0  0  0  0  0  0  0  0  0  0
    5.4387    2.5421   -0.3973 S   0  0  0  0  0  0  0  0  0  0  0  0
   -5.7991   -1.0252    0.5407 S   0  0  0  0  0  0  0  0  0  0  0  0
   -6.8610   -2.4112    0.4797 C   0  0  0  0  0  0  0  0  0  0  0  0
   -6.1448   -3.5865    0.2930 C   0  0  0  0  0  0  0  0  0  0  0  0
   -4.7673   -3.3544    0.2108 C   0  0  0  0  0  0  0  0  0  0  0  0
   -1.3722    2.9336    0.8630 C   0  0  0  0  0  0  0  0  0  0  0  0
   -1.4967    4.3086    0.5850 C   0  0  0  0  0  0  0  0  0  0  0  0
   -0.6419    4.7478   -0.3785 C   0  0  0  0  0  0  0  0  0  0  0  0
    0.3591    3.4558   -0.9522 S   0  0  0  0  0  0  0  0  0  0  0  0
    0.3965   -4.2890    0.9352 C   0  0  0  0  0  0  0  0  0  0  0  0
    0.9344   -5.5686    0.6916 C   0  0  0  0  0  0  0  0  0  0  0  0
    1.8321   -5.5922   -0.3307 C   0  0  0  0  0  0  0  0  0  0  0  0
    2.0430   -4.0119   -1.0104 S   0  0  0  0  0  0  0  0  0  0  0  0
   -0.4671    6.1289   -0.9085 C   0  0  0  0  0  0  0  0  0  0  0  0
    0.8204    6.7672   -0.3825 C   0  0  0  0  0  0  0  0  0  0  0  0
    2.6232   -6.7428   -0.8498 C   0  0  0  0  0  0  0  0  0  0  0  0
    4.0974   -6.6187   -0.4596 C   0  0  0  0  0  0  0  0  0  0  0  0
   -8.2593   -2.2116    0.6239 C   0  0  0  0  0  0  0  0  0  0  0  0
    8.1016    3.1145   -0.6430 C   0  0  0  0  0  0  0  0  0  0  0  0
   11.5363    4.9390   -0.9960 C   0  0  0  0  0  0  0  0  0  0  0  0
  -12.0938   -2.8866    0.9333 C   0  0  0  0  0  0  0  0  0  0  0  0
   12.7370    4.2482   -1.1429 C   0  0  0  0  0  0  0  0  0  0  0  0
   13.8367    5.1025   -1.2245 C   0  0  0  0  0  0  0  0  0  0  0  0
   13.5303    6.4486   -1.1501 C   0  0  0  0  0  0  0  0  0  0  0  0
   11.8056    6.6588   -0.9734 S   0  0  0  0  0  0  0  0  0  0  0  0
  -13.3485   -1.6891    1.0594 S   0  0  0  0  0  0  0  0  0  0  0  0
  -14.5977   -2.9179    1.1223 C   0  0  0  0  0  0  0  0  0  0  0  0
  -14.0219   -4.1715    1.0498 C   0  0  0  0  0  0  0  0  0  0  0  0
  -12.6309   -4.1719    0.9468 C   0  0  0  0  0  0  0  0  0  0  0  0
   14.3659    7.5839   -1.1960 C   0  0  0  0  0  0  0  0  0  0  0  0
   15.7248    7.6171   -1.3117 C   0  0  0  0  0  0  0  0  0  0  0  0
   16.5554    6.4891   -1.4079 C   0  0  0  0  0  0  0  0  0  0  0  0
   16.3953    8.9385   -1.3430 C   0  0  0  0  0  0  0  0  0  0  0  0
   17.7222    8.8055   -1.4334 O   0  0  0  0  0  0  0  0  0  0  0  0
   15.8114    9.9938   -1.2838 O   0  0  0  0  0  0  0  0  0  0  0  0
   18.4946   10.0024   -1.5019 C   0  0  0  0  0  0  0  0  0  0  0  0
   18.5634   10.5347   -2.9262 C   0  0  0  0  0  0  0  0  0  0  0  0
  -15.9312   -2.4718    1.2351 C   0  0  0  0  0  0  0  0  0  0  0  0
  -17.1239   -3.1408    1.2950 C   0  0  0  0  0  0  0  0  0  0  0  0
  -17.3980   -4.5904    1.2627 C   0  0  0  0  0  0  0  0  0  0  0  0
  -18.2791   -2.3334    1.4075 C   0  0  0  0  0  0  0  0  0  0  0  0
  -18.7218   -4.7991    1.2914 O   0  0  0  0  0  0  0  0  0  0  0  0
  -16.5879   -5.4870    1.2102 O   0  0  0  0  0  0  0  0  0  0  0  0
  -19.1699   -6.1517    1.2884 C   0  0  0  0  0  0  0  0  0  0  0  0
  -19.1238   -6.7581    2.6840 C   0  0  0  0  0  0  0  0  0  0  0  0
   17.2491    5.5768   -1.4893 N   0  0  0  0  0  0  0  0  0  0  0  0
  -19.1926   -1.6457    1.5042 N   0  0  0  0  0  0  0  0  0  0  0  0
    8.6089    0.0251   -0.5892 C   0  0  0  0  0  0  0  0  0  0  0  0
    8.5301   -1.4947   -0.5163 C   0  0  0  0  0  0  0  0  0  0  0  0
    9.7998    2.7717   -0.7895 S   0  0  0  0  0  0  0  0  0  0  0  0
   10.2035    4.4630   -0.8736 C   0  0  0  0  0  0  0  0  0  0  0  0
    9.0543    5.2276   -0.7893 C   0  0  0  0  0  0  0  0  0  0  0  0
    7.8883    4.4805   -0.6644 C   0  0  0  0  0  0  0  0  0  0  0  0
   12.9012    2.7615   -1.1757 C   0  0  0  0  0  0  0  0  0  0  0  0
   13.0015    2.1898    0.2398 C   0  0  0  0  0  0  0  0  0  0  0  0
   -6.7820   -4.9374    0.1918 C   0  0  0  0  0  0  0  0  0  0  0  0
   -5.7985   -6.0797   -0.0295 C   0  0  0  0  0  0  0  0  0  0  0  0
   -8.9183   -1.0094    0.8031 C   0  0  0  0  0  0  0  0  0  0  0  0
  -10.2973   -1.1391    0.9234 C   0  0  0  0  0  0  0  0  0  0  0  0
  -10.7463   -2.4448    0.8471 C   0  0  0  0  0  0  0  0  0  0  0  0
   -9.4002   -3.5235    0.6117 S   0  0  0  0  0  0  0  0  0  0  0  0
  -11.8592   -5.4485    0.8321 C   0  0  0  0  0  0  0  0  0  0  0  0
  -11.6116   -5.8111   -0.6334 C   0  0  0  0  0  0  0  0  0  0  0  0
   -1.9107   -3.3154    0.1573 H   0  0  0  0  0  0  0  0  0  0  0  0
    2.5046    2.2954   -0.0864 H   0  0  0  0  0  0  0  0  0  0  0  0
    5.9511   -1.0213   -0.3390 H   0  0  0  0  0  0  0  0  0  0  0  0
   -4.0432   -4.1326    0.0642 H   0  0  0  0  0  0  0  0  0  0  0  0
   -1.9558    2.4288    1.6115 H   0  0  0  0  0  0  0  0  0  0  0  0
   -2.2035    4.9497    1.0814 H   0  0  0  0  0  0  0  0  0  0  0  0
   -0.3005   -4.0774    1.7268 H   0  0  0  0  0  0  0  0  0  0  0  0
    0.6630   -6.4421    1.2581 H   0  0  0  0  0  0  0  0  0  0  0  0
   -1.3266    6.7313   -0.6071 H   0  0  0  0  0  0  0  0  0  0  0  0
   -0.4326    6.1028   -2.0006 H   0  0  0  0  0  0  0  0  0  0  0  0
    0.8024    6.8151    0.7040 H   0  0  0  0  0  0  0  0  0  0  0  0
    0.9282    7.7757   -0.7738 H   0  0  0  0  0  0  0  0  0  0  0  0
    1.6837    6.1806   -0.6888 H   0  0  0  0  0  0  0  0  0  0  0  0
    2.5442   -6.7822   -1.9391 H   0  0  0  0  0  0  0  0  0  0  0  0
    2.2094   -7.6676   -0.4423 H   0  0  0  0  0  0  0  0  0  0  0  0
    4.5173   -5.7021   -0.8678 H   0  0  0  0  0  0  0  0  0  0  0  0
    4.6626   -7.4635   -0.8448 H   0  0  0  0  0  0  0  0  0  0  0  0
    4.2012   -6.5936    0.6228 H   0  0  0  0  0  0  0  0  0  0  0  0
   14.8438    4.7456   -1.3394 H   0  0  0  0  0  0  0  0  0  0  0  0
  -14.6100   -5.0700    1.0757 H   0  0  0  0  0  0  0  0  0  0  0  0
   13.8812    8.5515   -1.1300 H   0  0  0  0  0  0  0  0  0  0  0  0
   19.4845    9.7188   -1.1388 H   0  0  0  0  0  0  0  0  0  0  0  0
   18.0509   10.7509   -0.8368 H   0  0  0  0  0  0  0  0  0  0  0  0
   18.9492    9.7676   -3.5934 H   0  0  0  0  0  0  0  0  0  0  0  0
   19.2186   11.4003   -2.9608 H   0  0  0  0  0  0  0  0  0  0  0  0
   17.5717   10.8295   -3.2613 H   0  0  0  0  0  0  0  0  0  0  0  0
  -16.0214   -1.3898    1.2787 H   0  0  0  0  0  0  0  0  0  0  0  0
  -18.5449   -6.7330    0.6014 H   0  0  0  0  0  0  0  0  0  0  0  0
  -20.1939   -6.1055    0.9130 H   0  0  0  0  0  0  0  0  0  0  0  0
  -18.0950   -6.8167    3.0314 H   0  0  0  0  0  0  0  0  0  0  0  0
  -19.5449   -7.7591    2.6599 H   0  0  0  0  0  0  0  0  0  0  0  0
  -19.6971   -6.1459    3.3761 H   0  0  0  0  0  0  0  0  0  0  0  0
    9.2500    0.3894    0.2202 H   0  0  0  0  0  0  0  0  0  0  0  0
    9.0912    0.3142   -1.5289 H   0  0  0  0  0  0  0  0  0  0  0  0
    8.0873   -1.8148    0.4237 H   0  0  0  0  0  0  0  0  0  0  0  0
    9.5313   -1.9138   -0.5817 H   0  0  0  0  0  0  0  0  0  0  0  0
    7.9399   -1.8925   -1.3382 H   0  0  0  0  0  0  0  0  0  0  0  0
    9.0767    6.3027   -0.8208 H   0  0  0  0  0  0  0  0  0  0  0  0
    6.9047    4.9088   -0.5880 H   0  0  0  0  0  0  0  0  0  0  0  0
   13.8186    2.5287   -1.7191 H   0  0  0  0  0  0  0  0  0  0  0  0
   12.0674    2.2962   -1.7038 H   0  0  0  0  0  0  0  0  0  0  0  0
   13.8584    2.6166    0.7557 H   0  0  0  0  0  0  0  0  0  0  0  0
   13.1211    1.1104    0.1999 H   0  0  0  0  0  0  0  0  0  0  0  0
   12.1056    2.4179    0.8120 H   0  0  0  0  0  0  0  0  0  0  0  0
   -7.5050   -4.9239   -0.6302 H   0  0  0  0  0  0  0  0  0  0  0  0
   -7.3495   -5.1274    1.1088 H   0  0  0  0  0  0  0  0  0  0  0  0
   -5.2440   -5.9401   -0.9545 H   0  0  0  0  0  0  0  0  0  0  0  0
   -6.3421   -7.0190   -0.0972 H   0  0  0  0  0  0  0  0  0  0  0  0
   -5.0960   -6.1523    0.7973 H   0  0  0  0  0  0  0  0  0  0  0  0
   -8.3970   -0.0694    0.8423 H   0  0  0  0  0  0  0  0  0  0  0  0
  -10.9670   -0.3096    1.0669 H   0  0  0  0  0  0  0  0  0  0  0  0
  -12.4402   -6.2440    1.3019 H   0  0  0  0  0  0  0  0  0  0  0  0
  -10.9064   -5.3679    1.3583 H   0  0  0  0  0  0  0  0  0  0  0  0
  -12.5589   -5.9393   -1.1517 H   0  0  0  0  0  0  0  0  0  0  0  0
  -11.0494   -6.7389   -0.7002 H   0  0  0  0  0  0  0  0  0  0  0  0
  -11.0475   -5.0282   -1.1345 H   0  0  0  0  0  0  0  0  0  0  0  0
  1  6  1  0  0  0  0
  2  1  2  0  0  0  0
  2  3  1  0  0  0  0
  3 14  1  0  0  0  0
  3  4  2  0  0  0  0
  4  7  1  0  0  0  0
  4  5  1  0  0  0  0
  5  9  1  0  0  0  0
  6 13  1  0  0  0  0
  6  5  2  0  0  0  0
  7  8  2  0  0  0  0
  8 15  1  0  0  0  0
  8  9  1  0  0  0  0
 10 84  1  0  0  0  0
 10  1  1  0  0  0  0
 11 12  1  0  0  0  0
 11 10  2  0  0  0  0
 12  2  1  0  0  0  0
 13 25  2  0  0  0  0
 14 29  2  0  0  0  0
 15 21  1  0  0  0  0
 16 11  1  0  0  0  0
 17 85  1  0  0  0  0
 17 16  2  0  0  0  0
 18 17  1  0  0  0  0
 19 18  2  0  0  0  0
 19 20  1  0  0  0  0
 20 16  1  0  0  0  0
 22 21  1  0  0  0  0
 22 37  1  0  0  0  0
 23 22  2  0  0  0  0
 24 23  1  0  0  0  0
 24 15  2  0  0  0  0
 25 87  1  0  0  0  0
 26 25  1  0  0  0  0
 26 88  1  0  0  0  0
 27 26  2  0  0  0  0
 28 27  1  0  0  0  0
 28 13  1  0  0  0  0
 29 89  1  0  0  0  0
 30 29  1  0  0  0  0
 30 90  1  0  0  0  0
 31 30  2  0  0  0  0
 32 31  1  0  0  0  0
 32 14  1  0  0  0  0
 33 91  1  0  0  0  0
 33 34  1  0  0  0  0
 33 27  1  0  0  0  0
 34 93  1  0  0  0  0
 35 36  1  0  0  0  0
 35 97  1  0  0  0  0
 35 31  1  0  0  0  0
 36100  1  0  0  0  0
 37 77  2  0  0  0  0
 38 19  1  0  0  0  0
 39 44  1  0  0  0  0
 39 70  1  0  0  0  0
 40 48  2  0  0  0  0
 40 45  1  0  0  0  0
 41 39  2  0  0  0  0
 42 43  2  0  0  0  0
 42 41  1  0  0  0  0
 43 44  1  0  0  0  0
 45 46  1  0  0  0  0
 46 57  1  0  0  0  0
 47102  1  0  0  0  0
 47 46  2  0  0  0  0
 48 47  1  0  0  0  0
 49 43  1  0  0  0  0
 49103  1  0  0  0  0
 50 49  2  0  0  0  0
 51 50  1  0  0  0  0
 52 50  1  0  0  0  0
 52 54  2  0  0  0  0
 53 52  1  0  0  0  0
 55 53  1  0  0  0  0
 55104  1  0  0  0  0
 55105  1  0  0  0  0
 56 55  1  0  0  0  0
 57109  1  0  0  0  0
 57 58  2  0  0  0  0
 58 60  1  0  0  0  0
 59 61  1  0  0  0  0
 59 58  1  0  0  0  0
 60 66  3  0  0  0  0
 62 59  2  0  0  0  0
 63 61  1  0  0  0  0
 63 64  1  0  0  0  0
 64112  1  0  0  0  0
 64114  1  0  0  0  0
 65 51  3  0  0  0  0
 67 68  1  0  0  0  0
 67 18  1  0  0  0  0
 67115  1  0  0  0  0
 68117  1  0  0  0  0
 69 38  1  0  0  0  0
 70 69  1  0  0  0  0
 70 71  2  0  0  0  0
 71 72  1  0  0  0  0
 72 38  2  0  0  0  0
 72121  1  0  0  0  0
 73 41  1  0  0  0  0
 73 74  1  0  0  0  0
 74124  1  0  0  0  0
 74126  1  0  0  0  0
 75 23  1  0  0  0  0
 75128  1  0  0  0  0
 76 75  1  0  0  0  0
 76131  1  0  0  0  0
 77132  1  0  0  0  0
 77 78  1  0  0  0  0
 78133  1  0  0  0  0
 79 78  2  0  0  0  0
 79 40  1  0  0  0  0
 80 37  1  0  0  0  0
 80 79  1  0  0  0  0
 81 48  1  0  0  0  0
 81134  1  0  0  0  0
 81135  1  0  0  0  0
 82 81  1  0  0  0  0
 83  7  1  0  0  0  0
 86 24  1  0  0  0  0
 92 33  1  0  0  0  0
 94 34  1  0  0  0  0
 95 34  1  0  0  0  0
 96 35  1  0  0  0  0
 98 36  1  0  0  0  0
 99 36  1  0  0  0  0
101 42  1  0  0  0  0
106 56  1  0  0  0  0
107 56  1  0  0  0  0
108 56  1  0  0  0  0
110 63  1  0  0  0  0
111 63  1  0  0  0  0
113 64  1  0  0  0  0
116 67  1  0  0  0  0
118 68  1  0  0  0  0
119 68  1  0  0  0  0
120 71  1  0  0  0  0
122 73  1  0  0  0  0
123 73  1  0  0  0  0
125 74  1  0  0  0  0
127 75  1  0  0  0  0
129 76  1  0  0  0  0
130 76  1  0  0  0  0
136 82  1  0  0  0  0
137 82  1  0  0  0  0
138 82  1  0  0  0  0
M  END
