SCF done       -230.940966454970          0.000537247092
 OpenBabel12282109573D

140150  0  0  0  0  0  0  0  0999 V2000
    1.3035    0.5902   -0.0935 C   0  0  0  0  0  0  0  0  0  0  0  0
    1.4114   -0.8141    0.0558 C   0  0  0  0  0  0  0  0  0  0  0  0
    0.3152   -1.6675    0.1124 C   0  0  0  0  0  0  0  0  0  0  0  0
   -0.9554   -1.0562    0.0726 C   0  0  0  0  0  0  0  0  0  0  0  0
   -1.0631    0.3474   -0.0751 C   0  0  0  0  0  0  0  0  0  0  0  0
    0.0336    1.1981   -0.1765 C   0  0  0  0  0  0  0  0  0  0  0  0
   -2.2240   -1.6786    0.1622 C   0  0  0  0  0  0  0  0  0  0  0  0
   -3.2716   -0.8131    0.0411 C   0  0  0  0  0  0  0  0  0  0  0  0
   -2.7328    0.8428   -0.1632 S   0  0  0  0  0  0  0  0  0  0  0  0
    2.5736    1.2127   -0.1388 C   0  0  0  0  0  0  0  0  0  0  0  0
    3.6190    0.3397   -0.0607 C   0  0  0  0  0  0  0  0  0  0  0  0
    3.0794   -1.3196    0.0957 S   0  0  0  0  0  0  0  0  0  0  0  0
   -0.1413    2.6206   -0.3759 C   0  0  0  0  0  0  0  0  0  0  0  0
    0.4506   -3.1058    0.1698 C   0  0  0  0  0  0  0  0  0  0  0  0
   -4.6618   -1.1105    0.0556 C   0  0  0  0  0  0  0  0  0  0  0  0
    5.0083    0.6374   -0.1057 C   0  0  0  0  0  0  0  0  0  0  0  0
    6.0633   -0.2397   -0.0186 C   0  0  0  0  0  0  0  0  0  0  0  0
    7.3249    0.3617   -0.1224 C   0  0  0  0  0  0  0  0  0  0  0  0
    7.2339    1.7360   -0.2951 C   0  0  0  0  0  0  0  0  0  0  0  0
    5.5689    2.2660   -0.3198 S   0  0  0  0  0  0  0  0  0  0  0  0
   -5.2336   -2.7363    0.2685 S   0  0  0  0  0  0  0  0  0  0  0  0
   -6.8946   -2.2109    0.1286 C   0  0  0  0  0  0  0  0  0  0  0  0
   -6.9760   -0.8404   -0.0701 C   0  0  0  0  0  0  0  0  0  0  0  0
   -5.7109   -0.2378   -0.1069 C   0  0  0  0  0  0  0  0  0  0  0  0
   -1.0950    3.4348    0.1692 C   0  0  0  0  0  0  0  0  0  0  0  0
   -1.0294    4.7698   -0.2687 C   0  0  0  0  0  0  0  0  0  0  0  0
   -0.0242    4.9781   -1.1689 C   0  0  0  0  0  0  0  0  0  0  0  0
    0.8683    3.5248   -1.4810 S   0  0  0  0  0  0  0  0  0  0  0  0
   -0.2747   -4.0544   -0.4994 C   0  0  0  0  0  0  0  0  0  0  0  0
    0.1275   -5.3723   -0.2303 C   0  0  0  0  0  0  0  0  0  0  0  0
    1.1659   -5.4373    0.6567 C   0  0  0  0  0  0  0  0  0  0  0  0
    1.6696   -3.8563    1.1673 S   0  0  0  0  0  0  0  0  0  0  0  0
    0.4713    6.4310   -2.0003 S   0  0  0  0  0  0  0  0  0  0  0  0
   -0.7081    7.6582   -1.3196 C   0  0  0  0  0  0  0  0  0  0  0  0
    1.9130   -6.9045    1.2288 S   0  0  0  0  0  0  0  0  0  0  0  0
    3.2454   -6.2283    2.2893 C   0  0  0  0  0  0  0  0  0  0  0  0
   -7.9191   -3.1903    0.2231 C   0  0  0  0  0  0  0  0  0  0  0  0
    8.2516    2.7132   -0.4537 C   0  0  0  0  0  0  0  0  0  0  0  0
   11.7273    4.4510   -0.8548 C   0  0  0  0  0  0  0  0  0  0  0  0
  -11.4064   -4.9525    0.2059 C   0  0  0  0  0  0  0  0  0  0  0  0
   12.9290    3.7494   -0.9100 C   0  0  0  0  0  0  0  0  0  0  0  0
   14.0328    4.5919   -1.0485 C   0  0  0  0  0  0  0  0  0  0  0  0
   13.7269    5.9391   -1.1067 C   0  0  0  0  0  0  0  0  0  0  0  0
   12.0003    6.1653   -0.9848 S   0  0  0  0  0  0  0  0  0  0  0  0
  -11.7174   -6.6046    0.6647 S   0  0  0  0  0  0  0  0  0  0  0  0
  -13.4253   -6.4254    0.3715 C   0  0  0  0  0  0  0  0  0  0  0  0
  -13.6972   -5.1508   -0.0754 C   0  0  0  0  0  0  0  0  0  0  0  0
  -12.5798   -4.3139   -0.1723 C   0  0  0  0  0  0  0  0  0  0  0  0
   14.5578    7.0709   -1.2410 C   0  0  0  0  0  0  0  0  0  0  0  0
   15.9174    7.1081   -1.3439 C   0  0  0  0  0  0  0  0  0  0  0  0
   16.7579    5.9839   -1.3323 C   0  0  0  0  0  0  0  0  0  0  0  0
   16.5713    8.4319   -1.4741 C   0  0  0  0  0  0  0  0  0  0  0  0
   17.8982    8.3116   -1.5782 O   0  0  0  0  0  0  0  0  0  0  0  0
   15.9723    9.4804   -1.4927 O   0  0  0  0  0  0  0  0  0  0  0  0
   18.6532    9.5166   -1.6891 C   0  0  0  0  0  0  0  0  0  0  0  0
   18.9192   10.1325   -0.3229 C   0  0  0  0  0  0  0  0  0  0  0  0
  -14.2827   -7.5369    0.5893 C   0  0  0  0  0  0  0  0  0  0  0  0
  -15.6362   -7.5165    0.5974 C   0  0  0  0  0  0  0  0  0  0  0  0
  -16.4759   -6.2808    0.4490 C   0  0  0  0  0  0  0  0  0  0  0  0
  -16.3792   -8.6944    0.7778 C   0  0  0  0  0  0  0  0  0  0  0  0
  -16.4152   -5.5534    1.5652 O   0  0  0  0  0  0  0  0  0  0  0  0
  -17.1191   -5.9997   -0.5260 O   0  0  0  0  0  0  0  0  0  0  0  0
  -17.1931   -4.3539    1.6039 C   0  0  0  0  0  0  0  0  0  0  0  0
  -18.6398   -4.6419    1.9740 C   0  0  0  0  0  0  0  0  0  0  0  0
   17.4576    5.0726   -1.3226 N   0  0  0  0  0  0  0  0  0  0  0  0
  -16.9996   -9.6472    0.9376 N   0  0  0  0  0  0  0  0  0  0  0  0
    8.6266   -0.3745   -0.0599 C   0  0  0  0  0  0  0  0  0  0  0  0
    8.4837   -1.8747    0.1627 C   0  0  0  0  0  0  0  0  0  0  0  0
    9.9464    2.3269   -0.4983 S   0  0  0  0  0  0  0  0  0  0  0  0
   10.3874    3.9970   -0.7271 C   0  0  0  0  0  0  0  0  0  0  0  0
    9.2521    4.7859   -0.7572 C   0  0  0  0  0  0  0  0  0  0  0  0
    8.0679    4.0748   -0.6092 C   0  0  0  0  0  0  0  0  0  0  0  0
   13.0827    2.2657   -0.7984 C   0  0  0  0  0  0  0  0  0  0  0  0
   13.1493    1.8313    0.6670 C   0  0  0  0  0  0  0  0  0  0  0  0
   -8.2718   -0.1072   -0.2266 C   0  0  0  0  0  0  0  0  0  0  0  0
   -8.1186    1.3989   -0.3962 C   0  0  0  0  0  0  0  0  0  0  0  0
   -7.7506   -4.5387    0.4723 C   0  0  0  0  0  0  0  0  0  0  0  0
   -8.9406   -5.2580    0.4923 C   0  0  0  0  0  0  0  0  0  0  0  0
  -10.0623   -4.4895    0.2496 C   0  0  0  0  0  0  0  0  0  0  0  0
   -9.6062   -2.8262    0.0073 S   0  0  0  0  0  0  0  0  0  0  0  0
  -12.7036   -2.8890   -0.6105 C   0  0  0  0  0  0  0  0  0  0  0  0
  -12.8941   -1.9624    0.5919 C   0  0  0  0  0  0  0  0  0  0  0  0
   -0.4069    9.0202   -1.9138 C   0  0  0  0  0  0  0  0  0  0  0  0
    4.0619   -7.3654    2.8696 C   0  0  0  0  0  0  0  0  0  0  0  0
   -2.3654   -2.7308    0.3310 H   0  0  0  0  0  0  0  0  0  0  0  0
    2.7243    2.2735   -0.2204 H   0  0  0  0  0  0  0  0  0  0  0  0
    5.9036   -1.2939    0.1155 H   0  0  0  0  0  0  0  0  0  0  0  0
   -5.5445    0.8136   -0.2534 H   0  0  0  0  0  0  0  0  0  0  0  0
   -1.8088    3.1004    0.8999 H   0  0  0  0  0  0  0  0  0  0  0  0
   -1.7035    5.5315    0.0762 H   0  0  0  0  0  0  0  0  0  0  0  0
   -1.0465   -3.8091   -1.2066 H   0  0  0  0  0  0  0  0  0  0  0  0
   -0.3189   -6.2442   -0.6713 H   0  0  0  0  0  0  0  0  0  0  0  0
   -0.5847    7.6644   -0.2367 H   0  0  0  0  0  0  0  0  0  0  0  0
   -1.7135    7.3274   -1.5801 H   0  0  0  0  0  0  0  0  0  0  0  0
    2.7689   -5.6391    3.0736 H   0  0  0  0  0  0  0  0  0  0  0  0
    3.8565   -5.5754    1.6649 H   0  0  0  0  0  0  0  0  0  0  0  0
   15.0418    4.2264   -1.1088 H   0  0  0  0  0  0  0  0  0  0  0  0
  -14.6796   -4.8287   -0.3690 H   0  0  0  0  0  0  0  0  0  0  0  0
   14.0648    8.0364   -1.2655 H   0  0  0  0  0  0  0  0  0  0  0  0
   18.1054   10.2220   -2.3232 H   0  0  0  0  0  0  0  0  0  0  0  0
   19.5842    9.2205   -2.1764 H   0  0  0  0  0  0  0  0  0  0  0  0
   17.9817   10.4350    0.1375 H   0  0  0  0  0  0  0  0  0  0  0  0
   19.5546   11.0063   -0.4347 H   0  0  0  0  0  0  0  0  0  0  0  0
   19.4144    9.4110    0.3228 H   0  0  0  0  0  0  0  0  0  0  0  0
  -13.7905   -8.4874    0.7575 H   0  0  0  0  0  0  0  0  0  0  0  0
  -17.1434   -3.8662    0.6242 H   0  0  0  0  0  0  0  0  0  0  0  0
  -16.7068   -3.7301    2.3568 H   0  0  0  0  0  0  0  0  0  0  0  0
  -19.1067   -5.2522    1.2047 H   0  0  0  0  0  0  0  0  0  0  0  0
  -19.1858   -3.7069    2.0616 H   0  0  0  0  0  0  0  0  0  0  0  0
  -18.6860   -5.1726    2.9218 H   0  0  0  0  0  0  0  0  0  0  0  0
    9.2336    0.0526    0.7452 H   0  0  0  0  0  0  0  0  0  0  0  0
    9.1731   -0.2000   -0.9927 H   0  0  0  0  0  0  0  0  0  0  0  0
    7.9744   -2.0796    1.1014 H   0  0  0  0  0  0  0  0  0  0  0  0
    9.4692   -2.3325    0.2022 H   0  0  0  0  0  0  0  0  0  0  0  0
    7.9263   -2.3353   -0.6493 H   0  0  0  0  0  0  0  0  0  0  0  0
    9.2978    5.8526   -0.8883 H   0  0  0  0  0  0  0  0  0  0  0  0
    7.0914    4.5254   -0.6131 H   0  0  0  0  0  0  0  0  0  0  0  0
   14.0082    1.9758   -1.2990 H   0  0  0  0  0  0  0  0  0  0  0  0
   12.2542    1.7583   -1.2954 H   0  0  0  0  0  0  0  0  0  0  0  0
   13.9942    2.3061    1.1602 H   0  0  0  0  0  0  0  0  0  0  0  0
   13.2687    0.7531    0.7329 H   0  0  0  0  0  0  0  0  0  0  0  0
   12.2400    2.1117    1.1930 H   0  0  0  0  0  0  0  0  0  0  0  0
   -8.8981   -0.3093    0.6487 H   0  0  0  0  0  0  0  0  0  0  0  0
   -8.8022   -0.5141   -1.0941 H   0  0  0  0  0  0  0  0  0  0  0  0
   -7.6199    1.8364    0.4654 H   0  0  0  0  0  0  0  0  0  0  0  0
   -9.1003    1.8567   -0.4910 H   0  0  0  0  0  0  0  0  0  0  0  0
   -7.5463    1.6317   -1.2909 H   0  0  0  0  0  0  0  0  0  0  0  0
   -6.7815   -4.9759    0.6349 H   0  0  0  0  0  0  0  0  0  0  0  0
   -8.9972   -6.3172    0.6719 H   0  0  0  0  0  0  0  0  0  0  0  0
  -13.5690   -2.8025   -1.2705 H   0  0  0  0  0  0  0  0  0  0  0  0
  -11.8185   -2.5846   -1.1714 H   0  0  0  0  0  0  0  0  0  0  0  0
  -13.7890   -2.2411    1.1440 H   0  0  0  0  0  0  0  0  0  0  0  0
  -12.9956   -0.9325    0.2599 H   0  0  0  0  0  0  0  0  0  0  0  0
  -12.0414   -2.0270    1.2633 H   0  0  0  0  0  0  0  0  0  0  0  0
    0.6080    9.3255   -1.6701 H   0  0  0  0  0  0  0  0  0  0  0  0
   -1.0997    9.7577   -1.5145 H   0  0  0  0  0  0  0  0  0  0  0  0
   -0.5087    8.9946   -2.9961 H   0  0  0  0  0  0  0  0  0  0  0  0
    3.4318   -8.0206    3.4665 H   0  0  0  0  0  0  0  0  0  0  0  0
    4.8505   -6.9657    3.5031 H   0  0  0  0  0  0  0  0  0  0  0  0
    4.5153   -7.9534    2.0750 H   0  0  0  0  0  0  0  0  0  0  0  0
  1  2  1  0  0  0  0
  2 12  1  0  0  0  0
  2  3  2  0  0  0  0
  3 14  1  0  0  0  0
  4  3  1  0  0  0  0
  4  7  1  0  0  0  0
  5  4  2  0  0  0  0
  6  1  2  0  0  0  0
  6  5  1  0  0  0  0
  7 85  1  0  0  0  0
  8 15  1  0  0  0  0
  8  7  2  0  0  0  0
  9  5  1  0  0  0  0
  9  8  1  0  0  0  0
 10  1  1  0  0  0  0
 10 11  2  0  0  0  0
 11 12  1  0  0  0  0
 13  6  1  0  0  0  0
 13 25  2  0  0  0  0
 14 32  1  0  0  0  0
 15 21  1  0  0  0  0
 16 11  1  0  0  0  0
 16 17  2  0  0  0  0
 17 87  1  0  0  0  0
 18 67  1  0  0  0  0
 18 17  1  0  0  0  0
 19 18  2  0  0  0  0
 20 19  1  0  0  0  0
 20 16  1  0  0  0  0
 22 37  1  0  0  0  0
 22 21  1  0  0  0  0
 23 22  2  0  0  0  0
 24 23  1  0  0  0  0
 24 15  2  0  0  0  0
 25 89  1  0  0  0  0
 26 90  1  0  0  0  0
 26 25  1  0  0  0  0
 27 26  2  0  0  0  0
 28 27  1  0  0  0  0
 28 13  1  0  0  0  0
 29 30  1  0  0  0  0
 29 14  2  0  0  0  0
 30 31  2  0  0  0  0
 31 32  1  0  0  0  0
 31 35  1  0  0  0  0
 33 34  1  0  0  0  0
 33 27  1  0  0  0  0
 34 93  1  0  0  0  0
 35 36  1  0  0  0  0
 36 84  1  0  0  0  0
 36 95  1  0  0  0  0
 37 77  2  0  0  0  0
 38 19  1  0  0  0  0
 39 70  1  0  0  0  0
 40 79  1  0  0  0  0
 40 45  1  0  0  0  0
 41 39  2  0  0  0  0
 41 73  1  0  0  0  0
 42 41  1  0  0  0  0
 43 42  2  0  0  0  0
 43 44  1  0  0  0  0
 44 39  1  0  0  0  0
 46 57  1  0  0  0  0
 46 45  1  0  0  0  0
 47 46  2  0  0  0  0
 48 47  1  0  0  0  0
 48 40  2  0  0  0  0
 49 43  1  0  0  0  0
 50 51  1  0  0  0  0
 50 49  2  0  0  0  0
 51 65  3  0  0  0  0
 52 50  1  0  0  0  0
 53 52  1  0  0  0  0
 54 52  2  0  0  0  0
 55 53  1  0  0  0  0
 55 56  1  0  0  0  0
 56102  1  0  0  0  0
 56104  1  0  0  0  0
 57 58  2  0  0  0  0
 57105  1  0  0  0  0
 58 60  1  0  0  0  0
 59 58  1  0  0  0  0
 59 61  1  0  0  0  0
 60 66  3  0  0  0  0
 61 63  1  0  0  0  0
 62 59  2  0  0  0  0
 63 64  1  0  0  0  0
 63107  1  0  0  0  0
 64109  1  0  0  0  0
 64110  1  0  0  0  0
 67 68  1  0  0  0  0
 67111  1  0  0  0  0
 68114  1  0  0  0  0
 68113  1  0  0  0  0
 69 38  1  0  0  0  0
 70 69  1  0  0  0  0
 71 70  2  0  0  0  0
 71 72  1  0  0  0  0
 72 38  2  0  0  0  0
 73 74  1  0  0  0  0
 74121  1  0  0  0  0
 74120  1  0  0  0  0
 74122  1  0  0  0  0
 75 23  1  0  0  0  0
 75123  1  0  0  0  0
 76 75  1  0  0  0  0
 76125  1  0  0  0  0
 77 78  1  0  0  0  0
 77128  1  0  0  0  0
 78129  1  0  0  0  0
 79 78  2  0  0  0  0
 80 37  1  0  0  0  0
 80 79  1  0  0  0  0
 81 48  1  0  0  0  0
 81 82  1  0  0  0  0
 82132  1  0  0  0  0
 82134  1  0  0  0  0
 83135  1  0  0  0  0
 83136  1  0  0  0  0
 83 34  1  0  0  0  0
 84138  1  0  0  0  0
 84139  1  0  0  0  0
 86 10  1  0  0  0  0
 88 24  1  0  0  0  0
 91 29  1  0  0  0  0
 92 30  1  0  0  0  0
 94 34  1  0  0  0  0
 96 36  1  0  0  0  0
 97 42  1  0  0  0  0
 98 47  1  0  0  0  0
 99 49  1  0  0  0  0
100 55  1  0  0  0  0
101 55  1  0  0  0  0
103 56  1  0  0  0  0
106 63  1  0  0  0  0
108 64  1  0  0  0  0
112 67  1  0  0  0  0
115 68  1  0  0  0  0
116 71  1  0  0  0  0
117 72  1  0  0  0  0
118 73  1  0  0  0  0
119 73  1  0  0  0  0
124 75  1  0  0  0  0
126 76  1  0  0  0  0
127 76  1  0  0  0  0
130 81  1  0  0  0  0
131 81  1  0  0  0  0
133 82  1  0  0  0  0
137 83  1  0  0  0  0
140 84  1  0  0  0  0
M  END
