SCF done       -440.588278977631          0.000840740152
 OpenBabel12282109573D

242265  0  0  0  0  0  0  0  0999 V2000
   -0.6941    5.3755   -3.6879 C   0  0  0  0  0  0  0  0  0  0  0  0
   -2.0306    5.7190   -3.9630 C   0  0  0  0  0  0  0  0  0  0  0  0
   -2.3843    7.0721   -4.1812 C   0  0  0  0  0  0  0  0  0  0  0  0
   -1.4715    8.1208   -4.1215 C   0  0  0  0  0  0  0  0  0  0  0  0
   -0.1452    7.7814   -3.7985 C   0  0  0  0  0  0  0  0  0  0  0  0
    0.2102    6.4284   -3.5866 C   0  0  0  0  0  0  0  0  0  0  0  0
   -3.1535    4.8579   -4.0553 C   0  0  0  0  0  0  0  0  0  0  0  0
   -4.3116    5.4994   -4.3770 C   0  0  0  0  0  0  0  0  0  0  0  0
   -4.0776    7.2259   -4.5665 S   0  0  0  0  0  0  0  0  0  0  0  0
    0.9746    8.6477   -3.6272 C   0  0  0  0  0  0  0  0  0  0  0  0
    2.1119    7.9858   -3.3347 C   0  0  0  0  0  0  0  0  0  0  0  0
    1.9100    6.2726   -3.2350 S   0  0  0  0  0  0  0  0  0  0  0  0
   -0.2918    3.9896   -3.5550 C   0  0  0  0  0  0  0  0  0  0  0  0
   -1.8901    9.4827   -4.3927 C   0  0  0  0  0  0  0  0  0  0  0  0
   -0.6726    2.9322   -4.3322 C   0  0  0  0  0  0  0  0  0  0  0  0
   -0.0649    1.7303   -3.9215 C   0  0  0  0  0  0  0  0  0  0  0  0
    0.7613    1.8325   -2.8421 C   0  0  0  0  0  0  0  0  0  0  0  0
    0.8142    3.4779   -2.3108 S   0  0  0  0  0  0  0  0  0  0  0  0
   -3.0486   10.0935   -4.0049 C   0  0  0  0  0  0  0  0  0  0  0  0
   -3.1418   11.4111   -4.4936 C   0  0  0  0  0  0  0  0  0  0  0  0
   -2.0955   11.8267   -5.2616 C   0  0  0  0  0  0  0  0  0  0  0  0
   -0.9326   10.5515   -5.3825 S   0  0  0  0  0  0  0  0  0  0  0  0
    1.5687    0.7655   -2.1880 C   0  0  0  0  0  0  0  0  0  0  0  0
    3.0651    0.9781   -2.4246 C   0  0  0  0  0  0  0  0  0  0  0  0
   -1.8821   13.1564   -5.8979 C   0  0  0  0  0  0  0  0  0  0  0  0
   -0.7123   13.9039   -5.2565 C   0  0  0  0  0  0  0  0  0  0  0  0
   -5.6059    4.9291   -4.5565 C   0  0  0  0  0  0  0  0  0  0  0  0
   -6.7460    5.5392   -5.0227 C   0  0  0  0  0  0  0  0  0  0  0  0
   -7.8412    4.6724   -5.1026 C   0  0  0  0  0  0  0  0  0  0  0  0
   -7.5540    3.3974   -4.6828 C   0  0  0  0  0  0  0  0  0  0  0  0
   -5.8966    3.2581   -4.1828 S   0  0  0  0  0  0  0  0  0  0  0  0
   -0.2901    0.5637   -4.5550 F   0  0  0  0  0  0  0  0  0  0  0  0
   -4.1962   12.2015   -4.2205 F   0  0  0  0  0  0  0  0  0  0  0  0
   -8.4608    2.2660   -4.6282 C   0  0  0  0  0  0  0  0  0  0  0  0
   -8.4513    1.3858   -3.5474 C   0  0  0  0  0  0  0  0  0  0  0  0
   -9.3407    0.3331   -3.4604 C   0  0  0  0  0  0  0  0  0  0  0  0
  -10.3119    0.1034   -4.4414 C   0  0  0  0  0  0  0  0  0  0  0  0
  -10.3066    0.9735   -5.5606 C   0  0  0  0  0  0  0  0  0  0  0  0
   -9.3820    2.0173   -5.6607 C   0  0  0  0  0  0  0  0  0  0  0  0
   -7.5716    1.5691   -2.5450 F   0  0  0  0  0  0  0  0  0  0  0  0
   -9.2413   -0.4687   -2.3850 F   0  0  0  0  0  0  0  0  0  0  0  0
   -9.3731    2.7936   -6.8004 O   0  0  0  0  0  0  0  0  0  0  0  0
   -8.2480    2.6060   -7.6547 C   0  0  0  0  0  0  0  0  0  0  0  0
   -8.1250    1.1807   -8.1786 C   0  0  0  0  0  0  0  0  0  0  0  0
  -11.2104    0.6895   -6.5270 O   0  0  0  0  0  0  0  0  0  0  0  0
  -11.8199    1.7189   -7.3006 C   0  0  0  0  0  0  0  0  0  0  0  0
  -13.2131    1.2440   -7.6849 C   0  0  0  0  0  0  0  0  0  0  0  0
  -11.2653   -0.9747   -4.3457 C   0  0  0  0  0  0  0  0  0  0  0  0
  -11.5455   -1.7930   -3.2701 C   0  0  0  0  0  0  0  0  0  0  0  0
  -12.5281   -2.7489   -3.5317 C   0  0  0  0  0  0  0  0  0  0  0  0
  -13.0131   -2.6862   -4.8174 C   0  0  0  0  0  0  0  0  0  0  0  0
  -12.2560   -1.4033   -5.7074 S   0  0  0  0  0  0  0  0  0  0  0  0
  -16.5692   -6.3132   -6.1106 C   0  0  0  0  0  0  0  0  0  0  0  0
  -17.1816   -6.5135   -7.3639 C   0  0  0  0  0  0  0  0  0  0  0  0
  -16.8420   -5.6830   -8.4599 C   0  0  0  0  0  0  0  0  0  0  0  0
  -15.9317   -4.6343   -8.3721 C   0  0  0  0  0  0  0  0  0  0  0  0
  -15.3435   -4.4173   -7.1105 C   0  0  0  0  0  0  0  0  0  0  0  0
  -15.6727   -5.2563   -6.0168 C   0  0  0  0  0  0  0  0  0  0  0  0
  -18.1460   -7.4888   -7.7188 C   0  0  0  0  0  0  0  0  0  0  0  0
  -18.5009   -7.4557   -9.0363 C   0  0  0  0  0  0  0  0  0  0  0  0
  -17.6716   -6.1836   -9.9070 S   0  0  0  0  0  0  0  0  0  0  0  0
  -14.4042   -3.4261   -6.7426 C   0  0  0  0  0  0  0  0  0  0  0  0
  -13.9855   -3.5122   -5.4473 C   0  0  0  0  0  0  0  0  0  0  0  0
  -14.7676   -4.8232   -4.5902 S   0  0  0  0  0  0  0  0  0  0  0  0
  -16.8484   -7.1914   -4.9912 C   0  0  0  0  0  0  0  0  0  0  0  0
  -15.6082   -3.8249   -9.5299 C   0  0  0  0  0  0  0  0  0  0  0  0
  -16.9407   -8.5540   -4.9943 C   0  0  0  0  0  0  0  0  0  0  0  0
  -17.2213   -9.0661   -3.7124 C   0  0  0  0  0  0  0  0  0  0  0  0
  -17.3589   -8.1342   -2.7277 C   0  0  0  0  0  0  0  0  0  0  0  0
  -17.1208   -6.5546   -3.3930 S   0  0  0  0  0  0  0  0  0  0  0  0
  -16.4537   -3.3935  -10.5129 C   0  0  0  0  0  0  0  0  0  0  0  0
  -15.7834   -2.6429  -11.4979 C   0  0  0  0  0  0  0  0  0  0  0  0
  -14.4408   -2.4990  -11.3124 C   0  0  0  0  0  0  0  0  0  0  0  0
  -13.9745   -3.3103   -9.8578 S   0  0  0  0  0  0  0  0  0  0  0  0
  -17.6299   -8.3478   -1.2788 C   0  0  0  0  0  0  0  0  0  0  0  0
  -16.4385   -7.9206   -0.4208 C   0  0  0  0  0  0  0  0  0  0  0  0
  -13.4604   -1.7497  -12.1471 C   0  0  0  0  0  0  0  0  0  0  0  0
  -12.8343   -0.5907  -11.3703 C   0  0  0  0  0  0  0  0  0  0  0  0
  -19.4212   -8.3073   -9.7176 C   0  0  0  0  0  0  0  0  0  0  0  0
  -20.3454   -9.1701   -9.1715 C   0  0  0  0  0  0  0  0  0  0  0  0
  -21.0812   -9.8668  -10.1312 C   0  0  0  0  0  0  0  0  0  0  0  0
  -20.7319   -9.5600  -11.4286 C   0  0  0  0  0  0  0  0  0  0  0  0
  -19.4767   -8.3533  -11.4469 S   0  0  0  0  0  0  0  0  0  0  0  0
  -17.3515  -10.3876   -3.4844 F   0  0  0  0  0  0  0  0  0  0  0  0
  -16.4286   -2.1003  -12.5465 F   0  0  0  0  0  0  0  0  0  0  0  0
  -21.2417  -10.1186  -12.6597 C   0  0  0  0  0  0  0  0  0  0  0  0
  -21.0480   -9.4740  -13.8856 C   0  0  0  0  0  0  0  0  0  0  0  0
  -21.4765  -10.0127  -15.0814 C   0  0  0  0  0  0  0  0  0  0  0  0
  -22.1741  -11.2221  -15.1387 C   0  0  0  0  0  0  0  0  0  0  0  0
  -22.4517  -11.8456  -13.9050 C   0  0  0  0  0  0  0  0  0  0  0  0
  -21.9487  -11.3454  -12.6988 C   0  0  0  0  0  0  0  0  0  0  0  0
  -20.4078   -8.2913  -13.9334 F   0  0  0  0  0  0  0  0  0  0  0  0
  -21.1943   -9.3377  -16.2125 F   0  0  0  0  0  0  0  0  0  0  0  0
  -22.1359  -11.9932  -11.5237 O   0  0  0  0  0  0  0  0  0  0  0  0
  -22.0395  -13.4156  -11.4760 C   0  0  0  0  0  0  0  0  0  0  0  0
  -21.3651  -13.7872  -10.1628 C   0  0  0  0  0  0  0  0  0  0  0  0
  -23.2485  -12.9724  -13.8584 O   0  0  0  0  0  0  0  0  0  0  0  0
  -24.6377  -12.7192  -14.0513 C   0  0  0  0  0  0  0  0  0  0  0  0
  -25.2510  -11.8775  -12.9393 C   0  0  0  0  0  0  0  0  0  0  0  0
  -22.5705  -11.8051  -16.4012 C   0  0  0  0  0  0  0  0  0  0  0  0
  -22.8246  -13.1305  -16.6779 C   0  0  0  0  0  0  0  0  0  0  0  0
  -23.1648  -13.3672  -18.0110 C   0  0  0  0  0  0  0  0  0  0  0  0
  -23.1718  -12.2257  -18.7788 C   0  0  0  0  0  0  0  0  0  0  0  0
  -22.7423  -10.8357  -17.8363 S   0  0  0  0  0  0  0  0  0  0  0  0
  -24.5332  -12.9362  -23.7850 C   0  0  0  0  0  0  0  0  0  0  0  0
  -24.5072  -11.9944  -24.8326 C   0  0  0  0  0  0  0  0  0  0  0  0
  -24.0599  -10.6733  -24.5873 C   0  0  0  0  0  0  0  0  0  0  0  0
  -23.6154  -10.2323  -23.3451 C   0  0  0  0  0  0  0  0  0  0  0  0
  -23.6393  -11.1763  -22.2995 C   0  0  0  0  0  0  0  0  0  0  0  0
  -24.0790  -12.5004  -22.5461 C   0  0  0  0  0  0  0  0  0  0  0  0
  -24.8259  -12.1992  -26.1978 C   0  0  0  0  0  0  0  0  0  0  0  0
  -24.6511  -11.0924  -26.9747 C   0  0  0  0  0  0  0  0  0  0  0  0
  -24.0782   -9.7209  -26.0465 S   0  0  0  0  0  0  0  0  0  0  0  0
  -23.3053  -10.9799  -20.9382 C   0  0  0  0  0  0  0  0  0  0  0  0
  -23.4483  -12.0971  -20.1697 C   0  0  0  0  0  0  0  0  0  0  0  0
  -24.0252  -13.4665  -21.0964 S   0  0  0  0  0  0  0  0  0  0  0  0
  -25.0263  -14.2821  -24.0003 C   0  0  0  0  0  0  0  0  0  0  0  0
  -23.1282   -8.8804  -23.1618 C   0  0  0  0  0  0  0  0  0  0  0  0
  -26.1333  -14.6678  -24.7014 C   0  0  0  0  0  0  0  0  0  0  0  0
  -26.3046  -16.0658  -24.6890 C   0  0  0  0  0  0  0  0  0  0  0  0
  -25.3579  -16.7647  -24.0011 C   0  0  0  0  0  0  0  0  0  0  0  0
  -24.2019  -15.6644  -23.3324 S   0  0  0  0  0  0  0  0  0  0  0  0
  -23.6105   -7.7300  -23.7201 C   0  0  0  0  0  0  0  0  0  0  0  0
  -22.8483   -6.6044  -23.3534 C   0  0  0  0  0  0  0  0  0  0  0  0
  -21.7805   -6.8569  -22.5444 C   0  0  0  0  0  0  0  0  0  0  0  0
  -21.7099   -8.5500  -22.2024 S   0  0  0  0  0  0  0  0  0  0  0  0
  -25.2383  -18.2393  -23.8287 C   0  0  0  0  0  0  0  0  0  0  0  0
  -24.0315  -18.7953  -24.5860 C   0  0  0  0  0  0  0  0  0  0  0  0
  -20.8059   -5.8940  -21.9606 C   0  0  0  0  0  0  0  0  0  0  0  0
  -20.9365   -5.8210  -20.4384 C   0  0  0  0  0  0  0  0  0  0  0  0
  -24.8839  -10.9571  -28.3734 C   0  0  0  0  0  0  0  0  0  0  0  0
  -24.6967   -9.8427  -29.1577 C   0  0  0  0  0  0  0  0  0  0  0  0
  -25.0227  -10.0532  -30.4996 C   0  0  0  0  0  0  0  0  0  0  0  0
  -25.4693  -11.3278  -30.7593 C   0  0  0  0  0  0  0  0  0  0  0  0
  -25.4924  -12.2861  -29.3094 S   0  0  0  0  0  0  0  0  0  0  0  0
  -27.3404  -16.6648  -25.3046 F   0  0  0  0  0  0  0  0  0  0  0  0
  -23.1553   -5.3649  -23.7797 F   0  0  0  0  0  0  0  0  0  0  0  0
  -25.9058  -11.8595  -32.0337 C   0  0  0  0  0  0  0  0  0  0  0  0
  -26.9084  -12.8260  -32.1151 C   0  0  0  0  0  0  0  0  0  0  0  0
  -27.3758  -13.2934  -33.3278 C   0  0  0  0  0  0  0  0  0  0  0  0
  -26.9020  -12.7985  -34.5474 C   0  0  0  0  0  0  0  0  0  0  0  0
  -25.8642  -11.8372  -34.4768 C   0  0  0  0  0  0  0  0  0  0  0  0
  -25.3499  -11.4140  -33.2478 C   0  0  0  0  0  0  0  0  0  0  0  0
  -27.4598  -13.3178  -30.9890 F   0  0  0  0  0  0  0  0  0  0  0  0
  -28.3270  -14.2444  -33.2874 F   0  0  0  0  0  0  0  0  0  0  0  0
  -24.2664  -10.5586  -33.2432 O   0  0  0  0  0  0  0  0  0  0  0  0
  -23.0385  -11.1545  -32.8348 C   0  0  0  0  0  0  0  0  0  0  0  0
  -22.5788  -12.2712  -33.7639 C   0  0  0  0  0  0  0  0  0  0  0  0
  -25.3793  -11.3973  -35.6622 O   0  0  0  0  0  0  0  0  0  0  0  0
  -24.9560  -10.0456  -35.8149 C   0  0  0  0  0  0  0  0  0  0  0  0
  -25.2920   -9.6058  -37.2320 C   0  0  0  0  0  0  0  0  0  0  0  0
  -27.4255  -13.2434  -35.8180 C   0  0  0  0  0  0  0  0  0  0  0  0
  -28.5247  -14.0320  -36.0682 C   0  0  0  0  0  0  0  0  0  0  0  0
  -28.7482  -14.2631  -37.4349 C   0  0  0  0  0  0  0  0  0  0  0  0
  -27.8193  -13.6605  -38.2246 C   0  0  0  0  0  0  0  0  0  0  0  0
  -26.6641  -12.7825  -37.3148 S   0  0  0  0  0  0  0  0  0  0  0  0
   -3.1124    3.8001   -3.8695 H   0  0  0  0  0  0  0  0  0  0  0  0
    0.9196    9.7168   -3.7117 H   0  0  0  0  0  0  0  0  0  0  0  0
    3.0859    8.3979   -3.1574 H   0  0  0  0  0  0  0  0  0  0  0  0
   -1.3179    3.0037   -5.1879 H   0  0  0  0  0  0  0  0  0  0  0  0
   -3.7930    9.6498   -3.3710 H   0  0  0  0  0  0  0  0  0  0  0  0
    1.2608   -0.1986   -2.5983 H   0  0  0  0  0  0  0  0  0  0  0  0
    1.3703    0.7628   -1.1131 H   0  0  0  0  0  0  0  0  0  0  0  0
    3.2864    0.9647   -3.4895 H   0  0  0  0  0  0  0  0  0  0  0  0
    3.6366    0.1903   -1.9409 H   0  0  0  0  0  0  0  0  0  0  0  0
    3.3777    1.9374   -2.0179 H   0  0  0  0  0  0  0  0  0  0  0  0
   -2.7995   13.7386   -5.7884 H   0  0  0  0  0  0  0  0  0  0  0  0
   -1.6832   13.0243   -6.9647 H   0  0  0  0  0  0  0  0  0  0  0  0
   -0.8972   14.0584   -4.1959 H   0  0  0  0  0  0  0  0  0  0  0  0
   -0.5814   14.8729   -5.7308 H   0  0  0  0  0  0  0  0  0  0  0  0
    0.2066   13.3327   -5.3697 H   0  0  0  0  0  0  0  0  0  0  0  0
   -6.7765    6.5780   -5.2994 H   0  0  0  0  0  0  0  0  0  0  0  0
   -8.8165    4.9637   -5.4475 H   0  0  0  0  0  0  0  0  0  0  0  0
   -7.3249    2.8917   -7.1363 H   0  0  0  0  0  0  0  0  0  0  0  0
   -8.4223    3.3072   -8.4737 H   0  0  0  0  0  0  0  0  0  0  0  0
   -7.9407    0.4893   -7.3583 H   0  0  0  0  0  0  0  0  0  0  0  0
   -7.2939    1.1245   -8.8759 H   0  0  0  0  0  0  0  0  0  0  0  0
   -9.0349    0.8755   -8.6899 H   0  0  0  0  0  0  0  0  0  0  0  0
  -11.2257    1.9062   -8.2010 H   0  0  0  0  0  0  0  0  0  0  0  0
  -11.8698    2.6437   -6.7184 H   0  0  0  0  0  0  0  0  0  0  0  0
  -13.1462    0.3032   -8.2234 H   0  0  0  0  0  0  0  0  0  0  0  0
  -13.6889    1.9870   -8.3184 H   0  0  0  0  0  0  0  0  0  0  0  0
  -13.8196    1.0902   -6.7968 H   0  0  0  0  0  0  0  0  0  0  0  0
  -11.0659   -1.7100   -2.3138 H   0  0  0  0  0  0  0  0  0  0  0  0
  -12.8721   -3.4692   -2.8104 H   0  0  0  0  0  0  0  0  0  0  0  0
  -18.5639   -8.1878   -7.0191 H   0  0  0  0  0  0  0  0  0  0  0  0
  -14.0379   -2.6629   -7.4035 H   0  0  0  0  0  0  0  0  0  0  0  0
  -16.7722   -9.1754   -5.8542 H   0  0  0  0  0  0  0  0  0  0  0  0
  -17.5139   -3.5625  -10.5284 H   0  0  0  0  0  0  0  0  0  0  0  0
  -17.8417   -9.4077   -1.1216 H   0  0  0  0  0  0  0  0  0  0  0  0
  -18.5113   -7.7729   -0.9823 H   0  0  0  0  0  0  0  0  0  0  0  0
  -15.5544   -8.4954   -0.6866 H   0  0  0  0  0  0  0  0  0  0  0  0
  -16.6563   -8.0844    0.6313 H   0  0  0  0  0  0  0  0  0  0  0  0
  -16.2243   -6.8652   -0.5740 H   0  0  0  0  0  0  0  0  0  0  0  0
  -13.9814   -1.3709  -13.0289 H   0  0  0  0  0  0  0  0  0  0  0  0
  -12.6697   -2.4274  -12.4809 H   0  0  0  0  0  0  0  0  0  0  0  0
  -13.6037    0.1033  -11.0392 H   0  0  0  0  0  0  0  0  0  0  0  0
  -12.1308   -0.0540  -12.0015 H   0  0  0  0  0  0  0  0  0  0  0  0
  -12.3040   -0.9669  -10.4978 H   0  0  0  0  0  0  0  0  0  0  0  0
  -20.4938   -9.2815   -8.1129 H   0  0  0  0  0  0  0  0  0  0  0  0
  -21.8585  -10.5635   -9.8864 H   0  0  0  0  0  0  0  0  0  0  0  0
  -21.4560  -13.7806  -12.3259 H   0  0  0  0  0  0  0  0  0  0  0  0
  -23.0403  -13.8571  -11.5275 H   0  0  0  0  0  0  0  0  0  0  0  0
  -20.3757  -13.3406  -10.1090 H   0  0  0  0  0  0  0  0  0  0  0  0
  -21.2739  -14.8672  -10.0916 H   0  0  0  0  0  0  0  0  0  0  0  0
  -21.9541  -13.4256   -9.3243 H   0  0  0  0  0  0  0  0  0  0  0  0
  -25.0880  -13.7142  -14.0747 H   0  0  0  0  0  0  0  0  0  0  0  0
  -24.8014  -12.2334  -15.0212 H   0  0  0  0  0  0  0  0  0  0  0  0
  -25.0856  -12.3429  -11.9709 H   0  0  0  0  0  0  0  0  0  0  0  0
  -26.3202  -11.7829  -13.1069 H   0  0  0  0  0  0  0  0  0  0  0  0
  -24.8087  -10.8833  -12.9252 H   0  0  0  0  0  0  0  0  0  0  0  0
  -22.7486  -13.9045  -15.9369 H   0  0  0  0  0  0  0  0  0  0  0  0
  -23.3902  -14.3388  -18.4135 H   0  0  0  0  0  0  0  0  0  0  0  0
  -25.1491  -13.1407  -26.6029 H   0  0  0  0  0  0  0  0  0  0  0  0
  -22.9749  -10.0445  -20.5258 H   0  0  0  0  0  0  0  0  0  0  0  0
  -26.8242  -13.9942  -25.1733 H   0  0  0  0  0  0  0  0  0  0  0  0
  -24.4892   -7.6676  -24.3339 H   0  0  0  0  0  0  0  0  0  0  0  0
  -26.1548  -18.7032  -24.1996 H   0  0  0  0  0  0  0  0  0  0  0  0
  -25.1369  -18.4753  -22.7663 H   0  0  0  0  0  0  0  0  0  0  0  0
  -24.1239  -18.5894  -25.6499 H   0  0  0  0  0  0  0  0  0  0  0  0
  -23.9641  -19.8708  -24.4451 H   0  0  0  0  0  0  0  0  0  0  0  0
  -23.1149  -18.3364  -24.2219 H   0  0  0  0  0  0  0  0  0  0  0  0
  -20.9917   -4.9109  -22.3986 H   0  0  0  0  0  0  0  0  0  0  0  0
  -19.7888   -6.1997  -22.2202 H   0  0  0  0  0  0  0  0  0  0  0  0
  -21.9381   -5.5036  -20.1580 H   0  0  0  0  0  0  0  0  0  0  0  0
  -20.2217   -5.1087  -20.0355 H   0  0  0  0  0  0  0  0  0  0  0  0
  -20.7448   -6.7952  -19.9941 H   0  0  0  0  0  0  0  0  0  0  0  0
  -24.3376   -8.9089  -28.7628 H   0  0  0  0  0  0  0  0  0  0  0  0
  -24.9473   -9.2982  -31.2604 H   0  0  0  0  0  0  0  0  0  0  0  0
  -23.1244  -11.5355  -31.8097 H   0  0  0  0  0  0  0  0  0  0  0  0
  -22.3272  -10.3256  -32.8436 H   0  0  0  0  0  0  0  0  0  0  0  0
  -23.2846  -13.0994  -33.7420 H   0  0  0  0  0  0  0  0  0  0  0  0
  -21.6064  -12.6317  -33.4405 H   0  0  0  0  0  0  0  0  0  0  0  0
  -22.4994  -11.9126  -34.7871 H   0  0  0  0  0  0  0  0  0  0  0  0
  -23.8762   -9.9774  -35.6453 H   0  0  0  0  0  0  0  0  0  0  0  0
  -25.4629   -9.4105  -35.0824 H   0  0  0  0  0  0  0  0  0  0  0  0
  -24.8091  -10.2646  -37.9479 H   0  0  0  0  0  0  0  0  0  0  0  0
  -24.9452   -8.5884  -37.3891 H   0  0  0  0  0  0  0  0  0  0  0  0
  -26.3652   -9.6471  -37.3959 H   0  0  0  0  0  0  0  0  0  0  0  0
  -29.1658  -14.4326  -35.3071 H   0  0  0  0  0  0  0  0  0  0  0  0
  -29.5648  -14.8544  -37.8090 H   0  0  0  0  0  0  0  0  0  0  0  0
  -27.7546  -13.6713  -39.2947 H   0  0  0  0  0  0  0  0  0  0  0  0
  1  6  1  0  0  0  0
  1 13  1  0  0  0  0
  2  1  2  0  0  0  0
  3  4  2  0  0  0  0
  3  2  1  0  0  0  0
  4  5  1  0  0  0  0
  5 10  1  0  0  0  0
  5  6  2  0  0  0  0
  6 12  1  0  0  0  0
  7  2  1  0  0  0  0
  7157  1  0  0  0  0
  8  7  2  0  0  0  0
  9  8  1  0  0  0  0
  9  3  1  0  0  0  0
 10 11  2  0  0  0  0
 11 12  1  0  0  0  0
 11159  1  0  0  0  0
 13 18  1  0  0  0  0
 14  4  1  0  0  0  0
 14 19  2  0  0  0  0
 15 16  1  0  0  0  0
 15 13  2  0  0  0  0
 16 17  2  0  0  0  0
 17 18  1  0  0  0  0
 17 23  1  0  0  0  0
 19161  1  0  0  0  0
 20 33  1  0  0  0  0
 20 19  1  0  0  0  0
 21 20  2  0  0  0  0
 22 21  1  0  0  0  0
 22 14  1  0  0  0  0
 23163  1  0  0  0  0
 24 23  1  0  0  0  0
 24166  1  0  0  0  0
 24165  1  0  0  0  0
 25167  1  0  0  0  0
 25 21  1  0  0  0  0
 25 26  1  0  0  0  0
 26169  1  0  0  0  0
 27  8  1  0  0  0  0
 27 31  1  0  0  0  0
 28 27  2  0  0  0  0
 29 28  1  0  0  0  0
 29 30  2  0  0  0  0
 30 34  1  0  0  0  0
 30 31  1  0  0  0  0
 32 16  1  0  0  0  0
 34 35  2  0  0  0  0
 35 36  1  0  0  0  0
 35 40  1  0  0  0  0
 36 41  1  0  0  0  0
 37 48  1  0  0  0  0
 37 36  2  0  0  0  0
 38 37  1  0  0  0  0
 39 38  2  0  0  0  0
 39 34  1  0  0  0  0
 42 39  1  0  0  0  0
 43174  1  0  0  0  0
 43 42  1  0  0  0  0
 44 43  1  0  0  0  0
 44176  1  0  0  0  0
 45 38  1  0  0  0  0
 46180  1  0  0  0  0
 46 45  1  0  0  0  0
 47 46  1  0  0  0  0
 47183  1  0  0  0  0
 48 49  2  0  0  0  0
 49184  1  0  0  0  0
 50 49  1  0  0  0  0
 50185  1  0  0  0  0
 51 50  2  0  0  0  0
 52 51  1  0  0  0  0
 52 48  1  0  0  0  0
 53 58  1  0  0  0  0
 53 65  1  0  0  0  0
 54 53  2  0  0  0  0
 55 56  2  0  0  0  0
 55 54  1  0  0  0  0
 56 57  1  0  0  0  0
 57 62  1  0  0  0  0
 57 58  2  0  0  0  0
 58 64  1  0  0  0  0
 59 54  1  0  0  0  0
 59186  1  0  0  0  0
 60 59  2  0  0  0  0
 61 60  1  0  0  0  0
 61 55  1  0  0  0  0
 62 63  2  0  0  0  0
 63 51  1  0  0  0  0
 63 64  1  0  0  0  0
 65 70  1  0  0  0  0
 66 56  1  0  0  0  0
 67 65  2  0  0  0  0
 67 68  1  0  0  0  0
 68 84  1  0  0  0  0
 68 69  2  0  0  0  0
 69 75  1  0  0  0  0
 70 69  1  0  0  0  0
 71 66  2  0  0  0  0
 72 73  2  0  0  0  0
 72 71  1  0  0  0  0
 73 74  1  0  0  0  0
 74 66  1  0  0  0  0
 75190  1  0  0  0  0
 75191  1  0  0  0  0
 75 76  1  0  0  0  0
 76193  1  0  0  0  0
 77 78  1  0  0  0  0
 77 73  1  0  0  0  0
 78197  1  0  0  0  0
 78199  1  0  0  0  0
 79 80  2  0  0  0  0
 79 60  1  0  0  0  0
 80200  1  0  0  0  0
 81201  1  0  0  0  0
 81 80  1  0  0  0  0
 82 81  2  0  0  0  0
 83 82  1  0  0  0  0
 83 79  1  0  0  0  0
 85 72  1  0  0  0  0
 86 82  1  0  0  0  0
 87 86  2  0  0  0  0
 88 87  1  0  0  0  0
 89 88  2  0  0  0  0
 89 90  1  0  0  0  0
 90 97  1  0  0  0  0
 90 91  2  0  0  0  0
 91 86  1  0  0  0  0
 91 94  1  0  0  0  0
 92 87  1  0  0  0  0
 93 88  1  0  0  0  0
 94 95  1  0  0  0  0
 95 96  1  0  0  0  0
 96204  1  0  0  0  0
 96205  1  0  0  0  0
 96206  1  0  0  0  0
 98 97  1  0  0  0  0
 98 99  1  0  0  0  0
 99211  1  0  0  0  0
 99209  1  0  0  0  0
100 89  1  0  0  0  0
101100  2  0  0  0  0
101212  1  0  0  0  0
102101  1  0  0  0  0
103102  2  0  0  0  0
103104  1  0  0  0  0
104100  1  0  0  0  0
105110  2  0  0  0  0
106107  2  0  0  0  0
106105  1  0  0  0  0
107108  1  0  0  0  0
108118  1  0  0  0  0
108109  2  0  0  0  0
109114  1  0  0  0  0
110109  1  0  0  0  0
110116  1  0  0  0  0
111106  1  0  0  0  0
112111  2  0  0  0  0
112113  1  0  0  0  0
113107  1  0  0  0  0
114215  1  0  0  0  0
114115  2  0  0  0  0
115103  1  0  0  0  0
116115  1  0  0  0  0
117105  1  0  0  0  0
117122  1  0  0  0  0
118126  1  0  0  0  0
119120  1  0  0  0  0
119117  2  0  0  0  0
120121  2  0  0  0  0
121127  1  0  0  0  0
121122  1  0  0  0  0
123124  1  0  0  0  0
123118  2  0  0  0  0
124125  2  0  0  0  0
125126  1  0  0  0  0
125129  1  0  0  0  0
127219  1  0  0  0  0
128221  1  0  0  0  0
128222  1  0  0  0  0
128127  1  0  0  0  0
129130  1  0  0  0  0
130225  1  0  0  0  0
130226  1  0  0  0  0
130227  1  0  0  0  0
131112  1  0  0  0  0
132228  1  0  0  0  0
132131  2  0  0  0  0
133132  1  0  0  0  0
134133  2  0  0  0  0
134135  1  0  0  0  0
135131  1  0  0  0  0
136120  1  0  0  0  0
137124  1  0  0  0  0
138134  1  0  0  0  0
139138  1  0  0  0  0
139144  1  0  0  0  0
140145  1  0  0  0  0
140139  2  0  0  0  0
141142  2  0  0  0  0
141140  1  0  0  0  0
142143  1  0  0  0  0
143146  1  0  0  0  0
143138  2  0  0  0  0
146147  1  0  0  0  0
147230  1  0  0  0  0
148232  1  0  0  0  0
148233  1  0  0  0  0
148147  1  0  0  0  0
149142  1  0  0  0  0
150149  1  0  0  0  0
150235  1  0  0  0  0
150236  1  0  0  0  0
151150  1  0  0  0  0
152141  1  0  0  0  0
153152  2  0  0  0  0
153240  1  0  0  0  0
154153  1  0  0  0  0
155154  2  0  0  0  0
155156  1  0  0  0  0
156152  1  0  0  0  0
158 10  1  0  0  0  0
160 15  1  0  0  0  0
162 23  1  0  0  0  0
164 24  1  0  0  0  0
168 25  1  0  0  0  0
170 26  1  0  0  0  0
171 26  1  0  0  0  0
172 28  1  0  0  0  0
173 29  1  0  0  0  0
175 43  1  0  0  0  0
177 44  1  0  0  0  0
178 44  1  0  0  0  0
179 46  1  0  0  0  0
181 47  1  0  0  0  0
182 47  1  0  0  0  0
187 62  1  0  0  0  0
188 67  1  0  0  0  0
189 71  1  0  0  0  0
192 76  1  0  0  0  0
194 76  1  0  0  0  0
195 77  1  0  0  0  0
196 77  1  0  0  0  0
198 78  1  0  0  0  0
202 95  1  0  0  0  0
203 95  1  0  0  0  0
207 98  1  0  0  0  0
208 98  1  0  0  0  0
210 99  1  0  0  0  0
213102  1  0  0  0  0
214111  1  0  0  0  0
216119  1  0  0  0  0
217123  1  0  0  0  0
218127  1  0  0  0  0
220128  1  0  0  0  0
223129  1  0  0  0  0
224129  1  0  0  0  0
229133  1  0  0  0  0
231147  1  0  0  0  0
234148  1  0  0  0  0
237151  1  0  0  0  0
238151  1  0  0  0  0
239151  1  0  0  0  0
241154  1  0  0  0  0
242155  1  0  0  0  0
M  END
