SCF done       -206.193057752688          0.000198584509
 OpenBabel12282109573D

120132  0  0  0  0  0  0  0  0999 V2000
    2.8056   -1.7405    0.7709 C   0  0  0  0  0  0  0  0  0  0  0  0
    3.3769   -0.4654    0.5300 C   0  0  0  0  0  0  0  0  0  0  0  0
    2.5697    0.6020    0.1068 C   0  0  0  0  0  0  0  0  0  0  0  0
    1.2199    0.3365   -0.0695 C   0  0  0  0  0  0  0  0  0  0  0  0
    0.6458   -0.9345    0.1811 C   0  0  0  0  0  0  0  0  0  0  0  0
    1.4548   -2.0076    0.5901 C   0  0  0  0  0  0  0  0  0  0  0  0
    0.0403    1.5406   -0.5564 S   0  0  0  0  0  0  0  0  0  0  0  0
   -1.2358    0.3749   -0.3678 C   0  0  0  0  0  0  0  0  0  0  0  0
   -0.7611   -0.8723    0.0172 C   0  0  0  0  0  0  0  0  0  0  0  0
    3.9914   -2.9389    1.2567 S   0  0  0  0  0  0  0  0  0  0  0  0
    5.2575   -1.7593    1.1136 C   0  0  0  0  0  0  0  0  0  0  0  0
    4.7803   -0.5140    0.7256 C   0  0  0  0  0  0  0  0  0  0  0  0
    0.9060   -3.3400    0.7656 C   0  0  0  0  0  0  0  0  0  0  0  0
    3.1045    1.9376   -0.1079 C   0  0  0  0  0  0  0  0  0  0  0  0
    0.1353   -4.0432   -0.1150 C   0  0  0  0  0  0  0  0  0  0  0  0
   -0.1890   -5.3357    0.3428 C   0  0  0  0  0  0  0  0  0  0  0  0
    0.3235   -5.6184    1.5709 C   0  0  0  0  0  0  0  0  0  0  0  0
    1.2366   -4.2818    2.1886 S   0  0  0  0  0  0  0  0  0  0  0  0
    3.0364    2.7090   -1.2289 C   0  0  0  0  0  0  0  0  0  0  0  0
    3.6653    3.9629   -1.0754 C   0  0  0  0  0  0  0  0  0  0  0  0
    4.1875    4.1583    0.1646 C   0  0  0  0  0  0  0  0  0  0  0  0
    3.9081    2.7830    1.1814 S   0  0  0  0  0  0  0  0  0  0  0  0
    4.9723    5.3151    0.6792 C   0  0  0  0  0  0  0  0  0  0  0  0
    6.4503    4.9456    0.8270 C   0  0  0  0  0  0  0  0  0  0  0  0
    0.2386   -6.8898    2.3424 C   0  0  0  0  0  0  0  0  0  0  0  0
    1.5404   -7.6859    2.2240 C   0  0  0  0  0  0  0  0  0  0  0  0
    8.6185   -0.2746    1.0891 C   0  0  0  0  0  0  0  0  0  0  0  0
    9.2103    0.9203    0.7475 C   0  0  0  0  0  0  0  0  0  0  0  0
   10.5976    0.9521    0.9403 C   0  0  0  0  0  0  0  0  0  0  0  0
   11.0797   -0.2480    1.4443 C   0  0  0  0  0  0  0  0  0  0  0  0
    9.7946   -1.4047    1.6775 S   0  0  0  0  0  0  0  0  0  0  0  0
   12.4007   -0.6327    1.8104 C   0  0  0  0  0  0  0  0  0  0  0  0
   12.6228   -1.9186    2.9557 S   0  0  0  0  0  0  0  0  0  0  0  0
   14.3555   -1.7685    2.8498 C   0  0  0  0  0  0  0  0  0  0  0  0
   14.6997   -0.7601    1.9530 C   0  0  0  0  0  0  0  0  0  0  0  0
   13.6155   -0.1221    1.3758 C   0  0  0  0  0  0  0  0  0  0  0  0
   15.3073   -2.5284    3.5537 C   0  0  0  0  0  0  0  0  0  0  0  0
   15.1290   -3.5162    4.4761 C   0  0  0  0  0  0  0  0  0  0  0  0
   16.4940   -4.3108    5.2443 S   0  0  0  0  0  0  0  0  0  0  0  0
   15.4331   -5.3079    6.2267 C   0  0  0  0  0  0  0  0  0  0  0  0
   14.1359   -5.0195    5.9515 N   0  0  0  0  0  0  0  0  0  0  0  0
   13.8864   -4.0553    4.9909 C   0  0  0  0  0  0  0  0  0  0  0  0
   15.9510   -6.4072    7.3158 S   0  0  0  0  0  0  0  0  0  0  0  0
   12.7575   -3.7333    4.6664 O   0  0  0  0  0  0  0  0  0  0  0  0
   13.0377   -5.7086    6.6010 C   0  0  0  0  0  0  0  0  0  0  0  0
   12.7307   -7.0314    5.9111 C   0  0  0  0  0  0  0  0  0  0  0  0
   11.4521    2.1559    0.6804 C   0  0  0  0  0  0  0  0  0  0  0  0
   10.6658    3.4617    0.6207 C   0  0  0  0  0  0  0  0  0  0  0  0
   -4.6180   -1.0457   -0.1267 C   0  0  0  0  0  0  0  0  0  0  0  0
   -5.8070    0.0540   -0.7479 S   0  0  0  0  0  0  0  0  0  0  0  0
   -7.0982   -1.0307   -0.3017 C   0  0  0  0  0  0  0  0  0  0  0  0
   -6.6101   -2.1864    0.2898 C   0  0  0  0  0  0  0  0  0  0  0  0
   -5.2114   -2.1807    0.3764 C   0  0  0  0  0  0  0  0  0  0  0  0
   -7.4736   -3.3264    0.7388 C   0  0  0  0  0  0  0  0  0  0  0  0
   -6.7372   -4.6611    0.7974 C   0  0  0  0  0  0  0  0  0  0  0  0
   -8.4386   -0.6543   -0.6045 C   0  0  0  0  0  0  0  0  0  0  0  0
   -9.6120   -1.0433    0.0247 C   0  0  0  0  0  0  0  0  0  0  0  0
  -10.7375   -0.4751   -0.5466 C   0  0  0  0  0  0  0  0  0  0  0  0
  -10.4664    0.3539   -1.6320 C   0  0  0  0  0  0  0  0  0  0  0  0
   -8.7499    0.4290   -1.9242 S   0  0  0  0  0  0  0  0  0  0  0  0
  -11.4729    1.0067   -2.3673 C   0  0  0  0  0  0  0  0  0  0  0  0
  -11.3747    1.8033   -3.4687 C   0  0  0  0  0  0  0  0  0  0  0  0
  -12.7993    2.4814   -4.2402 S   0  0  0  0  0  0  0  0  0  0  0  0
  -11.8288    3.2419   -5.4911 C   0  0  0  0  0  0  0  0  0  0  0  0
  -10.5133    2.9801   -5.2840 N   0  0  0  0  0  0  0  0  0  0  0  0
  -10.1822    2.1999   -4.1904 C   0  0  0  0  0  0  0  0  0  0  0  0
   -9.0303    1.9182   -3.9129 O   0  0  0  0  0  0  0  0  0  0  0  0
   -9.4811    3.4572   -6.1837 C   0  0  0  0  0  0  0  0  0  0  0  0
   -9.3232    2.5276   -7.3803 C   0  0  0  0  0  0  0  0  0  0  0  0
  -12.4381    4.1385   -6.7107 S   0  0  0  0  0  0  0  0  0  0  0  0
   -2.6280    0.4511   -0.4848 C   0  0  0  0  0  0  0  0  0  0  0  0
   -3.2295   -0.7412   -0.1590 C   0  0  0  0  0  0  0  0  0  0  0  0
   -2.0614   -1.9773    0.2735 S   0  0  0  0  0  0  0  0  0  0  0  0
    6.6435   -1.8175    1.2901 C   0  0  0  0  0  0  0  0  0  0  0  0
    7.2396   -0.6096    1.0134 C   0  0  0  0  0  0  0  0  0  0  0  0
    6.0750    0.6106    0.5390 S   0  0  0  0  0  0  0  0  0  0  0  0
   -0.1557   -3.6605   -1.0768 H   0  0  0  0  0  0  0  0  0  0  0  0
   -0.7830   -6.0314   -0.2230 H   0  0  0  0  0  0  0  0  0  0  0  0
    2.5781    2.3763   -2.1431 H   0  0  0  0  0  0  0  0  0  0  0  0
    3.7267    4.6930   -1.8628 H   0  0  0  0  0  0  0  0  0  0  0  0
    4.5817    5.6243    1.6516 H   0  0  0  0  0  0  0  0  0  0  0  0
    4.8672    6.1515   -0.0147 H   0  0  0  0  0  0  0  0  0  0  0  0
    6.5609    4.1144    1.5201 H   0  0  0  0  0  0  0  0  0  0  0  0
    7.0174    5.7933    1.2033 H   0  0  0  0  0  0  0  0  0  0  0  0
    6.8622    4.6494   -0.1353 H   0  0  0  0  0  0  0  0  0  0  0  0
   -0.5925   -7.4836    1.9559 H   0  0  0  0  0  0  0  0  0  0  0  0
    0.0462   -6.6715    3.3952 H   0  0  0  0  0  0  0  0  0  0  0  0
    1.7427   -7.9262    1.1827 H   0  0  0  0  0  0  0  0  0  0  0  0
    1.4699   -8.6123    2.7884 H   0  0  0  0  0  0  0  0  0  0  0  0
    2.3732   -7.1033    2.6112 H   0  0  0  0  0  0  0  0  0  0  0  0
    8.6332    1.7444    0.3695 H   0  0  0  0  0  0  0  0  0  0  0  0
   15.7244   -0.5126    1.7365 H   0  0  0  0  0  0  0  0  0  0  0  0
   13.7104    0.6536    0.6397 H   0  0  0  0  0  0  0  0  0  0  0  0
   16.3364   -2.2729    3.3261 H   0  0  0  0  0  0  0  0  0  0  0  0
   12.1760   -5.0394    6.5432 H   0  0  0  0  0  0  0  0  0  0  0  0
   13.3152   -5.8770    7.6441 H   0  0  0  0  0  0  0  0  0  0  0  0
   12.4672   -6.8608    4.8698 H   0  0  0  0  0  0  0  0  0  0  0  0
   11.8955   -7.5149    6.4090 H   0  0  0  0  0  0  0  0  0  0  0  0
   13.5941   -7.6908    5.9577 H   0  0  0  0  0  0  0  0  0  0  0  0
   11.9821    2.0177   -0.2676 H   0  0  0  0  0  0  0  0  0  0  0  0
   12.2037    2.2244    1.4710 H   0  0  0  0  0  0  0  0  0  0  0  0
   10.0080    3.4843   -0.2442 H   0  0  0  0  0  0  0  0  0  0  0  0
   11.3540    4.3001    0.5430 H   0  0  0  0  0  0  0  0  0  0  0  0
   10.0672    3.5903    1.5192 H   0  0  0  0  0  0  0  0  0  0  0  0
   -4.6286   -2.9785    0.7996 H   0  0  0  0  0  0  0  0  0  0  0  0
   -8.3200   -3.4122    0.0529 H   0  0  0  0  0  0  0  0  0  0  0  0
   -7.8749   -3.0988    1.7318 H   0  0  0  0  0  0  0  0  0  0  0  0
   -6.2578   -4.8748   -0.1549 H   0  0  0  0  0  0  0  0  0  0  0  0
   -7.4428   -5.4596    1.0146 H   0  0  0  0  0  0  0  0  0  0  0  0
   -5.9804   -4.6587    1.5775 H   0  0  0  0  0  0  0  0  0  0  0  0
   -9.6437   -1.6784    0.8900 H   0  0  0  0  0  0  0  0  0  0  0  0
  -11.7396   -0.6478   -0.1947 H   0  0  0  0  0  0  0  0  0  0  0  0
  -12.4774    0.8284   -1.9996 H   0  0  0  0  0  0  0  0  0  0  0  0
   -8.5566    3.4921   -5.6026 H   0  0  0  0  0  0  0  0  0  0  0  0
   -9.7576    4.4612   -6.5137 H   0  0  0  0  0  0  0  0  0  0  0  0
   -9.0583    1.5266   -7.0475 H   0  0  0  0  0  0  0  0  0  0  0  0
   -8.5362    2.9008   -8.0288 H   0  0  0  0  0  0  0  0  0  0  0  0
  -10.2500    2.4815   -7.9474 H   0  0  0  0  0  0  0  0  0  0  0  0
   -3.1735    1.3297   -0.7762 H   0  0  0  0  0  0  0  0  0  0  0  0
    7.1884   -2.6902    1.5996 H   0  0  0  0  0  0  0  0  0  0  0  0
  1 10  1  0  0  0  0
  2 12  1  0  0  0  0
  2  1  2  0  0  0  0
  3  2  1  0  0  0  0
  4  3  2  0  0  0  0
  4  5  1  0  0  0  0
  5  6  2  0  0  0  0
  6 13  1  0  0  0  0
  6  1  1  0  0  0  0
  7  8  1  0  0  0  0
  7  4  1  0  0  0  0
  8  9  2  0  0  0  0
  9  5  1  0  0  0  0
  9 73  1  0  0  0  0
 11 10  1  0  0  0  0
 11 74  1  0  0  0  0
 12 11  2  0  0  0  0
 13 18  1  0  0  0  0
 14  3  1  0  0  0  0
 14 22  1  0  0  0  0
 15 16  1  0  0  0  0
 15 13  2  0  0  0  0
 16 17  2  0  0  0  0
 17 18  1  0  0  0  0
 17 25  1  0  0  0  0
 19 20  1  0  0  0  0
 19 14  2  0  0  0  0
 20 21  2  0  0  0  0
 21 23  1  0  0  0  0
 21 22  1  0  0  0  0
 23 24  1  0  0  0  0
 23 81  1  0  0  0  0
 24 84  1  0  0  0  0
 24 83  1  0  0  0  0
 25 87  1  0  0  0  0
 26 25  1  0  0  0  0
 26 90  1  0  0  0  0
 26 89  1  0  0  0  0
 27 31  1  0  0  0  0
 28 29  1  0  0  0  0
 28 27  2  0  0  0  0
 29 30  2  0  0  0  0
 30 31  1  0  0  0  0
 30 32  1  0  0  0  0
 32 33  1  0  0  0  0
 34 33  1  0  0  0  0
 34 37  1  0  0  0  0
 35 34  2  0  0  0  0
 36 32  2  0  0  0  0
 36 35  1  0  0  0  0
 37 38  2  0  0  0  0
 38 42  1  0  0  0  0
 38 39  1  0  0  0  0
 39 40  1  0  0  0  0
 40 43  2  0  0  0  0
 41 40  1  0  0  0  0
 41 45  1  0  0  0  0
 42 41  1  0  0  0  0
 44 42  2  0  0  0  0
 45 96  1  0  0  0  0
 46 99  1  0  0  0  0
 46 98  1  0  0  0  0
 46 45  1  0  0  0  0
 47 29  1  0  0  0  0
 47101  1  0  0  0  0
 48 47  1  0  0  0  0
 48104  1  0  0  0  0
 49 53  2  0  0  0  0
 50 51  1  0  0  0  0
 50 49  1  0  0  0  0
 51 52  2  0  0  0  0
 52 53  1  0  0  0  0
 52 54  1  0  0  0  0
 53105  1  0  0  0  0
 54 55  1  0  0  0  0
 54107  1  0  0  0  0
 55109  1  0  0  0  0
 55110  1  0  0  0  0
 56 51  1  0  0  0  0
 56 57  2  0  0  0  0
 57111  1  0  0  0  0
 58112  1  0  0  0  0
 58 57  1  0  0  0  0
 59 58  2  0  0  0  0
 60 59  1  0  0  0  0
 60 56  1  0  0  0  0
 61113  1  0  0  0  0
 61 59  1  0  0  0  0
 62 61  2  0  0  0  0
 63 62  1  0  0  0  0
 64 65  1  0  0  0  0
 64 63  1  0  0  0  0
 65 66  1  0  0  0  0
 66 67  2  0  0  0  0
 66 62  1  0  0  0  0
 68114  1  0  0  0  0
 68 65  1  0  0  0  0
 69116  1  0  0  0  0
 69 68  1  0  0  0  0
 70 64  2  0  0  0  0
 71  8  1  0  0  0  0
 71 72  2  0  0  0  0
 72 49  1  0  0  0  0
 72 73  1  0  0  0  0
 74120  1  0  0  0  0
 75 27  1  0  0  0  0
 75 74  2  0  0  0  0
 76 12  1  0  0  0  0
 76 75  1  0  0  0  0
 77 15  1  0  0  0  0
 78 16  1  0  0  0  0
 79 19  1  0  0  0  0
 80 20  1  0  0  0  0
 82 23  1  0  0  0  0
 85 24  1  0  0  0  0
 86 25  1  0  0  0  0
 88 26  1  0  0  0  0
 91 28  1  0  0  0  0
 92 35  1  0  0  0  0
 93 36  1  0  0  0  0
 94 37  1  0  0  0  0
 95 45  1  0  0  0  0
 97 46  1  0  0  0  0
100 47  1  0  0  0  0
102 48  1  0  0  0  0
103 48  1  0  0  0  0
106 54  1  0  0  0  0
108 55  1  0  0  0  0
115 68  1  0  0  0  0
117 69  1  0  0  0  0
118 69  1  0  0  0  0
119 71  1  0  0  0  0
M  END
