
  xtb     02032219113D
 energy: -235.678329498752 gnorm: 0.000650262365 xtb: 6.4.1 (unknown)
124136  0     0  0            999 V2000
   -3.9090   -2.1043    8.6793 C   0  0  0  0  0  0  0  0  0  0  0  0
   -4.5915   -1.1216    9.3396 C   0  0  0  0  0  0  0  0  0  0  0  0
   -5.1178    0.1721    8.8403 C   0  0  0  0  0  0  0  0  0  0  0  0
   -4.9286    0.7279    7.7803 O   0  0  0  0  0  0  0  0  0  0  0  0
   -5.9954    0.6858    9.9153 C   0  0  0  0  0  0  0  0  0  0  0  0
   -6.7583    1.8374    9.9038 C   0  0  0  0  0  0  0  0  0  0  0  0
   -7.5144    2.1173   11.0294 C   0  0  0  0  0  0  0  0  0  0  0  0
   -8.2687    3.2216   11.0652 F   0  0  0  0  0  0  0  0  0  0  0  0
   -7.4983    1.2559   12.1281 C   0  0  0  0  0  0  0  0  0  0  0  0
   -8.2434    1.5476   13.1992 F   0  0  0  0  0  0  0  0  0  0  0  0
   -6.7306    0.1016   12.1389 C   0  0  0  0  0  0  0  0  0  0  0  0
   -5.9681   -0.1836   11.0156 C   0  0  0  0  0  0  0  0  0  0  0  0
   -5.0630   -1.2887   10.7121 C   0  0  0  0  0  0  0  0  0  0  0  0
   -4.6821   -2.2512   11.6071 C   0  0  0  0  0  0  0  0  0  0  0  0
   -3.7394   -3.2801   11.3848 C   0  0  0  0  0  0  0  0  0  0  0  0
   -2.9796   -4.1385   11.3154 N   0  0  0  0  0  0  0  0  0  0  0  0
   -5.1662   -2.3325   12.9320 C   0  0  0  0  0  0  0  0  0  0  0  0
   -5.5179   -2.4611   14.0163 N   0  0  0  0  0  0  0  0  0  0  0  0
   -3.2879   -2.1866    7.3937 C   0  0  0  0  0  0  0  0  0  0  0  0
   -3.0267   -1.0834    6.5606 C   0  0  0  0  0  0  0  0  0  0  0  0
   -2.3796   -1.2761    5.3659 C   0  0  0  0  0  0  0  0  0  0  0  0
   -1.9956   -0.2500    4.3254 C   0  0  0  0  0  0  0  0  0  0  0  0
   -0.8500    0.6726    4.8048 C   0  0  0  0  0  0  0  0  0  0  0  0
   -1.1377    1.4935    6.0548 C   0  0  0  0  0  0  0  0  0  0  0  0
   -3.2131    0.5610    3.8533 C   0  0  0  0  0  0  0  0  0  0  0  0
   -4.2953   -0.3189    3.2382 C   0  0  0  0  0  0  0  0  0  0  0  0
   -1.4358   -1.1312    3.2301 C   0  0  0  0  0  0  0  0  0  0  0  0
   -1.4382   -2.4808    3.6243 C   0  0  0  0  0  0  0  0  0  0  0  0
   -2.0190   -2.5698    4.9434 C   0  0  0  0  0  0  0  0  0  0  0  0
   -2.2605   -3.6699    5.7598 C   0  0  0  0  0  0  0  0  0  0  0  0
   -2.8700   -3.4686    6.9765 C   0  0  0  0  0  0  0  0  0  0  0  0
   -0.9466   -3.4614    2.7731 C   0  0  0  0  0  0  0  0  0  0  0  0
   -0.4416   -3.0823    1.5471 C   0  0  0  0  0  0  0  0  0  0  0  0
   -0.4126   -1.7395    1.1501 C   0  0  0  0  0  0  0  0  0  0  0  0
   -0.9290   -0.7589    2.0095 C   0  0  0  0  0  0  0  0  0  0  0  0
    0.1765   -1.3694   -0.1167 C   0  0  0  0  0  0  0  0  0  0  0  0
    0.4507   -0.1171   -0.5816 C   0  0  0  0  0  0  0  0  0  0  0  0
    1.0957   -0.0923   -1.8417 C   0  0  0  0  0  0  0  0  0  0  0  0
    1.5515    1.0278   -2.5655 C   0  0  0  0  0  0  0  0  0  0  0  0
    1.4381    2.3836   -2.0659 C   0  0  0  0  0  0  0  0  0  0  0  0
    1.1532    3.5160   -2.7758 C   0  0  0  0  0  0  0  0  0  0  0  0
    1.1699    4.6682   -1.9662 C   0  0  0  0  0  0  0  0  0  0  0  0
    0.8969    5.8892   -2.4568 F   0  0  0  0  0  0  0  0  0  0  0  0
    1.4791    4.4596   -0.6549 C   0  0  0  0  0  0  0  0  0  0  0  0
    1.5586    5.4541    0.4509 C   0  0  0  0  0  0  0  0  0  0  0  0
    0.5184    5.1731    1.5358 C   0  0  0  0  0  0  0  0  0  0  0  0
    1.7489    2.7717   -0.3937 S   0  0  0  0  0  0  0  0  0  0  0  0
    2.1479    0.7693   -3.7962 C   0  0  0  0  0  0  0  0  0  0  0  0
    2.3216   -0.5381   -4.3175 C   0  0  0  0  0  0  0  0  0  0  0  0
    1.8926   -1.6597   -3.5771 C   0  0  0  0  0  0  0  0  0  0  0  0
    2.1209   -3.0074   -4.0571 C   0  0  0  0  0  0  0  0  0  0  0  0
    0.8815   -4.2272   -3.9484 S   0  0  0  0  0  0  0  0  0  0  0  0
    1.8922   -5.4203   -4.6871 C   0  0  0  0  0  0  0  0  0  0  0  0
    1.4177   -6.8066   -4.9529 C   0  0  0  0  0  0  0  0  0  0  0  0
    0.3060   -6.8284   -6.0030 C   0  0  0  0  0  0  0  0  0  0  0  0
    3.1054   -4.8702   -4.9790 C   0  0  0  0  0  0  0  0  0  0  0  0
    3.2519   -3.5131   -4.6341 C   0  0  0  0  0  0  0  0  0  0  0  0
    4.1000   -5.5709   -5.5530 F   0  0  0  0  0  0  0  0  0  0  0  0
    1.2725   -1.3984   -2.3621 C   0  0  0  0  0  0  0  0  0  0  0  0
    0.6835   -2.6017   -1.2535 S   0  0  0  0  0  0  0  0  0  0  0  0
    2.9448   -0.5220   -5.5856 C   0  0  0  0  0  0  0  0  0  0  0  0
    3.2878    0.7326   -6.0138 C   0  0  0  0  0  0  0  0  0  0  0  0
    2.8195    1.9683   -4.8664 S   0  0  0  0  0  0  0  0  0  0  0  0
    3.9550    1.0942   -7.2158 C   0  0  0  0  0  0  0  0  0  0  0  0
    4.3338    0.2433   -8.2455 C   0  0  0  0  0  0  0  0  0  0  0  0
    4.9856    0.9337   -9.2479 C   0  0  0  0  0  0  0  0  0  0  0  0
    5.4509    0.3407  -10.3491 F   0  0  0  0  0  0  0  0  0  0  0  0
    5.1416    2.3120   -9.0400 C   0  0  0  0  0  0  0  0  0  0  0  0
    4.4159    2.7372   -7.5116 S   0  0  0  0  0  0  0  0  0  0  0  0
    5.8054    3.1364   -9.9598 C   0  0  0  0  0  0  0  0  0  0  0  0
    6.0684    4.4807   -9.8940 C   0  0  0  0  0  0  0  0  0  0  0  0
    5.6760    5.3626   -8.7903 C   0  0  0  0  0  0  0  0  0  0  0  0
    5.0478    5.0700   -7.7898 O   0  0  0  0  0  0  0  0  0  0  0  0
    6.2008    6.6997   -9.1308 C   0  0  0  0  0  0  0  0  0  0  0  0
    6.1017    7.8695   -8.4036 C   0  0  0  0  0  0  0  0  0  0  0  0
    6.6892    9.0061   -8.9347 C   0  0  0  0  0  0  0  0  0  0  0  0
    6.6213   10.1626   -8.2659 F   0  0  0  0  0  0  0  0  0  0  0  0
    7.3532    8.9555  -10.1613 C   0  0  0  0  0  0  0  0  0  0  0  0
    7.9131   10.0672  -10.6491 F   0  0  0  0  0  0  0  0  0  0  0  0
    7.4500    7.7801  -10.8914 C   0  0  0  0  0  0  0  0  0  0  0  0
    6.8650    6.6376  -10.3675 C   0  0  0  0  0  0  0  0  0  0  0  0
    6.7911    5.2666  -10.8769 C   0  0  0  0  0  0  0  0  0  0  0  0
    7.3153    4.8408  -12.0673 C   0  0  0  0  0  0  0  0  0  0  0  0
    8.0124    5.6761  -12.9678 C   0  0  0  0  0  0  0  0  0  0  0  0
    8.5895    6.2973  -13.7407 N   0  0  0  0  0  0  0  0  0  0  0  0
    7.2435    3.5282  -12.5839 C   0  0  0  0  0  0  0  0  0  0  0  0
    7.2313    2.4947  -13.0831 N   0  0  0  0  0  0  0  0  0  0  0  0
   -3.8207   -3.0336    9.2315 H   0  0  0  0  0  0  0  0  0  0  0  0
   -6.7677    2.4974    9.0510 H   0  0  0  0  0  0  0  0  0  0  0  0
   -6.7572   -0.5303   13.0111 H   0  0  0  0  0  0  0  0  0  0  0  0
   -3.3468   -0.1020    6.8592 H   0  0  0  0  0  0  0  0  0  0  0  0
   -0.6076    1.3489    3.9819 H   0  0  0  0  0  0  0  0  0  0  0  0
    0.0303    0.0505    4.9882 H   0  0  0  0  0  0  0  0  0  0  0  0
   -2.0399    2.0879    5.9427 H   0  0  0  0  0  0  0  0  0  0  0  0
   -0.3066    2.1717    6.2366 H   0  0  0  0  0  0  0  0  0  0  0  0
   -1.2447    0.8524    6.9253 H   0  0  0  0  0  0  0  0  0  0  0  0
   -3.6356    1.0942    4.7049 H   0  0  0  0  0  0  0  0  0  0  0  0
   -2.8824    1.2985    3.1190 H   0  0  0  0  0  0  0  0  0  0  0  0
   -4.6537   -1.0468    3.9625 H   0  0  0  0  0  0  0  0  0  0  0  0
   -3.9151   -0.8549    2.3709 H   0  0  0  0  0  0  0  0  0  0  0  0
   -5.1375    0.2922    2.9230 H   0  0  0  0  0  0  0  0  0  0  0  0
   -1.9733   -4.6621    5.4465 H   0  0  0  0  0  0  0  0  0  0  0  0
   -3.0517   -4.3130    7.6258 H   0  0  0  0  0  0  0  0  0  0  0  0
   -0.9529   -4.5006    3.0643 H   0  0  0  0  0  0  0  0  0  0  0  0
   -0.0479   -3.8311    0.8751 H   0  0  0  0  0  0  0  0  0  0  0  0
   -0.9316    0.2769    1.7103 H   0  0  0  0  0  0  0  0  0  0  0  0
    0.2092    0.7760   -0.0384 H   0  0  0  0  0  0  0  0  0  0  0  0
    0.9024    3.5404   -3.8194 H   0  0  0  0  0  0  0  0  0  0  0  0
    2.5572    5.4285    0.8958 H   0  0  0  0  0  0  0  0  0  0  0  0
    1.3979    6.4478    0.0277 H   0  0  0  0  0  0  0  0  0  0  0  0
    0.6888    4.1927    1.9760 H   0  0  0  0  0  0  0  0  0  0  0  0
    0.5839    5.9226    2.3198 H   0  0  0  0  0  0  0  0  0  0  0  0
   -0.4846    5.1973    1.1157 H   0  0  0  0  0  0  0  0  0  0  0  0
    2.2674   -7.3988   -5.2991 H   0  0  0  0  0  0  0  0  0  0  0  0
    1.0447   -7.2483   -4.0253 H   0  0  0  0  0  0  0  0  0  0  0  0
   -0.5466   -6.2453   -5.6621 H   0  0  0  0  0  0  0  0  0  0  0  0
    0.6613   -6.4087   -6.9413 H   0  0  0  0  0  0  0  0  0  0  0  0
   -0.0185   -7.8500   -6.1815 H   0  0  0  0  0  0  0  0  0  0  0  0
    4.1675   -2.9671   -4.7665 H   0  0  0  0  0  0  0  0  0  0  0  0
    3.1231   -1.4076   -6.1656 H   0  0  0  0  0  0  0  0  0  0  0  0
    4.1484   -0.8139   -8.2744 H   0  0  0  0  0  0  0  0  0  0  0  0
    6.1599    2.5996  -10.8328 H   0  0  0  0  0  0  0  0  0  0  0  0
    5.5875    7.9020   -7.4564 H   0  0  0  0  0  0  0  0  0  0  0  0
    7.9743    7.7968  -11.8326 H   0  0  0  0  0  0  0  0  0  0  0  0
  1  2  2  0  0  0  0
  2  3  1  0  0  0  0
  3  4  2  0  0  0  0
  3  5  1  0  0  0  0
  5  6  2  0  0  0  0
  6  7  1  0  0  0  0
  7  8  1  0  0  0  0
  7  9  2  0  0  0  0
  9 10  1  0  0  0  0
  9 11  1  0  0  0  0
 11 12  2  0  0  0  0
 12 13  1  0  0  0  0
 13 14  2  0  0  0  0
 14 15  1  0  0  0  0
 15 16  3  0  0  0  0
 14 17  1  0  0  0  0
 17 18  3  0  0  0  0
  1 19  1  0  0  0  0
 19 20  2  0  0  0  0
 20 21  1  0  0  0  0
 21 22  1  0  0  0  0
 22 23  1  0  0  0  0
 23 24  1  0  0  0  0
 22 25  1  0  0  0  0
 25 26  1  0  0  0  0
 22 27  1  0  0  0  0
 27 28  2  0  0  0  0
 28 29  1  0  0  0  0
 29 30  1  0  0  0  0
 30 31  2  0  0  0  0
 28 32  1  0  0  0  0
 32 33  2  0  0  0  0
 33 34  1  0  0  0  0
 34 35  2  0  0  0  0
 34 36  1  0  0  0  0
 36 37  2  0  0  0  0
 37 38  1  0  0  0  0
 38 39  2  0  0  0  0
 39 40  1  0  0  0  0
 40 41  2  0  0  0  0
 41 42  1  0  0  0  0
 42 43  1  0  0  0  0
 42 44  2  0  0  0  0
 44 45  1  0  0  0  0
 45 46  1  0  0  0  0
 44 47  1  0  0  0  0
 39 48  1  0  0  0  0
 48 49  2  0  0  0  0
 49 50  1  0  0  0  0
 50 51  1  0  0  0  0
 51 52  1  0  0  0  0
 52 53  1  0  0  0  0
 53 54  1  0  0  0  0
 54 55  1  0  0  0  0
 53 56  2  0  0  0  0
 56 57  1  0  0  0  0
 56 58  1  0  0  0  0
 50 59  2  0  0  0  0
 59 60  1  0  0  0  0
 49 61  1  0  0  0  0
 61 62  2  0  0  0  0
 62 63  1  0  0  0  0
 62 64  1  0  0  0  0
 64 65  2  0  0  0  0
 65 66  1  0  0  0  0
 66 67  1  0  0  0  0
 66 68  2  0  0  0  0
 68 69  1  0  0  0  0
 68 70  1  0  0  0  0
 70 71  2  0  0  0  0
 71 72  1  0  0  0  0
 72 73  2  0  0  0  0
 72 74  1  0  0  0  0
 74 75  2  0  0  0  0
 75 76  1  0  0  0  0
 76 77  1  0  0  0  0
 76 78  2  0  0  0  0
 78 79  1  0  0  0  0
 78 80  1  0  0  0  0
 80 81  2  0  0  0  0
 81 82  1  0  0  0  0
 82 83  2  0  0  0  0
 83 84  1  0  0  0  0
 84 85  3  0  0  0  0
 83 86  1  0  0  0  0
 86 87  3  0  0  0  0
 13  2  1  0  0  0  0
 31 19  1  0  0  0  0
 60 36  1  0  0  0  0
 69 64  1  0  0  0  0
 82 71  1  0  0  0  0
 12  5  1  0  0  0  0
 29 21  2  0  0  0  0
 59 38  1  0  0  0  0
 81 74  1  0  0  0  0
 35 27  1  0  0  0  0
 47 40  1  0  0  0  0
 63 48  1  0  0  0  0
 57 51  2  0  0  0  0
  1 88  1  0  0  0  0
  6 89  1  0  0  0  0
 11 90  1  0  0  0  0
 20 91  1  0  0  0  0
 23 92  1  0  0  0  0
 23 93  1  0  0  0  0
 24 94  1  0  0  0  0
 24 95  1  0  0  0  0
 24 96  1  0  0  0  0
 25 97  1  0  0  0  0
 25 98  1  0  0  0  0
 26 99  1  0  0  0  0
 26100  1  0  0  0  0
 26101  1  0  0  0  0
 30102  1  0  0  0  0
 31103  1  0  0  0  0
 32104  1  0  0  0  0
 33105  1  0  0  0  0
 35106  1  0  0  0  0
 37107  1  0  0  0  0
 41108  1  0  0  0  0
 45109  1  0  0  0  0
 45110  1  0  0  0  0
 46111  1  0  0  0  0
 46112  1  0  0  0  0
 46113  1  0  0  0  0
 54114  1  0  0  0  0
 54115  1  0  0  0  0
 55116  1  0  0  0  0
 55117  1  0  0  0  0
 55118  1  0  0  0  0
 57119  1  0  0  0  0
 61120  1  0  0  0  0
 65121  1  0  0  0  0
 70122  1  0  0  0  0
 75123  1  0  0  0  0
 80124  1  0  0  0  0
M  END
