168

C          7.35990        6.50130        1.43200
C          7.15170        7.59350        2.22550
C          8.33260        8.36210        2.69750
O          9.46800        8.27610        2.29290
C          7.82600        9.20930        3.80180
C          8.53680       10.03120        4.65350
C          7.83050       10.69970        5.64100
F          8.47960       11.50400        6.49110
C          6.44970       10.53930        5.76180
F          5.79700       11.18420        6.73490
C          5.73300        9.72310        4.89890
C          6.43270        9.05430        3.90780
C          5.97420        8.16540        2.83790
C          4.68590        8.10750        2.37170
C          3.58840        8.72720        3.00370
N          2.65370        9.18270        3.48960
C          4.31110        7.48100        1.16580
N          3.95550        7.02020        0.17660
C          6.50260        5.41680        1.15420
C          5.37790        4.99670        1.82700
C          4.77510        3.85380        1.27970
C          3.59890        3.19650        1.71980
C          2.93000        3.57460        2.93790
C          3.49670        4.00190        4.11200
C          2.60620        4.34480        5.14240
C          1.27950        4.21850        4.82660
S         -0.01000        4.64990        5.91940
C         -1.47890        4.00880        5.04240
C         -1.61070        2.50360        5.16540
Se         1.05050        3.58080        3.07000
C          3.12020        2.19470        0.88530
C          3.77860        1.75810       -0.28980
C          5.01220        2.33620       -0.65900
C          5.81410        1.80300       -1.73980
C          6.54790        2.48900       -2.66880
C          7.32460        1.69190       -3.53150
C          7.24950        0.35150       -3.29680
S          8.13520       -0.88490       -4.17660
C          9.73930       -0.81850       -3.28540
C          9.62130       -1.27670       -1.84750
Se         6.08260       -0.05130       -1.88220
C          5.45300        3.40160        0.11660
S          6.87770        4.34950       -0.18770
C          3.03490        0.77720       -0.98950
C          1.86140        0.43640       -0.37130
S          1.64970        1.30490        1.14060
C          0.79360       -0.40680       -0.77960
C          0.63910       -1.23120       -1.89120
N          1.57480       -1.53170       -2.87080
C          1.04230       -1.64650       -4.17520
C          0.29840       -0.59100       -4.69140
C         -0.27180       -0.67590       -5.94680
C         -0.10140       -1.82480       -6.70780
S         -0.77330       -2.05850       -8.31940
C         -1.64490       -0.50460       -8.66660
C          0.64190       -2.88610       -6.19020
C          1.20440       -2.80300       -4.93750
C          2.84240       -2.04160       -2.59080
C          3.18330       -2.51190       -1.32070
C          4.41710       -3.08260       -1.09730
C          5.34180       -3.20870       -2.13260
S          6.87140       -3.99950       -1.75270
C          7.53000       -4.44360       -3.38680
C          5.02730       -2.70090       -3.38870
C          3.79780       -2.11200       -3.60680
C         -0.67250       -1.77020       -1.93570
S         -1.50320       -2.84620       -3.00260
C         -2.95370       -2.76870       -2.01530
C         -2.78780       -1.94850       -0.89700
N         -3.63350       -1.80330        0.19050
C         -4.91290       -1.23160        0.09760
C         -5.96090       -1.75920        0.84440
C         -7.21610       -1.18480        0.79320
C         -7.43310       -0.06420       -0.00020
S         -8.99540        0.73110       -0.17290
C        -10.04130       -0.05660        1.08350
C         -6.37800        0.47190       -0.73950
C         -5.12930       -0.10540       -0.69450
C         -3.06370       -1.98760        1.45470
C         -2.11260       -2.99340        1.65030
C         -1.51580       -3.15610        2.87770
C         -1.85400       -2.32550        3.94660
S         -1.00480       -2.61850        5.46090
C         -1.72220       -1.41260        6.61180
C         -2.81330       -1.33760        3.76280
C         -3.40990       -1.17110        2.52950
C         -1.48010       -1.40610       -0.87340
S         -0.65320       -0.36530        0.22570
C         -4.01530       -3.66100       -2.35410
C         -5.38350       -3.32710       -2.40160
C         -6.42970       -4.31670       -2.54830
N         -7.63190       -3.74370       -2.62370
S         -7.46600       -2.14510       -2.54360
N         -5.87350       -2.08820       -2.40370
C         -6.15800       -5.70010       -2.66870
C         -4.78190       -6.00080       -2.82110
N         -4.27670       -7.21110       -3.04810
S         -2.67330       -7.11790       -3.08460
N         -2.52410       -5.54710       -2.79860
C         -3.73900       -5.00860       -2.67430
C         -7.11430       -6.73400       -2.72170
C         -8.42980       -6.73620       -2.33500
C         -9.34360       -7.76730       -2.88420
O         -9.04620       -8.76170       -3.50390
C        -10.70920       -7.29150       -2.54740
C        -11.92680       -7.82970       -2.91000
C        -13.07300       -7.17500       -2.48440
F        -14.27640       -7.66160       -2.81640
C        -12.98650       -6.01510       -1.71640
F        -14.10960       -5.39760       -1.32700
C        -11.76240       -5.47940       -1.34250
C        -10.61410       -6.12730       -1.76560
C         -9.20060       -5.84150       -1.51910
C         -8.72780       -5.01110       -0.53030
C         -7.39170       -4.98310       -0.09010
N         -6.32980       -4.93230        0.34620
C         -9.52120       -4.11560        0.20420
N        -10.08920       -3.32470        0.81560
H          8.35910        6.43410        1.01220
H          9.60410       10.15300        4.55890
H          4.66760        9.62910        5.03300
H          5.00660        5.49460        2.70340
H          4.56340        4.00660        4.26420
H          2.93440        4.67760        6.11180
H         -2.32290        4.51810        5.50640
H         -1.39730        4.32590        3.99810
H         -1.67890        2.21890        6.21350
H         -0.75000        2.00410        4.71860
H         -2.50730        2.17060        4.64630
H          6.50410        3.56040       -2.76530
H          7.93410        2.10410       -4.31790
H         10.39170       -1.47340       -3.86180
H         10.10070        0.20720       -3.35620
H          8.96010       -0.61730       -1.28520
H          9.22290       -2.28720       -1.79330
H         10.60150       -1.26060       -1.37570
H          3.32680        0.38670       -1.94790
H          0.16640        0.30380       -4.10050
H         -0.84190        0.16040       -6.31720
H         -2.44560       -0.35790       -7.94760
H         -2.06150       -0.62160       -9.66220
H         -0.94430        0.32510       -8.65650
H          0.75980       -3.77990       -6.78290
H          1.76210       -3.63530       -4.53640
H          2.46730       -2.45960       -0.51510
H          4.66900       -3.46200       -0.11880
H          6.77450       -4.99040       -3.94230
H          7.84530       -3.55230       -3.92190
H          8.38570       -5.08370       -3.19500
H          5.73320       -2.74850       -4.20210
H          3.57160       -1.71260       -4.58390
H         -5.79240       -2.63630        1.45050
H         -8.01650       -1.62670        1.36380
H         -9.60060        0.08910        2.06540
H        -10.99620        0.45660        1.02710
H        -10.17490       -1.11180        0.86260
H         -6.55530        1.34710       -1.34500
H         -4.31430        0.30700       -1.26920
H         -1.85390       -3.65030        0.83310
H         -0.78240       -3.93300        3.02940
H         -2.78930       -1.58600        6.71390
H         -1.22830       -1.58790        7.56250
H         -1.51410       -0.40370        6.26810
H         -3.09710       -0.68110        4.56920
H         -4.14020       -0.38820        2.39110
H         -6.76660       -7.65290       -3.18340
H        -11.99300       -8.72760       -3.50340
H        -11.74460       -4.57940       -0.75000
