
  xtb     02102218143D
 energy: -186.583828027907 gnorm: 0.000734321808 xtb: 6.4.1 (unknown)
 90 98  0     0  0            999 V2000
    0.2662   -4.5618   -6.8922 C   0  0  0  0  0  0  0  0  0  0  0  0
    0.7964   -4.3395   -8.1226 C   0  0  0  0  0  0  0  0  0  0  0  0
    1.1405   -3.0174   -8.7161 C   0  0  0  0  0  0  0  0  0  0  0  0
    1.1980   -1.9381   -8.1755 O   0  0  0  0  0  0  0  0  0  0  0  0
    1.3319   -3.2787  -10.1594 C   0  0  0  0  0  0  0  0  0  0  0  0
    1.6204   -2.3628  -11.1531 C   0  0  0  0  0  0  0  0  0  0  0  0
    1.7573   -2.8396  -12.4459 C   0  0  0  0  0  0  0  0  0  0  0  0
    2.0402   -1.9918  -13.4397 F   0  0  0  0  0  0  0  0  0  0  0  0
    1.6021   -4.2003  -12.7227 C   0  0  0  0  0  0  0  0  0  0  0  0
    1.7341   -4.6301  -13.9805 F   0  0  0  0  0  0  0  0  0  0  0  0
    1.3126   -5.1188  -11.7257 C   0  0  0  0  0  0  0  0  0  0  0  0
    1.1780   -4.6490  -10.4272 C   0  0  0  0  0  0  0  0  0  0  0  0
    0.8983   -5.3442   -9.1750 C   0  0  0  0  0  0  0  0  0  0  0  0
    0.8424   -6.6993   -9.0086 C   0  0  0  0  0  0  0  0  0  0  0  0
    0.9645   -7.6292  -10.0652 C   0  0  0  0  0  0  0  0  0  0  0  0
    1.0484   -8.4276  -10.8841 N   0  0  0  0  0  0  0  0  0  0  0  0
    0.7060   -7.3599   -7.7662 C   0  0  0  0  0  0  0  0  0  0  0  0
    0.6338   -7.9667   -6.7952 N   0  0  0  0  0  0  0  0  0  0  0  0
    0.1948   -3.6693   -5.7684 C   0  0  0  0  0  0  0  0  0  0  0  0
   -0.8395   -3.8320   -4.8298 C   0  0  0  0  0  0  0  0  0  0  0  0
   -1.7729   -4.7719   -5.0545 F   0  0  0  0  0  0  0  0  0  0  0  0
   -0.9591   -3.0499   -3.7076 C   0  0  0  0  0  0  0  0  0  0  0  0
   -0.0221   -2.0472   -3.4287 C   0  0  0  0  0  0  0  0  0  0  0  0
    1.0283   -1.9068   -4.3509 C   0  0  0  0  0  0  0  0  0  0  0  0
    2.0005   -1.0035   -4.1267 F   0  0  0  0  0  0  0  0  0  0  0  0
    1.1430   -2.6820   -5.4804 C   0  0  0  0  0  0  0  0  0  0  0  0
   -0.1409   -1.2447   -2.2370 C   0  0  0  0  0  0  0  0  0  0  0  0
    0.4984   -0.0808   -1.9187 C   0  0  0  0  0  0  0  0  0  0  0  0
    0.1587    0.4306   -0.6421 C   0  0  0  0  0  0  0  0  0  0  0  0
    0.6471    1.5886   -0.0203 C   0  0  0  0  0  0  0  0  0  0  0  0
    1.6001    2.5207   -0.7033 C   0  0  0  0  0  0  0  0  0  0  0  0
    0.8452    3.4958   -1.6097 C   0  0  0  0  0  0  0  0  0  0  0  0
    0.1671    1.8439    1.2501 C   0  0  0  0  0  0  0  0  0  0  0  0
   -0.7603    1.0089    1.9260 C   0  0  0  0  0  0  0  0  0  0  0  0
   -1.2546   -0.1457    1.3008 C   0  0  0  0  0  0  0  0  0  0  0  0
   -2.2705   -1.0328    1.9526 C   0  0  0  0  0  0  0  0  0  0  0  0
   -3.6801   -0.4636    1.7757 C   0  0  0  0  0  0  0  0  0  0  0  0
   -0.7800   -0.3975    0.0276 C   0  0  0  0  0  0  0  0  0  0  0  0
   -1.2271   -1.7625   -0.9585 S   0  0  0  0  0  0  0  0  0  0  0  0
   -1.0571    1.4930    3.2243 C   0  0  0  0  0  0  0  0  0  0  0  0
   -0.3989    2.6448    3.5515 C   0  0  0  0  0  0  0  0  0  0  0  0
    0.6251    3.2013    2.2384 S   0  0  0  0  0  0  0  0  0  0  0  0
   -0.4194    3.3920    4.7842 C   0  0  0  0  0  0  0  0  0  0  0  0
   -1.2382    3.0699    5.8796 C   0  0  0  0  0  0  0  0  0  0  0  0
   -2.1210    2.0561    5.7968 F   0  0  0  0  0  0  0  0  0  0  0  0
   -1.1895    3.7523    7.0716 C   0  0  0  0  0  0  0  0  0  0  0  0
   -0.3248    4.8380    7.2431 C   0  0  0  0  0  0  0  0  0  0  0  0
    0.4420    5.2053    6.1290 C   0  0  0  0  0  0  0  0  0  0  0  0
    1.2634    6.2609    6.2313 F   0  0  0  0  0  0  0  0  0  0  0  0
    0.4184    4.5014    4.9495 C   0  0  0  0  0  0  0  0  0  0  0  0
   -0.2417    5.5925    8.4654 C   0  0  0  0  0  0  0  0  0  0  0  0
   -0.4233    5.1684    9.7366 C   0  0  0  0  0  0  0  0  0  0  0  0
   -0.6523    6.1731   10.8182 C   0  0  0  0  0  0  0  0  0  0  0  0
   -0.4827    7.3643   10.7473 O   0  0  0  0  0  0  0  0  0  0  0  0
   -1.1833    5.3932   11.9575 C   0  0  0  0  0  0  0  0  0  0  0  0
   -1.6679    5.8584   13.1650 C   0  0  0  0  0  0  0  0  0  0  0  0
   -2.1420    4.9240   14.0712 C   0  0  0  0  0  0  0  0  0  0  0  0
   -2.6210    5.3287   15.2511 F   0  0  0  0  0  0  0  0  0  0  0  0
   -2.1294    3.5613   13.7633 C   0  0  0  0  0  0  0  0  0  0  0  0
   -2.6085    2.6858   14.6506 F   0  0  0  0  0  0  0  0  0  0  0  0
   -1.6342    3.0923   12.5562 C   0  0  0  0  0  0  0  0  0  0  0  0
   -1.1530    4.0215   11.6466 C   0  0  0  0  0  0  0  0  0  0  0  0
   -0.5411    3.8463   10.3303 C   0  0  0  0  0  0  0  0  0  0  0  0
    0.0338    2.6929    9.8751 C   0  0  0  0  0  0  0  0  0  0  0  0
   -0.0456    1.4564   10.5530 C   0  0  0  0  0  0  0  0  0  0  0  0
   -0.1010    0.4280   11.0576 N   0  0  0  0  0  0  0  0  0  0  0  0
    0.8447    2.6112    8.7220 C   0  0  0  0  0  0  0  0  0  0  0  0
    1.5529    2.4880    7.8282 N   0  0  0  0  0  0  0  0  0  0  0  0
   -0.2067   -5.5221   -6.7183 H   0  0  0  0  0  0  0  0  0  0  0  0
    1.7378   -1.3135  -10.9335 H   0  0  0  0  0  0  0  0  0  0  0  0
    1.1982   -6.1569  -11.9914 H   0  0  0  0  0  0  0  0  0  0  0  0
   -1.7872   -3.2172   -3.0363 H   0  0  0  0  0  0  0  0  0  0  0  0
    1.9915   -2.5279   -6.1245 H   0  0  0  0  0  0  0  0  0  0  0  0
    1.1892    0.4122   -2.5757 H   0  0  0  0  0  0  0  0  0  0  0  0
    2.3194    1.9528   -1.2949 H   0  0  0  0  0  0  0  0  0  0  0  0
    2.1497    3.0860    0.0526 H   0  0  0  0  0  0  0  0  0  0  0  0
    0.2891    2.9566   -2.3732 H   0  0  0  0  0  0  0  0  0  0  0  0
    1.5435    4.1699   -2.0987 H   0  0  0  0  0  0  0  0  0  0  0  0
    0.1438    4.0874   -1.0259 H   0  0  0  0  0  0  0  0  0  0  0  0
   -2.0488   -1.1363    3.0158 H   0  0  0  0  0  0  0  0  0  0  0  0
   -2.2240   -2.0241    1.4963 H   0  0  0  0  0  0  0  0  0  0  0  0
   -3.7542    0.5229    2.2272 H   0  0  0  0  0  0  0  0  0  0  0  0
   -3.9226   -0.3782    0.7189 H   0  0  0  0  0  0  0  0  0  0  0  0
   -4.4096   -1.1173    2.2466 H   0  0  0  0  0  0  0  0  0  0  0  0
   -1.7291    0.9847    3.8887 H   0  0  0  0  0  0  0  0  0  0  0  0
   -1.8567    3.4544    7.8658 H   0  0  0  0  0  0  0  0  0  0  0  0
    1.0654    4.8140    4.1448 H   0  0  0  0  0  0  0  0  0  0  0  0
   -0.0441    6.6547    8.3541 H   0  0  0  0  0  0  0  0  0  0  0  0
   -1.6783    6.9109   13.3994 H   0  0  0  0  0  0  0  0  0  0  0  0
   -1.6482    2.0321   12.3621 H   0  0  0  0  0  0  0  0  0  0  0  0
  1  2  2  0  0  0  0
  2  3  1  0  0  0  0
  3  4  2  0  0  0  0
  3  5  1  0  0  0  0
  5  6  2  0  0  0  0
  6  7  1  0  0  0  0
  7  8  1  0  0  0  0
  7  9  2  0  0  0  0
  9 10  1  0  0  0  0
  9 11  1  0  0  0  0
 11 12  2  0  0  0  0
 12 13  1  0  0  0  0
 13 14  2  0  0  0  0
 14 15  1  0  0  0  0
 15 16  3  0  0  0  0
 14 17  1  0  0  0  0
 17 18  3  0  0  0  0
  1 19  1  0  0  0  0
 19 20  2  0  0  0  0
 20 21  1  0  0  0  0
 20 22  1  0  0  0  0
 22 23  2  0  0  0  0
 23 24  1  0  0  0  0
 24 25  1  0  0  0  0
 24 26  2  0  0  0  0
 23 27  1  0  0  0  0
 27 28  2  0  0  0  0
 28 29  1  0  0  0  0
 29 30  2  0  0  0  0
 30 31  1  0  0  0  0
 31 32  1  0  0  0  0
 30 33  1  0  0  0  0
 33 34  2  0  0  0  0
 34 35  1  0  0  0  0
 35 36  1  0  0  0  0
 36 37  1  0  0  0  0
 35 38  2  0  0  0  0
 38 39  1  0  0  0  0
 34 40  1  0  0  0  0
 40 41  2  0  0  0  0
 41 42  1  0  0  0  0
 41 43  1  0  0  0  0
 43 44  2  0  0  0  0
 44 45  1  0  0  0  0
 44 46  1  0  0  0  0
 46 47  2  0  0  0  0
 47 48  1  0  0  0  0
 48 49  1  0  0  0  0
 48 50  2  0  0  0  0
 47 51  1  0  0  0  0
 51 52  2  0  0  0  0
 52 53  1  0  0  0  0
 53 54  2  0  0  0  0
 53 55  1  0  0  0  0
 55 56  2  0  0  0  0
 56 57  1  0  0  0  0
 57 58  1  0  0  0  0
 57 59  2  0  0  0  0
 59 60  1  0  0  0  0
 59 61  1  0  0  0  0
 61 62  2  0  0  0  0
 62 63  1  0  0  0  0
 63 64  2  0  0  0  0
 64 65  1  0  0  0  0
 65 66  3  0  0  0  0
 64 67  1  0  0  0  0
 67 68  3  0  0  0  0
 13  2  1  0  0  0  0
 26 19  1  0  0  0  0
 39 27  1  0  0  0  0
 50 43  1  0  0  0  0
 63 52  1  0  0  0  0
 12  5  1  0  0  0  0
 38 29  1  0  0  0  0
 62 55  1  0  0  0  0
 42 33  1  0  0  0  0
  1 69  1  0  0  0  0
  6 70  1  0  0  0  0
 11 71  1  0  0  0  0
 22 72  1  0  0  0  0
 26 73  1  0  0  0  0
 28 74  1  0  0  0  0
 31 75  1  0  0  0  0
 31 76  1  0  0  0  0
 32 77  1  0  0  0  0
 32 78  1  0  0  0  0
 32 79  1  0  0  0  0
 36 80  1  0  0  0  0
 36 81  1  0  0  0  0
 37 82  1  0  0  0  0
 37 83  1  0  0  0  0
 37 84  1  0  0  0  0
 40 85  1  0  0  0  0
 46 86  1  0  0  0  0
 50 87  1  0  0  0  0
 51 88  1  0  0  0  0
 56 89  1  0  0  0  0
 61 90  1  0  0  0  0
M  END
