
  xtb     02112202073D
 energy: -271.856594356001 gnorm: 0.000652171759 xtb: 6.4.1 (unknown)
136151  0     0  0            999 V2000
    2.6743   -3.7306    6.6569 C   0  0  0  0  0  0  0  0  0  0  0  0
    1.9874   -4.4896    7.5777 C   0  0  0  0  0  0  0  0  0  0  0  0
    0.8916   -5.4244    7.2622 C   0  0  0  0  0  0  0  0  0  0  0  0
    0.3724   -5.6484    6.1904 O   0  0  0  0  0  0  0  0  0  0  0  0
    0.6512   -6.1750    8.5230 C   0  0  0  0  0  0  0  0  0  0  0  0
   -0.2707   -7.1723    8.7643 C   0  0  0  0  0  0  0  0  0  0  0  0
   -0.2881   -7.7420   10.0285 C   0  0  0  0  0  0  0  0  0  0  0  0
   -1.1763   -8.7068   10.3077 F   0  0  0  0  0  0  0  0  0  0  0  0
    0.6063   -7.3226   11.0115 C   0  0  0  0  0  0  0  0  0  0  0  0
    0.5711   -7.8970   12.2213 F   0  0  0  0  0  0  0  0  0  0  0  0
    1.5370   -6.3224   10.7688 C   0  0  0  0  0  0  0  0  0  0  0  0
    1.5538   -5.7451    9.5100 C   0  0  0  0  0  0  0  0  0  0  0  0
    2.3718   -4.6703    8.9508 C   0  0  0  0  0  0  0  0  0  0  0  0
    3.2478   -3.8712    9.6474 C   0  0  0  0  0  0  0  0  0  0  0  0
    3.5987   -4.0699   10.9963 C   0  0  0  0  0  0  0  0  0  0  0  0
    3.9255   -4.1965   12.0899 N   0  0  0  0  0  0  0  0  0  0  0  0
    3.8401   -2.7136    9.1083 C   0  0  0  0  0  0  0  0  0  0  0  0
    4.3060   -1.7246    8.7521 N   0  0  0  0  0  0  0  0  0  0  0  0
    2.1934   -3.2428    5.4318 C   0  0  0  0  0  0  0  0  0  0  0  0
    0.8364   -2.9653    5.1362 C   0  0  0  0  0  0  0  0  0  0  0  0
    0.4429   -2.3119    3.9105 C   0  0  0  0  0  0  0  0  0  0  0  0
   -0.8716   -2.1160    3.8540 N   0  0  0  0  0  0  0  0  0  0  0  0
   -1.5462   -2.6823    5.2048 S   0  0  0  0  0  4  0  0  0  0  0  0
   -0.2064   -3.1686    5.9359 N   0  0  0  0  0  0  0  0  0  0  0  0
    1.3600   -1.8438    2.9297 C   0  0  0  0  0  0  0  0  0  0  0  0
    2.6960   -2.2490    3.1650 C   0  0  0  0  0  0  0  0  0  0  0  0
    3.7231   -2.1206    2.3232 N   0  0  0  0  0  0  0  0  0  0  0  0
    5.0540   -2.6969    3.0196 S   0  0  0  0  0  0  0  0  0  0  0  0
    4.4000   -3.1547    4.4158 N   0  0  0  0  0  0  0  0  0  0  0  0
    3.0973   -2.8869    4.3989 C   0  0  0  0  0  0  0  0  0  0  0  0
    0.8916   -1.0476    1.8640 C   0  0  0  0  0  0  0  0  0  0  0  0
    1.5569   -0.2395    0.9125 C   0  0  0  0  0  0  0  0  0  0  0  0
    2.8660    0.1768    0.8814 N   0  0  0  0  0  0  0  0  0  0  0  0
    3.3577    0.5320   -0.3995 C   0  0  0  0  0  0  0  0  0  0  0  0
    3.3209   -0.3994   -1.4334 C   0  0  0  0  0  0  0  0  0  0  0  0
    3.5826   -0.0090   -2.7314 C   0  0  0  0  0  0  0  0  0  0  0  0
    3.8727    1.3227   -3.0075 C   0  0  0  0  0  0  0  0  0  0  0  0
    3.9919    1.9493   -4.6532 S   0  0  0  0  0  0  0  0  0  0  0  0
    2.8778    0.8392   -5.5638 C   0  0  0  0  0  0  0  0  0  0  0  0
    4.0395    2.2234   -1.9575 C   0  0  0  0  0  0  0  0  0  0  0  0
    3.7879    1.8325   -0.6609 C   0  0  0  0  0  0  0  0  0  0  0  0
    3.6741    0.3861    1.9883 C   0  0  0  0  0  0  0  0  0  0  0  0
    5.0672    0.3907    1.8292 C   0  0  0  0  0  0  0  0  0  0  0  0
    5.8902    0.5045    2.9207 C   0  0  0  0  0  0  0  0  0  0  0  0
    5.3583    0.6338    4.2092 C   0  0  0  0  0  0  0  0  0  0  0  0
    6.5106    0.6949    5.5257 S   0  0  0  0  0  0  0  0  0  0  0  0
    5.4991    0.7231    7.0283 C   0  0  0  0  0  0  0  0  0  0  0  0
    3.9765    0.7196    4.3615 C   0  0  0  0  0  0  0  0  0  0  0  0
    3.1493    0.6151    3.2637 C   0  0  0  0  0  0  0  0  0  0  0  0
    0.6463    0.1964   -0.0794 C   0  0  0  0  0  0  0  0  0  0  0  0
    0.8198    1.2002   -1.4829 S   0  0  0  0  0  0  0  0  0  0  0  0
   -0.8755    0.9704   -1.8897 C   0  0  0  0  0  0  0  0  0  0  0  0
   -1.5804    0.3219   -0.8467 C   0  0  0  0  0  0  0  0  0  0  0  0
   -2.9323    0.2151   -0.6780 N   0  0  0  0  0  0  0  0  0  0  0  0
   -3.8775    1.0583   -1.2506 C   0  0  0  0  0  0  0  0  0  0  0  0
   -5.1823    0.5930   -1.4580 C   0  0  0  0  0  0  0  0  0  0  0  0
   -6.0895    1.3569   -2.1510 C   0  0  0  0  0  0  0  0  0  0  0  0
   -5.7295    2.6117   -2.6506 C   0  0  0  0  0  0  0  0  0  0  0  0
   -6.9024    3.4479   -3.6516 S   0  0  0  0  0  0  0  0  0  0  0  0
   -5.9049    4.6794   -4.5333 C   0  0  0  0  0  0  0  0  0  0  0  0
   -4.4777    3.1310   -2.3281 C   0  0  0  0  0  0  0  0  0  0  0  0
   -3.5727    2.3707   -1.6203 C   0  0  0  0  0  0  0  0  0  0  0  0
   -3.3861   -0.7977    0.2041 C   0  0  0  0  0  0  0  0  0  0  0  0
   -3.0835   -2.1342   -0.0490 C   0  0  0  0  0  0  0  0  0  0  0  0
   -3.4469   -3.1032    0.8586 C   0  0  0  0  0  0  0  0  0  0  0  0
   -4.1096   -2.7551    2.0363 C   0  0  0  0  0  0  0  0  0  0  0  0
   -4.4408   -4.0661    3.1592 S   0  0  0  0  0  0  0  0  0  0  0  0
   -5.2822   -3.2578    4.5501 C   0  0  0  0  0  0  0  0  0  0  0  0
   -4.4546   -1.4278    2.2626 C   0  0  0  0  0  0  0  0  0  0  0  0
   -4.0983   -0.4573    1.3477 C   0  0  0  0  0  0  0  0  0  0  0  0
   -0.6731   -0.1633    0.1281 C   0  0  0  0  0  0  0  0  0  0  0  0
   -0.8517   -1.0641    1.6025 S   0  0  0  0  0  0  0  0  0  0  0  0
   -1.2417    1.3844   -3.1859 C   0  0  0  0  0  0  0  0  0  0  0  0
   -2.3922    0.9939   -3.9135 C   0  0  0  0  0  0  0  0  0  0  0  0
   -2.7067    1.5533   -5.2094 C   0  0  0  0  0  0  0  0  0  0  0  0
   -3.8390    1.0558   -5.6988 N   0  0  0  0  0  0  0  0  0  0  0  0
   -4.4335   -0.0275   -4.6675 S   0  0  0  0  0  4  0  0  0  0  0  0
   -3.2888    0.0803   -3.5411 N   0  0  0  0  0  0  0  0  0  0  0  0
   -1.8564    2.4525   -5.9040 C   0  0  0  0  0  0  0  0  0  0  0  0
   -0.6745    2.7951   -5.2053 C   0  0  0  0  0  0  0  0  0  0  0  0
    0.2493    3.6764   -5.5872 N   0  0  0  0  0  0  0  0  0  0  0  0
    1.3986    3.7711   -4.4761 S   0  0  0  0  0  0  0  0  0  0  0  0
    0.7636    2.7371   -3.4164 N   0  0  0  0  0  0  0  0  0  0  0  0
   -0.3823    2.2591   -3.9017 C   0  0  0  0  0  0  0  0  0  0  0  0
   -2.2335    2.9837   -7.1473 C   0  0  0  0  0  0  0  0  0  0  0  0
   -1.3877    3.4645   -8.1228 C   0  0  0  0  0  0  0  0  0  0  0  0
    0.0031    3.0307   -8.3326 C   0  0  0  0  0  0  0  0  0  0  0  0
    0.6634    2.2434   -7.6831 O   0  0  0  0  0  0  0  0  0  0  0  0
    0.4091    3.6386   -9.6249 C   0  0  0  0  0  0  0  0  0  0  0  0
    1.6196    3.5357  -10.2787 C   0  0  0  0  0  0  0  0  0  0  0  0
    1.7499    4.1797  -11.4998 C   0  0  0  0  0  0  0  0  0  0  0  0
    2.9125    4.1092  -12.1636 F   0  0  0  0  0  0  0  0  0  0  0  0
    0.6863    4.8970  -12.0440 C   0  0  0  0  0  0  0  0  0  0  0  0
    0.8387    5.5018  -13.2291 F   0  0  0  0  0  0  0  0  0  0  0  0
   -0.5327    4.9991  -11.3885 C   0  0  0  0  0  0  0  0  0  0  0  0
   -0.6668    4.3618  -10.1664 C   0  0  0  0  0  0  0  0  0  0  0  0
   -1.7871    4.2930   -9.2295 C   0  0  0  0  0  0  0  0  0  0  0  0
   -2.9611    5.0010   -9.3207 C   0  0  0  0  0  0  0  0  0  0  0  0
   -3.9283    5.0554   -8.2975 C   0  0  0  0  0  0  0  0  0  0  0  0
   -4.7309    5.1890   -7.4856 N   0  0  0  0  0  0  0  0  0  0  0  0
   -3.3133    5.8100  -10.4186 C   0  0  0  0  0  0  0  0  0  0  0  0
   -3.6535    6.4724  -11.2928 N   0  0  0  0  0  0  0  0  0  0  0  0
    3.7115   -3.4903    6.8608 H   0  0  0  0  0  0  0  0  0  0  0  0
   -0.9598   -7.4994    8.0022 H   0  0  0  0  0  0  0  0  0  0  0  0
    2.2135   -6.0339   11.5568 H   0  0  0  0  0  0  0  0  0  0  0  0
    3.0478   -1.4206   -1.2136 H   0  0  0  0  0  0  0  0  0  0  0  0
    3.5332   -0.7378   -3.5244 H   0  0  0  0  0  0  0  0  0  0  0  0
    2.0470    0.5708   -4.9184 H   0  0  0  0  0  0  0  0  0  0  0  0
    3.4146   -0.0441   -5.8966 H   0  0  0  0  0  0  0  0  0  0  0  0
    2.5074    1.3938   -6.4221 H   0  0  0  0  0  0  0  0  0  0  0  0
    4.3159    3.2423   -2.1770 H   0  0  0  0  0  0  0  0  0  0  0  0
    3.8617    2.5430    0.1483 H   0  0  0  0  0  0  0  0  0  0  0  0
    5.4908    0.2484    0.8477 H   0  0  0  0  0  0  0  0  0  0  0  0
    6.9621    0.4767    2.8015 H   0  0  0  0  0  0  0  0  0  0  0  0
    4.8877    1.6203    7.0499 H   0  0  0  0  0  0  0  0  0  0  0  0
    6.2064    0.7437    7.8516 H   0  0  0  0  0  0  0  0  0  0  0  0
    4.8978   -0.1781    7.0990 H   0  0  0  0  0  0  0  0  0  0  0  0
    3.5365    0.8640    5.3351 H   0  0  0  0  0  0  0  0  0  0  0  0
    2.0818    0.6993    3.3980 H   0  0  0  0  0  0  0  0  0  0  0  0
   -5.4525   -0.3982   -1.1300 H   0  0  0  0  0  0  0  0  0  0  0  0
   -7.0811    0.9814   -2.3494 H   0  0  0  0  0  0  0  0  0  0  0  0
   -5.0247    4.2033   -4.9541 H   0  0  0  0  0  0  0  0  0  0  0  0
   -5.6372    5.4971   -3.8703 H   0  0  0  0  0  0  0  0  0  0  0  0
   -6.5288    5.0509   -5.3398 H   0  0  0  0  0  0  0  0  0  0  0  0
   -4.2020    4.1293   -2.6281 H   0  0  0  0  0  0  0  0  0  0  0  0
   -2.6118    2.7923   -1.3681 H   0  0  0  0  0  0  0  0  0  0  0  0
   -2.5554   -2.3951   -0.9534 H   0  0  0  0  0  0  0  0  0  0  0  0
   -3.2089   -4.1397    0.6780 H   0  0  0  0  0  0  0  0  0  0  0  0
   -6.2225   -2.8282    4.2174 H   0  0  0  0  0  0  0  0  0  0  0  0
   -5.4749   -4.0468    5.2704 H   0  0  0  0  0  0  0  0  0  0  0  0
   -4.6336   -2.5067    4.9915 H   0  0  0  0  0  0  0  0  0  0  0  0
   -4.9844   -1.1336    3.1532 H   0  0  0  0  0  0  0  0  0  0  0  0
   -4.3497    0.5769    1.5303 H   0  0  0  0  0  0  0  0  0  0  0  0
   -3.2981    2.9664   -7.3492 H   0  0  0  0  0  0  0  0  0  0  0  0
    2.4433    2.9795   -9.8605 H   0  0  0  0  0  0  0  0  0  0  0  0
   -1.3293    5.5599  -11.8495 H   0  0  0  0  0  0  0  0  0  0  0  0
  1  2  2  0  0  0  0
  2  3  1  0  0  0  0
  3  4  2  0  0  0  0
  3  5  1  0  0  0  0
  5  6  2  0  0  0  0
  6  7  1  0  0  0  0
  7  8  1  0  0  0  0
  7  9  2  0  0  0  0
  9 10  1  0  0  0  0
  9 11  1  0  0  0  0
 11 12  2  0  0  0  0
 12 13  1  0  0  0  0
 13 14  2  0  0  0  0
 14 15  1  0  0  0  0
 15 16  3  0  0  0  0
 14 17  1  0  0  0  0
 17 18  3  0  0  0  0
  1 19  1  0  0  0  0
 19 20  2  0  0  0  0
 20 21  1  0  0  0  0
 21 22  1  0  0  0  0
 22 23  2  0  0  0  0
 23 24  2  0  0  0  0
 21 25  2  0  0  0  0
 25 26  1  0  0  0  0
 26 27  2  0  0  0  0
 27 28  1  0  0  0  0
 28 29  1  0  0  0  0
 29 30  2  0  0  0  0
 25 31  1  0  0  0  0
 31 32  2  0  0  0  0
 32 33  1  0  0  0  0
 33 34  1  0  0  0  0
 34 35  2  0  0  0  0
 35 36  1  0  0  0  0
 36 37  2  0  0  0  0
 37 38  1  0  0  0  0
 38 39  1  0  0  0  0
 37 40  1  0  0  0  0
 40 41  2  0  0  0  0
 33 42  1  0  0  0  0
 42 43  2  0  0  0  0
 43 44  1  0  0  0  0
 44 45  2  0  0  0  0
 45 46  1  0  0  0  0
 46 47  1  0  0  0  0
 45 48  1  0  0  0  0
 48 49  2  0  0  0  0
 32 50  1  0  0  0  0
 50 51  1  0  0  0  0
 51 52  1  0  0  0  0
 52 53  2  0  0  0  0
 53 54  1  0  0  0  0
 54 55  1  0  0  0  0
 55 56  2  0  0  0  0
 56 57  1  0  0  0  0
 57 58  2  0  0  0  0
 58 59  1  0  0  0  0
 59 60  1  0  0  0  0
 58 61  1  0  0  0  0
 61 62  2  0  0  0  0
 54 63  1  0  0  0  0
 63 64  2  0  0  0  0
 64 65  1  0  0  0  0
 65 66  2  0  0  0  0
 66 67  1  0  0  0  0
 67 68  1  0  0  0  0
 66 69  1  0  0  0  0
 69 70  2  0  0  0  0
 53 71  1  0  0  0  0
 71 72  1  0  0  0  0
 52 73  1  0  0  0  0
 73 74  2  0  0  0  0
 74 75  1  0  0  0  0
 75 76  1  0  0  0  0
 76 77  2  0  0  0  0
 77 78  2  0  0  0  0
 75 79  2  0  0  0  0
 79 80  1  0  0  0  0
 80 81  2  0  0  0  0
 81 82  1  0  0  0  0
 82 83  1  0  0  0  0
 83 84  2  0  0  0  0
 79 85  1  0  0  0  0
 85 86  2  0  0  0  0
 86 87  1  0  0  0  0
 87 88  2  0  0  0  0
 87 89  1  0  0  0  0
 89 90  2  0  0  0  0
 90 91  1  0  0  0  0
 91 92  1  0  0  0  0
 91 93  2  0  0  0  0
 93 94  1  0  0  0  0
 93 95  1  0  0  0  0
 95 96  2  0  0  0  0
 96 97  1  0  0  0  0
 97 98  2  0  0  0  0
 98 99  1  0  0  0  0
 99100  3  0  0  0  0
 98101  1  0  0  0  0
101102  3  0  0  0  0
 13  2  1  0  0  0  0
 30 19  1  0  0  0  0
 72 31  1  0  0  0  0
 84 73  1  0  0  0  0
 97 86  1  0  0  0  0
 12  5  1  0  0  0  0
 24 20  1  0  0  0  0
 30 26  1  0  0  0  0
 41 34  1  0  0  0  0
 49 42  1  0  0  0  0
 71 50  2  0  0  0  0
 78 74  1  0  0  0  0
 84 80  1  0  0  0  0
 96 89  1  0  0  0  0
 62 55  1  0  0  0  0
 70 63  1  0  0  0  0
  1103  1  0  0  0  0
  6104  1  0  0  0  0
 11105  1  0  0  0  0
 35106  1  0  0  0  0
 36107  1  0  0  0  0
 39108  1  0  0  0  0
 39109  1  0  0  0  0
 39110  1  0  0  0  0
 40111  1  0  0  0  0
 41112  1  0  0  0  0
 43113  1  0  0  0  0
 44114  1  0  0  0  0
 47115  1  0  0  0  0
 47116  1  0  0  0  0
 47117  1  0  0  0  0
 48118  1  0  0  0  0
 49119  1  0  0  0  0
 56120  1  0  0  0  0
 57121  1  0  0  0  0
 60122  1  0  0  0  0
 60123  1  0  0  0  0
 60124  1  0  0  0  0
 61125  1  0  0  0  0
 62126  1  0  0  0  0
 64127  1  0  0  0  0
 65128  1  0  0  0  0
 68129  1  0  0  0  0
 68130  1  0  0  0  0
 68131  1  0  0  0  0
 69132  1  0  0  0  0
 70133  1  0  0  0  0
 85134  1  0  0  0  0
 90135  1  0  0  0  0
 95136  1  0  0  0  0
M  END
