
  xtb     02092207283D
 energy: -368.982306896254 gnorm: 0.000564729278 xtb: 6.4.1 (unknown)
215233  0     0  0            999 V2000
   -6.9719    5.0833    2.8181 C   0  0  0  0  0  0  0  0  0  0  0  0
   -7.1163    6.4041    2.5247 C   0  0  0  0  0  0  0  0  0  0  0  0
   -7.8782    7.3112    3.4228 C   0  0  0  0  0  0  0  0  0  0  0  0
   -8.6102    6.9961    4.3307 O   0  0  0  0  0  0  0  0  0  0  0  0
   -7.4786    8.6758    3.0043 C   0  0  0  0  0  0  0  0  0  0  0  0
   -7.7887    9.8867    3.5916 C   0  0  0  0  0  0  0  0  0  0  0  0
   -7.2579   11.0328    3.0209 C   0  0  0  0  0  0  0  0  0  0  0  0
   -7.5279   12.2272    3.5623 F   0  0  0  0  0  0  0  0  0  0  0  0
   -6.4398   10.9579    1.8923 C   0  0  0  0  0  0  0  0  0  0  0  0
   -5.9287   12.0820    1.3781 F   0  0  0  0  0  0  0  0  0  0  0  0
   -6.1378    9.7447    1.2925 C   0  0  0  0  0  0  0  0  0  0  0  0
   -6.6667    8.5964    1.8579 C   0  0  0  0  0  0  0  0  0  0  0  0
   -6.5475    7.1980    1.4636 C   0  0  0  0  0  0  0  0  0  0  0  0
   -6.2360    6.7448    0.2074 C   0  0  0  0  0  0  0  0  0  0  0  0
   -6.3630    5.3927   -0.1721 C   0  0  0  0  0  0  0  0  0  0  0  0
   -6.4882    4.3093   -0.5302 N   0  0  0  0  0  0  0  0  0  0  0  0
   -5.9003    7.5850   -0.8688 C   0  0  0  0  0  0  0  0  0  0  0  0
   -5.6433    8.2236   -1.7878 N   0  0  0  0  0  0  0  0  0  0  0  0
   -5.9008    4.2401    2.4265 C   0  0  0  0  0  0  0  0  0  0  0  0
   -4.5654    4.5862    2.2563 C   0  0  0  0  0  0  0  0  0  0  0  0
   -4.0336    5.8926    2.3302 N   0  0  0  0  0  0  0  0  0  0  0  0
   -3.4261    6.1618    3.5845 C   0  0  0  0  0  0  0  0  0  0  0  0
   -2.0656    6.4270    3.6996 C   0  0  0  0  0  0  0  0  0  0  0  0
   -1.4983    6.6812    4.9332 C   0  0  0  0  0  0  0  0  0  0  0  0
   -2.2848    6.6646    6.0778 C   0  0  0  0  0  0  0  0  0  0  0  0
   -1.6882    7.0082    7.6985 S   0  0  0  0  0  0  0  0  0  0  0  0
    0.0752    7.3565    7.4596 C   0  0  0  0  0  0  0  0  0  0  0  0
   -3.6423    6.3666    5.9682 C   0  0  0  0  0  0  0  0  0  0  0  0
   -4.2071    6.1139    4.7380 C   0  0  0  0  0  0  0  0  0  0  0  0
   -3.5240    6.4850    1.1723 C   0  0  0  0  0  0  0  0  0  0  0  0
   -3.1484    7.8321    1.2056 C   0  0  0  0  0  0  0  0  0  0  0  0
   -2.6849    8.4565    0.0698 C   0  0  0  0  0  0  0  0  0  0  0  0
   -2.6000    7.7610   -1.1343 C   0  0  0  0  0  0  0  0  0  0  0  0
   -2.0181    8.6216   -2.5634 S   0  0  0  0  0  0  0  0  0  0  0  0
   -3.0972    7.9387   -3.8577 C   0  0  0  0  0  0  0  0  0  0  0  0
   -2.9650    6.4241   -1.1763 C   0  0  0  0  0  0  0  0  0  0  0  0
   -3.4295    5.7953   -0.0379 C   0  0  0  0  0  0  0  0  0  0  0  0
   -3.7561    3.4434    2.1374 C   0  0  0  0  0  0  0  0  0  0  0  0
   -2.0694    3.2276    1.8540 S   0  0  0  0  0  0  0  0  0  0  0  0
   -2.3085    1.4964    1.7038 C   0  0  0  0  0  0  0  0  0  0  0  0
   -3.6369    1.1138    1.8487 C   0  0  0  0  0  0  0  0  0  0  0  0
   -4.1130   -0.1683    1.6228 N   0  0  0  0  0  0  0  0  0  0  0  0
   -5.2167   -0.6730    2.3091 C   0  0  0  0  0  0  0  0  0  0  0  0
   -5.5626   -0.2046    3.5765 C   0  0  0  0  0  0  0  0  0  0  0  0
   -6.6303   -0.7444    4.2681 C   0  0  0  0  0  0  0  0  0  0  0  0
   -7.3796   -1.7675    3.7074 C   0  0  0  0  0  0  0  0  0  0  0  0
   -8.7217   -2.5737    4.5309 S   0  0  0  0  0  0  0  0  0  0  0  0
   -9.1903   -1.3908    5.8261 C   0  0  0  0  0  0  0  0  0  0  0  0
   -7.0501   -2.2303    2.4351 C   0  0  0  0  0  0  0  0  0  0  0  0
   -5.9923   -1.6877    1.7427 C   0  0  0  0  0  0  0  0  0  0  0  0
   -3.5119   -0.9105    0.5822 C   0  0  0  0  0  0  0  0  0  0  0  0
   -3.2624   -0.3013   -0.6463 C   0  0  0  0  0  0  0  0  0  0  0  0
   -2.5798   -0.9789   -1.6304 C   0  0  0  0  0  0  0  0  0  0  0  0
   -2.1071   -2.2703   -1.4035 C   0  0  0  0  0  0  0  0  0  0  0  0
   -1.1093   -2.9763   -2.6760 S   0  0  0  0  0  0  0  0  0  0  0  0
   -0.6368   -4.5982   -2.0181 C   0  0  0  0  0  0  0  0  0  0  0  0
   -2.4258   -2.9080   -0.2122 C   0  0  0  0  0  0  0  0  0  0  0  0
   -3.1372   -2.2370    0.7635 C   0  0  0  0  0  0  0  0  0  0  0  0
   -4.4498    2.2397    2.1354 C   0  0  0  0  0  0  0  0  0  0  0  0
   -6.1379    2.5026    2.3880 S   0  0  0  0  0  0  0  0  0  0  0  0
   -1.2006    0.6951    1.2596 C   0  0  0  0  0  0  0  0  0  0  0  0
   -0.6515   -0.4346    1.8375 C   0  0  0  0  0  0  0  0  0  0  0  0
   -0.8638   -0.7465    3.1914 N   0  0  0  0  0  0  0  0  0  0  0  0
   -0.6456    0.2618    4.1359 C   0  0  0  0  0  0  0  0  0  0  0  0
   -0.9918    0.0890    5.4780 C   0  0  0  0  0  0  0  0  0  0  0  0
   -0.8175    1.1011    6.4028 C   0  0  0  0  0  0  0  0  0  0  0  0
   -0.2763    2.3182    6.0188 C   0  0  0  0  0  0  0  0  0  0  0  0
   -0.0694    3.6967    7.1054 S   0  0  0  0  0  0  0  0  0  0  0  0
   -1.2931    3.3849    8.4088 C   0  0  0  0  0  0  0  0  0  0  0  0
    0.1731    2.4643    4.7124 C   0  0  0  0  0  0  0  0  0  0  0  0
    0.0067    1.4526    3.7947 C   0  0  0  0  0  0  0  0  0  0  0  0
   -1.6042   -1.9078    3.5280 C   0  0  0  0  0  0  0  0  0  0  0  0
   -1.1125   -3.1803    3.2568 C   0  0  0  0  0  0  0  0  0  0  0  0
   -1.8848   -4.2936    3.5138 C   0  0  0  0  0  0  0  0  0  0  0  0
   -3.1595   -4.1638    4.0635 C   0  0  0  0  0  0  0  0  0  0  0  0
   -4.0834   -5.6460    4.3019 S   0  0  0  0  0  0  0  0  0  0  0  0
   -5.7068   -5.0641    4.8643 C   0  0  0  0  0  0  0  0  0  0  0  0
   -3.6312   -2.8985    4.3877 C   0  0  0  0  0  0  0  0  0  0  0  0
   -2.8581   -1.7874    4.1164 C   0  0  0  0  0  0  0  0  0  0  0  0
    0.2690   -1.0409    0.9472 C   0  0  0  0  0  0  0  0  0  0  0  0
    1.1358   -2.5345    0.8999 S   0  0  0  0  0  0  0  0  0  0  0  0
    1.8532   -2.1329   -0.6639 C   0  0  0  0  0  0  0  0  0  0  0  0
    1.5096   -0.8383   -1.0554 C   0  0  0  0  0  0  0  0  0  0  0  0
    2.1084   -0.1369   -2.0784 N   0  0  0  0  0  0  0  0  0  0  0  0
    3.4670   -0.3111   -2.3872 C   0  0  0  0  0  0  0  0  0  0  0  0
    4.4039   -0.6353   -1.4123 C   0  0  0  0  0  0  0  0  0  0  0  0
    5.7227   -0.8685   -1.7485 C   0  0  0  0  0  0  0  0  0  0  0  0
    6.1304   -0.7673   -3.0719 C   0  0  0  0  0  0  0  0  0  0  0  0
    7.7723   -1.0855   -3.6318 S   0  0  0  0  0  0  0  0  0  0  0  0
    8.6908   -1.4657   -2.1120 C   0  0  0  0  0  0  0  0  0  0  0  0
    5.2042   -0.3954   -4.0461 C   0  0  0  0  0  0  0  0  0  0  0  0
    3.8895   -0.1687   -3.7104 C   0  0  0  0  0  0  0  0  0  0  0  0
    1.4520    0.9912   -2.6097 C   0  0  0  0  0  0  0  0  0  0  0  0
    0.1699    0.8769   -3.1419 C   0  0  0  0  0  0  0  0  0  0  0  0
   -0.4966    2.0017   -3.5784 C   0  0  0  0  0  0  0  0  0  0  0  0
    0.1081    3.2555   -3.4991 C   0  0  0  0  0  0  0  0  0  0  0  0
   -0.8533    4.6420   -4.0090 S   0  0  0  0  0  0  0  0  0  0  0  0
    0.2752    6.0511   -3.8172 C   0  0  0  0  0  0  0  0  0  0  0  0
    1.4087    3.3600   -3.0219 C   0  0  0  0  0  0  0  0  0  0  0  0
    2.0745    2.2342   -2.5821 C   0  0  0  0  0  0  0  0  0  0  0  0
    0.5387   -0.2845   -0.1852 C   0  0  0  0  0  0  0  0  0  0  0  0
   -0.4005    1.1612   -0.2311 S   0  0  0  0  0  0  0  0  0  0  0  0
    2.5294   -3.1048   -1.4496 C   0  0  0  0  0  0  0  0  0  0  0  0
    3.1924   -4.2751   -1.0652 C   0  0  0  0  0  0  0  0  0  0  0  0
    3.4827   -4.6004    0.3696 C   0  0  0  0  0  0  0  0  0  0  0  0
    4.5136   -3.6377    0.9597 C   0  0  0  0  0  0  0  0  0  0  0  0
    3.6342   -5.0021   -2.1749 C   0  0  0  0  0  0  0  0  0  0  0  0
    3.3439   -4.3640   -3.3853 C   0  0  0  0  0  0  0  0  0  0  0  0
    2.4556   -2.9169   -3.1928 S   0  0  0  0  0  0  0  0  0  0  0  0
    3.9184   -5.0577   -4.4612 C   0  0  0  0  0  0  0  0  0  0  0  0
    4.5820   -6.1899   -3.9514 C   0  0  0  0  0  0  0  0  0  0  0  0
    4.4022   -6.2887   -2.4477 C   0  0  0  0  0  0  0  0  0  0  0  0
    3.5371   -7.5507   -2.2220 C   0  0  0  0  0  0  0  0  0  0  0  0
    3.0887   -7.8336   -0.7956 C   0  0  0  0  0  0  0  0  0  0  0  0
    5.7422   -6.2846   -1.6907 C   0  0  0  0  0  0  0  0  0  0  0  0
    6.6798   -7.4400   -2.0161 C   0  0  0  0  0  0  0  0  0  0  0  0
    5.1368   -6.9451   -4.9525 C   0  0  0  0  0  0  0  0  0  0  0  0
    4.9487   -6.3889   -6.2341 C   0  0  0  0  0  0  0  0  0  0  0  0
    4.0227   -4.8921   -6.1578 S   0  0  0  0  0  0  0  0  0  0  0  0
    5.4498   -7.0042   -7.3786 C   0  0  0  0  0  0  0  0  0  0  0  0
    5.3821   -6.6293   -8.7052 C   0  0  0  0  0  0  0  0  0  0  0  0
    4.7466   -5.4167   -9.2147 C   0  0  0  0  0  0  0  0  0  0  0  0
    4.1642   -4.5507   -8.5858 O   0  0  0  0  0  0  0  0  0  0  0  0
    4.9490   -5.4357  -10.6802 C   0  0  0  0  0  0  0  0  0  0  0  0
    4.5406   -4.5072  -11.6154 C   0  0  0  0  0  0  0  0  0  0  0  0
    4.8555   -4.7522  -12.9428 C   0  0  0  0  0  0  0  0  0  0  0  0
    4.4798   -3.8780  -13.8863 F   0  0  0  0  0  0  0  0  0  0  0  0
    5.5594   -5.8994  -13.3048 C   0  0  0  0  0  0  0  0  0  0  0  0
    5.8511   -6.1114  -14.5944 F   0  0  0  0  0  0  0  0  0  0  0  0
    5.9691   -6.8327  -12.3629 C   0  0  0  0  0  0  0  0  0  0  0  0
    5.6586   -6.5951  -11.0338 C   0  0  0  0  0  0  0  0  0  0  0  0
    5.9390   -7.3632   -9.8174 C   0  0  0  0  0  0  0  0  0  0  0  0
    6.6067   -8.5630   -9.7853 C   0  0  0  0  0  0  0  0  0  0  0  0
    7.1160   -9.2151  -10.9271 C   0  0  0  0  0  0  0  0  0  0  0  0
    7.5544   -9.7993  -11.8130 N   0  0  0  0  0  0  0  0  0  0  0  0
    6.8820   -9.3242   -8.6314 C   0  0  0  0  0  0  0  0  0  0  0  0
    7.1489  -10.0066   -7.7459 N   0  0  0  0  0  0  0  0  0  0  0  0
   -7.6813    4.6648    3.5244 H   0  0  0  0  0  0  0  0  0  0  0  0
   -8.4194    9.9469    4.4641 H   0  0  0  0  0  0  0  0  0  0  0  0
   -5.4981    9.7266    0.4249 H   0  0  0  0  0  0  0  0  0  0  0  0
   -1.4455    6.4307    2.8152 H   0  0  0  0  0  0  0  0  0  0  0  0
   -0.4402    6.8776    4.9881 H   0  0  0  0  0  0  0  0  0  0  0  0
    0.4626    7.5879    8.4469 H   0  0  0  0  0  0  0  0  0  0  0  0
    0.5712    6.4744    7.0657 H   0  0  0  0  0  0  0  0  0  0  0  0
    0.1966    8.2151    6.8056 H   0  0  0  0  0  0  0  0  0  0  0  0
   -4.2491    6.3431    6.8604 H   0  0  0  0  0  0  0  0  0  0  0  0
   -5.2601    5.8888    4.6661 H   0  0  0  0  0  0  0  0  0  0  0  0
   -3.2340    8.3817    2.1316 H   0  0  0  0  0  0  0  0  0  0  0  0
   -2.3994    9.4968    0.0986 H   0  0  0  0  0  0  0  0  0  0  0  0
   -2.9923    8.5976   -4.7138 H   0  0  0  0  0  0  0  0  0  0  0  0
   -4.1190    7.9562   -3.4903 H   0  0  0  0  0  0  0  0  0  0  0  0
   -2.7931    6.9306   -4.1248 H   0  0  0  0  0  0  0  0  0  0  0  0
   -2.8886    5.8591   -2.0917 H   0  0  0  0  0  0  0  0  0  0  0  0
   -3.7092    4.7556   -0.0988 H   0  0  0  0  0  0  0  0  0  0  0  0
   -4.9810    0.5724    4.0492 H   0  0  0  0  0  0  0  0  0  0  0  0
   -6.8565   -0.3644    5.2516 H   0  0  0  0  0  0  0  0  0  0  0  0
   -9.3098   -0.4045    5.3883 H   0  0  0  0  0  0  0  0  0  0  0  0
  -10.1404   -1.7426    6.2156 H   0  0  0  0  0  0  0  0  0  0  0  0
   -8.4498   -1.3834    6.6209 H   0  0  0  0  0  0  0  0  0  0  0  0
   -7.6424   -3.0167    1.9925 H   0  0  0  0  0  0  0  0  0  0  0  0
   -5.7650   -2.0455    0.7507 H   0  0  0  0  0  0  0  0  0  0  0  0
   -3.5987    0.7096   -0.8230 H   0  0  0  0  0  0  0  0  0  0  0  0
   -2.3979   -0.5063   -2.5821 H   0  0  0  0  0  0  0  0  0  0  0  0
    0.0190   -5.0346   -2.7655 H   0  0  0  0  0  0  0  0  0  0  0  0
   -1.5182   -5.2199   -1.8915 H   0  0  0  0  0  0  0  0  0  0  0  0
   -0.0992   -4.4776   -1.0817 H   0  0  0  0  0  0  0  0  0  0  0  0
   -2.1193   -3.9230   -0.0193 H   0  0  0  0  0  0  0  0  0  0  0  0
   -3.3898   -2.7460    1.6787 H   0  0  0  0  0  0  0  0  0  0  0  0
   -1.3912   -0.8532    5.8189 H   0  0  0  0  0  0  0  0  0  0  0  0
   -1.1084    0.9225    7.4262 H   0  0  0  0  0  0  0  0  0  0  0  0
   -2.2395    3.1141    7.9507 H   0  0  0  0  0  0  0  0  0  0  0  0
   -0.9410    2.6061    9.0793 H   0  0  0  0  0  0  0  0  0  0  0  0
   -1.3980    4.3205    8.9494 H   0  0  0  0  0  0  0  0  0  0  0  0
    0.6527    3.3847    4.4166 H   0  0  0  0  0  0  0  0  0  0  0  0
    0.3947    1.6036    2.8002 H   0  0  0  0  0  0  0  0  0  0  0  0
   -0.1243   -3.2980    2.8435 H   0  0  0  0  0  0  0  0  0  0  0  0
   -1.5095   -5.2806    3.2911 H   0  0  0  0  0  0  0  0  0  0  0  0
   -6.3236   -5.9536    4.9446 H   0  0  0  0  0  0  0  0  0  0  0  0
   -6.1344   -4.3848    4.1324 H   0  0  0  0  0  0  0  0  0  0  0  0
   -5.6183   -4.5915    5.8382 H   0  0  0  0  0  0  0  0  0  0  0  0
   -4.6035   -2.7583    4.8307 H   0  0  0  0  0  0  0  0  0  0  0  0
   -3.2373   -0.8078    4.3556 H   0  0  0  0  0  0  0  0  0  0  0  0
    4.1013   -0.7031   -0.3781 H   0  0  0  0  0  0  0  0  0  0  0  0
    6.4191   -1.1226   -0.9659 H   0  0  0  0  0  0  0  0  0  0  0  0
    8.2869   -2.3586   -1.6435 H   0  0  0  0  0  0  0  0  0  0  0  0
    9.7130   -1.6481   -2.4286 H   0  0  0  0  0  0  0  0  0  0  0  0
    8.6614   -0.6160   -1.4364 H   0  0  0  0  0  0  0  0  0  0  0  0
    5.5286   -0.3048   -5.0710 H   0  0  0  0  0  0  0  0  0  0  0  0
    3.1710    0.0999   -4.4695 H   0  0  0  0  0  0  0  0  0  0  0  0
   -0.2839   -0.1003   -3.2055 H   0  0  0  0  0  0  0  0  0  0  0  0
   -1.4948    1.9253   -3.9818 H   0  0  0  0  0  0  0  0  0  0  0  0
    1.1520    5.9082   -4.4416 H   0  0  0  0  0  0  0  0  0  0  0  0
   -0.2730    6.9260   -4.1515 H   0  0  0  0  0  0  0  0  0  0  0  0
    0.5423    6.1718   -2.7714 H   0  0  0  0  0  0  0  0  0  0  0  0
    1.9102    4.3122   -2.9690 H   0  0  0  0  0  0  0  0  0  0  0  0
    3.0792    2.3201   -2.1944 H   0  0  0  0  0  0  0  0  0  0  0  0
    3.8689   -5.6136    0.4403 H   0  0  0  0  0  0  0  0  0  0  0  0
    2.5653   -4.5538    0.9598 H   0  0  0  0  0  0  0  0  0  0  0  0
    4.7696   -3.9394    1.9723 H   0  0  0  0  0  0  0  0  0  0  0  0
    5.4178   -3.6381    0.3551 H   0  0  0  0  0  0  0  0  0  0  0  0
    4.1217   -2.6255    0.9933 H   0  0  0  0  0  0  0  0  0  0  0  0
    2.6489   -7.4500   -2.8516 H   0  0  0  0  0  0  0  0  0  0  0  0
    4.1016   -8.4058   -2.5962 H   0  0  0  0  0  0  0  0  0  0  0  0
    2.4252   -7.0533   -0.4336 H   0  0  0  0  0  0  0  0  0  0  0  0
    3.9369   -7.9282   -0.1223 H   0  0  0  0  0  0  0  0  0  0  0  0
    2.5425   -8.7744   -0.7758 H   0  0  0  0  0  0  0  0  0  0  0  0
    6.2455   -5.3430   -1.9269 H   0  0  0  0  0  0  0  0  0  0  0  0
    5.5410   -6.2883   -0.6198 H   0  0  0  0  0  0  0  0  0  0  0  0
    7.5698   -7.3666   -1.3946 H   0  0  0  0  0  0  0  0  0  0  0  0
    6.9932   -7.4085   -3.0550 H   0  0  0  0  0  0  0  0  0  0  0  0
    6.2104   -8.3995   -1.8174 H   0  0  0  0  0  0  0  0  0  0  0  0
    5.6633   -7.8746   -4.8285 H   0  0  0  0  0  0  0  0  0  0  0  0
    5.9764   -7.9271   -7.1684 H   0  0  0  0  0  0  0  0  0  0  0  0
    3.9963   -3.6214  -11.3293 H   0  0  0  0  0  0  0  0  0  0  0  0
    6.5108   -7.7021  -12.6968 H   0  0  0  0  0  0  0  0  0  0  0  0
  1  2  2  0  0  0  0
  2  3  1  0  0  0  0
  3  4  2  0  0  0  0
  3  5  1  0  0  0  0
  5  6  2  0  0  0  0
  6  7  1  0  0  0  0
  7  8  1  0  0  0  0
  7  9  2  0  0  0  0
  9 10  1  0  0  0  0
  9 11  1  0  0  0  0
 11 12  2  0  0  0  0
 12 13  1  0  0  0  0
 13 14  2  0  0  0  0
 14 15  1  0  0  0  0
 15 16  3  0  0  0  0
 14 17  1  0  0  0  0
 17 18  3  0  0  0  0
  1 19  1  0  0  0  0
 19 20  2  0  0  0  0
 20 21  1  0  0  0  0
 21 22  1  0  0  0  0
 22 23  2  0  0  0  0
 23 24  1  0  0  0  0
 24 25  2  0  0  0  0
 25 26  1  0  0  0  0
 26 27  1  0  0  0  0
 25 28  1  0  0  0  0
 28 29  2  0  0  0  0
 21 30  1  0  0  0  0
 30 31  2  0  0  0  0
 31 32  1  0  0  0  0
 32 33  2  0  0  0  0
 33 34  1  0  0  0  0
 34 35  1  0  0  0  0
 33 36  1  0  0  0  0
 36 37  2  0  0  0  0
 20 38  1  0  0  0  0
 38 39  1  0  0  0  0
 39 40  1  0  0  0  0
 40 41  2  0  0  0  0
 41 42  1  0  0  0  0
 42 43  1  0  0  0  0
 43 44  2  0  0  0  0
 44 45  1  0  0  0  0
 45 46  2  0  0  0  0
 46 47  1  0  0  0  0
 47 48  1  0  0  0  0
 46 49  1  0  0  0  0
 49 50  2  0  0  0  0
 42 51  1  0  0  0  0
 51 52  2  0  0  0  0
 52 53  1  0  0  0  0
 53 54  2  0  0  0  0
 54 55  1  0  0  0  0
 55 56  1  0  0  0  0
 54 57  1  0  0  0  0
 57 58  2  0  0  0  0
 41 59  1  0  0  0  0
 59 60  1  0  0  0  0
 40 61  1  0  0  0  0
 61 62  2  0  0  0  0
 62 63  1  0  0  0  0
 63 64  1  0  0  0  0
 64 65  2  0  0  0  0
 65 66  1  0  0  0  0
 66 67  2  0  0  0  0
 67 68  1  0  0  0  0
 68 69  1  0  0  0  0
 67 70  1  0  0  0  0
 70 71  2  0  0  0  0
 63 72  1  0  0  0  0
 72 73  2  0  0  0  0
 73 74  1  0  0  0  0
 74 75  2  0  0  0  0
 75 76  1  0  0  0  0
 76 77  1  0  0  0  0
 75 78  1  0  0  0  0
 78 79  2  0  0  0  0
 62 80  1  0  0  0  0
 80 81  1  0  0  0  0
 81 82  1  0  0  0  0
 82 83  2  0  0  0  0
 83 84  1  0  0  0  0
 84 85  1  0  0  0  0
 85 86  2  0  0  0  0
 86 87  1  0  0  0  0
 87 88  2  0  0  0  0
 88 89  1  0  0  0  0
 89 90  1  0  0  0  0
 88 91  1  0  0  0  0
 91 92  2  0  0  0  0
 84 93  1  0  0  0  0
 93 94  2  0  0  0  0
 94 95  1  0  0  0  0
 95 96  2  0  0  0  0
 96 97  1  0  0  0  0
 97 98  1  0  0  0  0
 96 99  1  0  0  0  0
 99100  2  0  0  0  0
 83101  1  0  0  0  0
101102  1  0  0  0  0
 82103  1  0  0  0  0
103104  2  0  0  0  0
104105  1  0  0  0  0
105106  1  0  0  0  0
104107  1  0  0  0  0
107108  2  0  0  0  0
108109  1  0  0  0  0
108110  1  0  0  0  0
110111  2  0  0  0  0
111112  1  0  0  0  0
112113  1  0  0  0  0
113114  1  0  0  0  0
112115  1  0  0  0  0
115116  1  0  0  0  0
111117  1  0  0  0  0
117118  2  0  0  0  0
118119  1  0  0  0  0
118120  1  0  0  0  0
120121  2  0  0  0  0
121122  1  0  0  0  0
122123  2  0  0  0  0
122124  1  0  0  0  0
124125  2  0  0  0  0
125126  1  0  0  0  0
126127  1  0  0  0  0
126128  2  0  0  0  0
128129  1  0  0  0  0
128130  1  0  0  0  0
130131  2  0  0  0  0
131132  1  0  0  0  0
132133  2  0  0  0  0
133134  1  0  0  0  0
134135  3  0  0  0  0
133136  1  0  0  0  0
136137  3  0  0  0  0
 13  2  1  0  0  0  0
 60 19  1  0  0  0  0
102 61  1  0  0  0  0
109103  1  0  0  0  0
119110  1  0  0  0  0
132121  1  0  0  0  0
 12  5  1  0  0  0  0
 29 22  1  0  0  0  0
 37 30  1  0  0  0  0
 59 38  2  0  0  0  0
 71 64  1  0  0  0  0
 79 72  1  0  0  0  0
101 80  2  0  0  0  0
112107  1  0  0  0  0
131124  1  0  0  0  0
 50 43  1  0  0  0  0
 58 51  1  0  0  0  0
 92 85  1  0  0  0  0
100 93  1  0  0  0  0
  1138  1  0  0  0  0
  6139  1  0  0  0  0
 11140  1  0  0  0  0
 23141  1  0  0  0  0
 24142  1  0  0  0  0
 27143  1  0  0  0  0
 27144  1  0  0  0  0
 27145  1  0  0  0  0
 28146  1  0  0  0  0
 29147  1  0  0  0  0
 31148  1  0  0  0  0
 32149  1  0  0  0  0
 35150  1  0  0  0  0
 35151  1  0  0  0  0
 35152  1  0  0  0  0
 36153  1  0  0  0  0
 37154  1  0  0  0  0
 44155  1  0  0  0  0
 45156  1  0  0  0  0
 48157  1  0  0  0  0
 48158  1  0  0  0  0
 48159  1  0  0  0  0
 49160  1  0  0  0  0
 50161  1  0  0  0  0
 52162  1  0  0  0  0
 53163  1  0  0  0  0
 56164  1  0  0  0  0
 56165  1  0  0  0  0
 56166  1  0  0  0  0
 57167  1  0  0  0  0
 58168  1  0  0  0  0
 65169  1  0  0  0  0
 66170  1  0  0  0  0
 69171  1  0  0  0  0
 69172  1  0  0  0  0
 69173  1  0  0  0  0
 70174  1  0  0  0  0
 71175  1  0  0  0  0
 73176  1  0  0  0  0
 74177  1  0  0  0  0
 77178  1  0  0  0  0
 77179  1  0  0  0  0
 77180  1  0  0  0  0
 78181  1  0  0  0  0
 79182  1  0  0  0  0
 86183  1  0  0  0  0
 87184  1  0  0  0  0
 90185  1  0  0  0  0
 90186  1  0  0  0  0
 90187  1  0  0  0  0
 91188  1  0  0  0  0
 92189  1  0  0  0  0
 94190  1  0  0  0  0
 95191  1  0  0  0  0
 98192  1  0  0  0  0
 98193  1  0  0  0  0
 98194  1  0  0  0  0
 99195  1  0  0  0  0
100196  1  0  0  0  0
105197  1  0  0  0  0
105198  1  0  0  0  0
106199  1  0  0  0  0
106200  1  0  0  0  0
106201  1  0  0  0  0
113202  1  0  0  0  0
113203  1  0  0  0  0
114204  1  0  0  0  0
114205  1  0  0  0  0
114206  1  0  0  0  0
115207  1  0  0  0  0
115208  1  0  0  0  0
116209  1  0  0  0  0
116210  1  0  0  0  0
116211  1  0  0  0  0
117212  1  0  0  0  0
120213  1  0  0  0  0
125214  1  0  0  0  0
130215  1  0  0  0  0
M  END
