154

C         -6.71820       -2.44580       -2.55070
C         -6.82010       -2.97630       -3.79990
C         -5.73510       -3.18500       -4.79240
O         -4.53330       -3.17490       -4.62870
C         -6.42650       -3.42750       -6.07930
C         -5.86200       -3.60540       -7.32710
C         -6.71690       -3.78060       -8.40180
F         -6.21150       -3.95550       -9.62920
C         -8.10060       -3.77610       -8.21920
F         -8.90280       -3.93700       -9.27850
C         -8.66790       -3.60780       -6.96610
C         -7.81680       -3.43460       -5.88470
C         -8.08840       -3.24480       -4.46410
C         -9.30730       -3.39130       -3.86050
C         -9.53800       -3.34580       -2.46750
N         -9.80670       -3.36090       -1.35170
C        -10.50310       -3.66650       -4.55870
N        -11.50610       -3.88330       -5.07230
C         -5.53540       -2.11420       -1.81720
C         -5.54110       -1.00290       -0.97370
F         -6.68710       -0.30310       -0.84310
C         -4.41250       -0.49270       -0.35720
C         -3.17460       -1.06230       -0.61260
C         -3.13260       -2.28900       -1.32960
N         -1.95500       -2.94330       -1.45090
C         -1.95650       -4.10910       -2.01720
C         -3.17040       -4.73130       -2.43500
O         -3.10030       -5.97380       -2.89310
C         -4.31610       -6.58370       -3.32040
C         -5.18590       -7.02330       -2.15120
N         -4.31750       -4.10210       -2.35100
C         -4.31670       -2.85150       -1.86310
C         -1.94860       -0.43490       -0.20250
C         -0.80730       -0.26740       -0.97230
N         -0.71240       -0.48810       -2.33070
C         -1.82100       -0.35400       -3.17140
C         -1.96430       -1.16050       -4.29980
C         -3.09410       -1.07260       -5.08450
C         -4.12940       -0.21050       -4.73320
S         -5.61340       -0.29640       -5.68800
C         -6.83940        0.55420       -4.65220
C         -3.95870        0.65530       -3.66100
C         -2.80630        0.59870       -2.90630
C          0.52480       -0.90640       -2.84710
C          1.01700       -0.36870       -4.03180
C          2.24420       -0.76480       -4.52610
C          3.00180       -1.70280       -3.83650
S          4.58450       -2.27850       -4.35930
C          4.88770       -1.39050       -5.91320
C          2.50710       -2.24720       -2.65190
C          1.28120       -1.85740       -2.16240
C          0.23540        0.30480       -0.19910
S          1.85300        0.78260       -0.54710
C          2.06310        1.37000        1.09900
C          0.91110        1.22950        1.86110
N          0.73180        1.71990        3.13600
C          1.33190        2.93040        3.52810
C          1.80330        3.08830        4.83110
C          2.30100        4.30150        5.24720
C          2.34290        5.38790        4.37400
S          2.93970        6.90300        5.03670
C          2.82390        8.07490        3.65730
C          1.90870        5.22340        3.06440
C          1.40970        4.00560        2.64840
C         -0.21900        1.12940        3.97580
C         -0.41200       -0.25520        3.96410
C         -1.34270       -0.83800        4.79360
C         -2.10860       -0.05920        5.65910
S         -3.26340       -0.92150        6.67400
C         -4.10170        0.39210        7.60390
C         -1.92210        1.31730        5.67530
C         -0.99140        1.90270        4.84040
C         -0.12060        0.61020        1.10390
S         -1.78290        0.22940        1.41110
C          3.36280        1.90110        1.44180
C          4.03690        2.72780        0.54790
F          3.40330        3.13650       -0.57220
C          5.32740        3.19300        0.72930
C          6.05550        2.81270        1.84550
C          5.41390        1.97820        2.80020
N          6.11170        1.63480        3.90490
C          5.54220        0.86210        4.77220
C          4.22740        0.34930        4.56150
O          3.77980       -0.49520        5.48260
C          2.51680       -1.11990        5.27960
C          2.57850       -2.19120        4.20000
N          3.51520        0.69120        3.51320
C          4.07810        1.53390        2.61860
C          7.43840        3.15630        2.01980
C          8.07790        4.28350        1.61580
C          9.55850        4.30620        1.45760
O         10.34720        3.47110        1.82620
C          9.84220        5.54790        0.69730
C         11.04830        5.99630        0.19620
C         11.05140        7.19570       -0.49880
F         12.19790        7.66560       -1.00390
C          9.87190        7.92010       -0.67960
F          9.90650        9.06900       -1.36320
C          8.66130        7.47700       -0.16900
C          8.65160        6.27720        0.52470
C          7.56820        5.57330        1.20220
C          6.38160        6.12670        1.60940
C          5.93110        7.41190        1.25470
N          5.48800        8.43780        0.99010
C          5.52770        5.48700        2.52910
N          4.84030        5.03070        3.32740
H         -7.63960       -2.13680       -2.06810
H         -4.79330       -3.60470       -7.46780
H         -9.74180       -3.60930       -6.87620
H         -4.49450        0.40340        0.23810
H         -1.01140       -4.62100       -2.12640
H         -3.99500       -7.44410       -3.91180
H         -4.85990       -5.87710       -3.95480
H         -6.05130       -7.56220       -2.52590
H         -5.52560       -6.15580       -1.59150
H         -4.62240       -7.67630       -1.48900
H         -1.19590       -1.87640       -4.54720
H         -3.19060       -1.68830       -5.96300
H         -7.80300        0.34910       -5.10890
H         -6.81220        0.15100       -3.64400
H         -6.65780        1.62470       -4.65300
H         -4.71180        1.38500       -3.41000
H         -2.67440        1.29440       -2.09150
H          0.43550        0.36810       -4.56570
H          2.59960       -0.32630       -5.44430
H          5.85720       -1.73400       -6.26020
H          4.12440       -1.64550       -6.64240
H          4.92020       -0.32050       -5.72970
H          3.09700       -2.98380       -2.12840
H          0.88570       -2.29370       -1.25800
H          1.76350        2.25530        5.51740
H          2.66290        4.42670        6.25580
H          1.79040        8.17360        3.33870
H          3.46230        7.75560        2.83900
H          3.18030        9.02300        4.04780
H          1.94130        6.03910        2.36050
H          1.05180        3.89760        1.63480
H          0.17860       -0.87100        3.30450
H         -1.48830       -1.90700        4.78280
H         -4.60030        1.07130        6.91860
H         -4.83760       -0.11310        8.22170
H         -3.38960        0.91620        8.23460
H         -2.50120        1.95060        6.32730
H         -0.86760        2.97490        4.85490
H          5.76240        3.81320       -0.03970
H          6.09490        0.59450        5.66060
H          2.27240       -1.56020        6.24870
H          1.77510       -0.35940        5.02350
H          1.63280       -2.72400        4.16350
H          2.77260       -1.73590        3.23170
H          3.37250       -2.90020        4.42230
H          8.05690        2.39190        2.47640
H         11.96020        5.43860        0.33880
H          7.77350        8.06700       -0.33150
