
  xtb     02042203513D
 energy: -271.680707445979 gnorm: 0.000491189274 xtb: 6.4.1 (unknown)
136151  0     0  0            999 V2000
    0.0794   -5.5531    5.5213 C   0  0  0  0  0  0  0  0  0  0  0  0
    0.6508   -6.8014    5.4983 C   0  0  0  0  0  0  0  0  0  0  0  0
    1.7650   -7.2051    4.6165 C   0  0  0  0  0  0  0  0  0  0  0  0
    2.3646   -6.5362    3.8025 O   0  0  0  0  0  0  0  0  0  0  0  0
    2.1260   -8.5785    5.0457 C   0  0  0  0  0  0  0  0  0  0  0  0
    3.0973   -9.4089    4.5252 C   0  0  0  0  0  0  0  0  0  0  0  0
    3.2672  -10.6510    5.1165 C   0  0  0  0  0  0  0  0  0  0  0  0
    4.1934  -11.4929    4.6371 F   0  0  0  0  0  0  0  0  0  0  0  0
    2.4849  -11.0320    6.2055 C   0  0  0  0  0  0  0  0  0  0  0  0
    2.6745  -12.2355    6.7619 F   0  0  0  0  0  0  0  0  0  0  0  0
    1.5135  -10.1939    6.7336 C   0  0  0  0  0  0  0  0  0  0  0  0
    1.3339   -8.9532    6.1429 C   0  0  0  0  0  0  0  0  0  0  0  0
    0.4103   -7.8596    6.4493 C   0  0  0  0  0  0  0  0  0  0  0  0
   -0.5511   -7.8843    7.4290 C   0  0  0  0  0  0  0  0  0  0  0  0
   -1.4825   -6.8593    7.6870 C   0  0  0  0  0  0  0  0  0  0  0  0
   -2.2881   -6.0897    7.9686 N   0  0  0  0  0  0  0  0  0  0  0  0
   -0.7448   -8.9601    8.3199 C   0  0  0  0  0  0  0  0  0  0  0  0
   -0.9477   -9.7986    9.0774 N   0  0  0  0  0  0  0  0  0  0  0  0
    0.1083   -4.5903    4.4916 C   0  0  0  0  0  0  0  0  0  0  0  0
    0.1906   -4.8649    3.1063 C   0  0  0  0  0  0  0  0  0  0  0  0
    0.1945   -3.8149    2.1134 C   0  0  0  0  0  0  0  0  0  0  0  0
    0.2591   -4.3014    0.8737 N   0  0  0  0  0  0  0  0  0  0  0  0
    0.2948   -5.9080    0.9473 S   0  0  0  0  0  4  0  0  0  0  0  0
    0.2016   -6.0689    2.5381 N   0  0  0  0  0  0  0  0  0  0  0  0
    0.0317   -2.4440    2.4273 C   0  0  0  0  0  0  0  0  0  0  0  0
    0.0052   -2.1646    3.8133 C   0  0  0  0  0  0  0  0  0  0  0  0
    0.0277   -0.9536    4.3710 N   0  0  0  0  0  0  0  0  0  0  0  0
    0.0429   -1.1106    5.9712 S   0  0  0  0  0  0  0  0  0  0  0  0
    0.0131   -2.7181    6.0452 N   0  0  0  0  0  0  0  0  0  0  0  0
    0.0125   -3.2130    4.8091 C   0  0  0  0  0  0  0  0  0  0  0  0
   -0.0816   -1.4828    1.3971 C   0  0  0  0  0  0  0  0  0  0  0  0
   -0.7058   -0.2205    1.3896 C   0  0  0  0  0  0  0  0  0  0  0  0
   -1.5868    0.2595    2.3245 N   0  0  0  0  0  0  0  0  0  0  0  0
   -1.7087    1.6507    2.4656 C   0  0  0  0  0  0  0  0  0  0  0  0
   -2.9645    2.2549    2.5225 C   0  0  0  0  0  0  0  0  0  0  0  0
   -3.0643    3.6263    2.5664 C   0  0  0  0  0  0  0  0  0  0  0  0
   -1.9178    4.4224    2.5603 C   0  0  0  0  0  0  0  0  0  0  0  0
   -2.1731    6.1631    2.5529 S   0  0  0  0  0  0  0  0  0  0  0  0
   -0.5029    6.8489    2.3663 C   0  0  0  0  0  0  0  0  0  0  0  0
   -0.6662    3.8197    2.5609 C   0  0  0  0  0  0  0  0  0  0  0  0
   -0.5656    2.4442    2.5125 C   0  0  0  0  0  0  0  0  0  0  0  0
   -2.3713   -0.6042    3.0906 C   0  0  0  0  0  0  0  0  0  0  0  0
   -2.6842   -0.2927    4.4125 C   0  0  0  0  0  0  0  0  0  0  0  0
   -3.2829   -1.2295    5.2306 C   0  0  0  0  0  0  0  0  0  0  0  0
   -3.5958   -2.4923    4.7365 C   0  0  0  0  0  0  0  0  0  0  0  0
   -4.1999   -3.8122    5.7227 S   0  0  0  0  0  0  0  0  0  0  0  0
   -3.7396   -3.3193    7.4054 C   0  0  0  0  0  0  0  0  0  0  0  0
   -3.4125   -2.7525    3.3758 C   0  0  0  0  0  0  0  0  0  0  0  0
   -2.8150   -1.8206    2.5630 C   0  0  0  0  0  0  0  0  0  0  0  0
   -0.4443    0.4546    0.1751 C   0  0  0  0  0  0  0  0  0  0  0  0
   -0.8053    2.0422   -0.4132 S   0  0  0  0  0  0  0  0  0  0  0  0
   -0.0746    1.6606   -1.9711 C   0  0  0  0  0  0  0  0  0  0  0  0
    0.5217    0.3806   -1.9765 C   0  0  0  0  0  0  0  0  0  0  0  0
    1.3110   -0.2067   -2.9344 N   0  0  0  0  0  0  0  0  0  0  0  0
    1.2704   -1.6210   -2.9705 C   0  0  0  0  0  0  0  0  0  0  0  0
    0.0439   -2.2653   -3.0929 C   0  0  0  0  0  0  0  0  0  0  0  0
   -0.0366   -3.6411   -3.0161 C   0  0  0  0  0  0  0  0  0  0  0  0
    1.1150   -4.3905   -2.8087 C   0  0  0  0  0  0  0  0  0  0  0  0
    1.1279   -6.1375   -2.6093 S   0  0  0  0  0  0  0  0  0  0  0  0
   -0.6313   -6.5748   -2.5091 C   0  0  0  0  0  0  0  0  0  0  0  0
    2.3522   -3.7481   -2.7461 C   0  0  0  0  0  0  0  0  0  0  0  0
    2.4330   -2.3767   -2.8284 C   0  0  0  0  0  0  0  0  0  0  0  0
    2.1599    0.4629   -3.8024 C   0  0  0  0  0  0  0  0  0  0  0  0
    2.6602    1.7361   -3.5155 C   0  0  0  0  0  0  0  0  0  0  0  0
    3.4316    2.4183   -4.4322 C   0  0  0  0  0  0  0  0  0  0  0  0
    3.7539    1.8306   -5.6530 C   0  0  0  0  0  0  0  0  0  0  0  0
    4.6831    2.6048   -6.9192 S   0  0  0  0  0  0  0  0  0  0  0  0
    4.9664    4.2919   -6.3235 C   0  0  0  0  0  0  0  0  0  0  0  0
    3.3272    0.5222   -5.9071 C   0  0  0  0  0  0  0  0  0  0  0  0
    2.5516   -0.1532   -4.9990 C   0  0  0  0  0  0  0  0  0  0  0  0
    0.2684   -0.2868   -0.7517 C   0  0  0  0  0  0  0  0  0  0  0  0
    0.6455   -1.8714   -0.1510 S   0  0  0  0  0  0  0  0  0  0  0  0
   -0.1916    2.6559   -2.9669 C   0  0  0  0  0  0  0  0  0  0  0  0
   -0.4844    3.9949   -2.5915 C   0  0  0  0  0  0  0  0  0  0  0  0
   -0.4420    5.1120   -3.5052 C   0  0  0  0  0  0  0  0  0  0  0  0
   -0.6027    6.2692   -2.8692 N   0  0  0  0  0  0  0  0  0  0  0  0
   -0.8695    5.9930   -1.3139 S   0  0  0  0  0  4  0  0  0  0  0  0
   -0.7255    4.3875   -1.3424 N   0  0  0  0  0  0  0  0  0  0  0  0
   -0.1647    4.9420   -4.8827 C   0  0  0  0  0  0  0  0  0  0  0  0
    0.0187    3.5942   -5.2781 C   0  0  0  0  0  0  0  0  0  0  0  0
    0.1862    3.1947   -6.5361 N   0  0  0  0  0  0  0  0  0  0  0  0
    0.2409    1.5883   -6.5785 S   0  0  0  0  0  0  0  0  0  0  0  0
    0.0705    1.3115   -5.0034 N   0  0  0  0  0  0  0  0  0  0  0  0
   -0.0298    2.4770   -4.3610 C   0  0  0  0  0  0  0  0  0  0  0  0
    0.0156    5.9880   -5.8039 C   0  0  0  0  0  0  0  0  0  0  0  0
   -0.5352    7.2466   -5.7394 C   0  0  0  0  0  0  0  0  0  0  0  0
   -1.8164    7.5801   -5.0869 C   0  0  0  0  0  0  0  0  0  0  0  0
   -2.5491    6.8588   -4.4459 O   0  0  0  0  0  0  0  0  0  0  0  0
   -2.1156    8.9714   -5.5164 C   0  0  0  0  0  0  0  0  0  0  0  0
   -3.2080    9.7491   -5.1955 C   0  0  0  0  0  0  0  0  0  0  0  0
   -3.2920   11.0260   -5.7405 C   0  0  0  0  0  0  0  0  0  0  0  0
   -4.6257   12.0494   -5.3718 Cl  0  0  0  0  0  0  0  0  0  0  0  0
   -2.2842   11.4764   -6.5940 C   0  0  0  0  0  0  0  0  0  0  0  0
   -2.3773   12.7046   -7.1212 F   0  0  0  0  0  0  0  0  0  0  0  0
   -1.1835   10.6993   -6.9235 C   0  0  0  0  0  0  0  0  0  0  0  0
   -1.1019    9.4305   -6.3747 C   0  0  0  0  0  0  0  0  0  0  0  0
   -0.0883    8.3869   -6.4941 C   0  0  0  0  0  0  0  0  0  0  0  0
    1.1426    8.5127   -7.0939 C   0  0  0  0  0  0  0  0  0  0  0  0
    1.5547    9.6455   -7.8213 C   0  0  0  0  0  0  0  0  0  0  0  0
    1.9335   10.5392   -8.4349 N   0  0  0  0  0  0  0  0  0  0  0  0
    2.1612    7.5478   -6.9807 C   0  0  0  0  0  0  0  0  0  0  0  0
    3.0530    6.8304   -6.8720 N   0  0  0  0  0  0  0  0  0  0  0  0
   -0.4141   -5.2251    6.4281 H   0  0  0  0  0  0  0  0  0  0  0  0
    3.7037   -9.1087    3.6857 H   0  0  0  0  0  0  0  0  0  0  0  0
    0.9401  -10.5328    7.5806 H   0  0  0  0  0  0  0  0  0  0  0  0
   -3.8534    1.6425    2.5041 H   0  0  0  0  0  0  0  0  0  0  0  0
   -4.0321    4.1028    2.5851 H   0  0  0  0  0  0  0  0  0  0  0  0
    0.0841    6.6522    3.2588 H   0  0  0  0  0  0  0  0  0  0  0  0
   -0.0335    6.4333    1.4795 H   0  0  0  0  0  0  0  0  0  0  0  0
   -0.6383    7.9192    2.2463 H   0  0  0  0  0  0  0  0  0  0  0  0
    0.2362    4.4070    2.5949 H   0  0  0  0  0  0  0  0  0  0  0  0
    0.4047    1.9712    2.5139 H   0  0  0  0  0  0  0  0  0  0  0  0
   -2.3989    0.6686    4.8127 H   0  0  0  0  0  0  0  0  0  0  0  0
   -3.4824   -0.9770    6.2595 H   0  0  0  0  0  0  0  0  0  0  0  0
   -2.7153   -2.9594    7.4035 H   0  0  0  0  0  0  0  0  0  0  0  0
   -3.8030   -4.2262    7.9984 H   0  0  0  0  0  0  0  0  0  0  0  0
   -4.4282   -2.5692    7.7837 H   0  0  0  0  0  0  0  0  0  0  0  0
   -3.7248   -3.7063    2.9796 H   0  0  0  0  0  0  0  0  0  0  0  0
   -2.6601   -2.0396    1.5173 H   0  0  0  0  0  0  0  0  0  0  0  0
   -0.8488   -1.6752   -3.2377 H   0  0  0  0  0  0  0  0  0  0  0  0
   -1.0002   -4.1132   -3.1112 H   0  0  0  0  0  0  0  0  0  0  0  0
   -1.1114   -6.4217   -3.4714 H   0  0  0  0  0  0  0  0  0  0  0  0
   -1.1077   -5.9908   -1.7275 H   0  0  0  0  0  0  0  0  0  0  0  0
   -0.6573   -7.6291   -2.2521 H   0  0  0  0  0  0  0  0  0  0  0  0
    3.2432   -4.3401   -2.6075 H   0  0  0  0  0  0  0  0  0  0  0  0
    3.3881   -1.8794   -2.7536 H   0  0  0  0  0  0  0  0  0  0  0  0
    2.4333    2.2003   -2.5678 H   0  0  0  0  0  0  0  0  0  0  0  0
    3.7761    3.4107   -4.1894 H   0  0  0  0  0  0  0  0  0  0  0  0
    5.5424    4.2704   -5.4032 H   0  0  0  0  0  0  0  0  0  0  0  0
    4.0223    4.8137   -6.1999 H   0  0  0  0  0  0  0  0  0  0  0  0
    5.5421    4.7799   -7.1039 H   0  0  0  0  0  0  0  0  0  0  0  0
    3.6043    0.0572   -6.8403 H   0  0  0  0  0  0  0  0  0  0  0  0
    2.1950   -1.1444   -5.2291 H   0  0  0  0  0  0  0  0  0  0  0  0
    0.6297    5.7360   -6.6609 H   0  0  0  0  0  0  0  0  0  0  0  0
   -3.9748    9.3759   -4.5356 H   0  0  0  0  0  0  0  0  0  0  0  0
   -0.4397   11.0998   -7.5933 H   0  0  0  0  0  0  0  0  0  0  0  0
  1  2  2  0  0  0  0
  2  3  1  0  0  0  0
  3  4  2  0  0  0  0
  3  5  1  0  0  0  0
  5  6  2  0  0  0  0
  6  7  1  0  0  0  0
  7  8  1  0  0  0  0
  7  9  2  0  0  0  0
  9 10  1  0  0  0  0
  9 11  1  0  0  0  0
 11 12  2  0  0  0  0
 12 13  1  0  0  0  0
 13 14  2  0  0  0  0
 14 15  1  0  0  0  0
 15 16  3  0  0  0  0
 14 17  1  0  0  0  0
 17 18  3  0  0  0  0
  1 19  1  0  0  0  0
 19 20  2  0  0  0  0
 20 21  1  0  0  0  0
 21 22  1  0  0  0  0
 22 23  2  0  0  0  0
 23 24  2  0  0  0  0
 21 25  2  0  0  0  0
 25 26  1  0  0  0  0
 26 27  2  0  0  0  0
 27 28  1  0  0  0  0
 28 29  1  0  0  0  0
 29 30  2  0  0  0  0
 25 31  1  0  0  0  0
 31 32  2  0  0  0  0
 32 33  1  0  0  0  0
 33 34  1  0  0  0  0
 34 35  2  0  0  0  0
 35 36  1  0  0  0  0
 36 37  2  0  0  0  0
 37 38  1  0  0  0  0
 38 39  1  0  0  0  0
 37 40  1  0  0  0  0
 40 41  2  0  0  0  0
 33 42  1  0  0  0  0
 42 43  2  0  0  0  0
 43 44  1  0  0  0  0
 44 45  2  0  0  0  0
 45 46  1  0  0  0  0
 46 47  1  0  0  0  0
 45 48  1  0  0  0  0
 48 49  2  0  0  0  0
 32 50  1  0  0  0  0
 50 51  1  0  0  0  0
 51 52  1  0  0  0  0
 52 53  2  0  0  0  0
 53 54  1  0  0  0  0
 54 55  1  0  0  0  0
 55 56  2  0  0  0  0
 56 57  1  0  0  0  0
 57 58  2  0  0  0  0
 58 59  1  0  0  0  0
 59 60  1  0  0  0  0
 58 61  1  0  0  0  0
 61 62  2  0  0  0  0
 54 63  1  0  0  0  0
 63 64  2  0  0  0  0
 64 65  1  0  0  0  0
 65 66  2  0  0  0  0
 66 67  1  0  0  0  0
 67 68  1  0  0  0  0
 66 69  1  0  0  0  0
 69 70  2  0  0  0  0
 53 71  1  0  0  0  0
 71 72  1  0  0  0  0
 52 73  1  0  0  0  0
 73 74  2  0  0  0  0
 74 75  1  0  0  0  0
 75 76  1  0  0  0  0
 76 77  2  0  0  0  0
 77 78  2  0  0  0  0
 75 79  2  0  0  0  0
 79 80  1  0  0  0  0
 80 81  2  0  0  0  0
 81 82  1  0  0  0  0
 82 83  1  0  0  0  0
 83 84  2  0  0  0  0
 79 85  1  0  0  0  0
 85 86  2  0  0  0  0
 86 87  1  0  0  0  0
 87 88  2  0  0  0  0
 87 89  1  0  0  0  0
 89 90  2  0  0  0  0
 90 91  1  0  0  0  0
 91 92  1  0  0  0  0
 91 93  2  0  0  0  0
 93 94  1  0  0  0  0
 93 95  1  0  0  0  0
 95 96  2  0  0  0  0
 96 97  1  0  0  0  0
 97 98  2  0  0  0  0
 98 99  1  0  0  0  0
 99100  3  0  0  0  0
 98101  1  0  0  0  0
101102  3  0  0  0  0
 13  2  1  0  0  0  0
 30 19  1  0  0  0  0
 72 31  1  0  0  0  0
 84 73  1  0  0  0  0
 97 86  1  0  0  0  0
 12  5  1  0  0  0  0
 24 20  1  0  0  0  0
 30 26  1  0  0  0  0
 41 34  1  0  0  0  0
 49 42  1  0  0  0  0
 71 50  2  0  0  0  0
 78 74  1  0  0  0  0
 84 80  1  0  0  0  0
 96 89  1  0  0  0  0
 62 55  1  0  0  0  0
 70 63  1  0  0  0  0
  1103  1  0  0  0  0
  6104  1  0  0  0  0
 11105  1  0  0  0  0
 35106  1  0  0  0  0
 36107  1  0  0  0  0
 39108  1  0  0  0  0
 39109  1  0  0  0  0
 39110  1  0  0  0  0
 40111  1  0  0  0  0
 41112  1  0  0  0  0
 43113  1  0  0  0  0
 44114  1  0  0  0  0
 47115  1  0  0  0  0
 47116  1  0  0  0  0
 47117  1  0  0  0  0
 48118  1  0  0  0  0
 49119  1  0  0  0  0
 56120  1  0  0  0  0
 57121  1  0  0  0  0
 60122  1  0  0  0  0
 60123  1  0  0  0  0
 60124  1  0  0  0  0
 61125  1  0  0  0  0
 62126  1  0  0  0  0
 64127  1  0  0  0  0
 65128  1  0  0  0  0
 68129  1  0  0  0  0
 68130  1  0  0  0  0
 68131  1  0  0  0  0
 69132  1  0  0  0  0
 70133  1  0  0  0  0
 85134  1  0  0  0  0
 90135  1  0  0  0  0
 95136  1  0  0  0  0
M  END
