136

C          2.67430       -3.73060        6.65690
C          1.98740       -4.48960        7.57770
C          0.89160       -5.42440        7.26220
O          0.37240       -5.64840        6.19040
C          0.65120       -6.17500        8.52300
C         -0.27070       -7.17230        8.76430
C         -0.28810       -7.74200       10.02850
F         -1.17630       -8.70680       10.30770
C          0.60630       -7.32260       11.01150
F          0.57110       -7.89700       12.22130
C          1.53700       -6.32240       10.76880
C          1.55380       -5.74510        9.51000
C          2.37180       -4.67030        8.95080
C          3.24780       -3.87120        9.64740
C          3.59870       -4.06990       10.99630
N          3.92550       -4.19650       12.08990
C          3.84010       -2.71360        9.10830
N          4.30600       -1.72460        8.75210
C          2.19340       -3.24280        5.43180
C          0.83640       -2.96530        5.13620
C          0.44290       -2.31190        3.91050
N         -0.87160       -2.11600        3.85400
S         -1.54620       -2.68230        5.20480
N         -0.20640       -3.16860        5.93590
C          1.36000       -1.84380        2.92970
C          2.69600       -2.24900        3.16500
N          3.72310       -2.12060        2.32320
S          5.05400       -2.69690        3.01960
N          4.40000       -3.15470        4.41580
C          3.09730       -2.88690        4.39890
C          0.89160       -1.04760        1.86400
C          1.55690       -0.23950        0.91250
N          2.86600        0.17680        0.88140
C          3.35770        0.53200       -0.39950
C          3.32090       -0.39940       -1.43340
C          3.58260       -0.00900       -2.73140
C          3.87270        1.32270       -3.00750
S          3.99190        1.94930       -4.65320
C          2.87780        0.83920       -5.56380
C          4.03950        2.22340       -1.95750
C          3.78790        1.83250       -0.66090
C          3.67410        0.38610        1.98830
C          5.06720        0.39070        1.82920
C          5.89020        0.50450        2.92070
C          5.35830        0.63380        4.20920
S          6.51060        0.69490        5.52570
C          5.49910        0.72310        7.02830
C          3.97650        0.71960        4.36150
C          3.14930        0.61510        3.26370
C          0.64630        0.19640       -0.07940
S          0.81980        1.20020       -1.48290
C         -0.87550        0.97040       -1.88970
C         -1.58040        0.32190       -0.84670
N         -2.93230        0.21510       -0.67800
C         -3.87750        1.05830       -1.25060
C         -5.18230        0.59300       -1.45800
C         -6.08950        1.35690       -2.15100
C         -5.72950        2.61170       -2.65060
S         -6.90240        3.44790       -3.65160
C         -5.90490        4.67940       -4.53330
C         -4.47770        3.13100       -2.32810
C         -3.57270        2.37070       -1.62030
C         -3.38610       -0.79770        0.20410
C         -3.08350       -2.13420       -0.04900
C         -3.44690       -3.10320        0.85860
C         -4.10960       -2.75510        2.03630
S         -4.44080       -4.06610        3.15920
C         -5.28220       -3.25780        4.55010
C         -4.45460       -1.42780        2.26260
C         -4.09830       -0.45730        1.34770
C         -0.67310       -0.16330        0.12810
S         -0.85170       -1.06410        1.60250
C         -1.24170        1.38440       -3.18590
C         -2.39220        0.99390       -3.91350
C         -2.70670        1.55330       -5.20940
N         -3.83900        1.05580       -5.69880
S         -4.43350       -0.02750       -4.66750
N         -3.28880        0.08030       -3.54110
C         -1.85640        2.45250       -5.90400
C         -0.67450        2.79510       -5.20530
N          0.24930        3.67640       -5.58720
S          1.39860        3.77110       -4.47610
N          0.76360        2.73710       -3.41640
C         -0.38230        2.25910       -3.90170
C         -2.23350        2.98370       -7.14730
C         -1.38770        3.46450       -8.12280
C          0.00310        3.03070       -8.33260
O          0.66340        2.24340       -7.68310
C          0.40910        3.63860       -9.62490
C          1.61960        3.53570      -10.27870
C          1.74990        4.17970      -11.49980
F          2.91250        4.10920      -12.16360
C          0.68630        4.89700      -12.04400
F          0.83870        5.50180      -13.22910
C         -0.53270        4.99910      -11.38850
C         -0.66680        4.36180      -10.16640
C         -1.78710        4.29300       -9.22950
C         -2.96110        5.00100       -9.32070
C         -3.92830        5.05540       -8.29750
N         -4.73090        5.18900       -7.48560
C         -3.31330        5.81000      -10.41860
N         -3.65350        6.47240      -11.29280
H          3.71150       -3.49030        6.86080
H         -0.95980       -7.49940        8.00220
H          2.21350       -6.03390       11.55680
H          3.04780       -1.42060       -1.21360
H          3.53320       -0.73780       -3.52440
H          2.04700        0.57080       -4.91840
H          3.41460       -0.04410       -5.89660
H          2.50740        1.39380       -6.42210
H          4.31590        3.24230       -2.17700
H          3.86170        2.54300        0.14830
H          5.49080        0.24840        0.84770
H          6.96210        0.47670        2.80150
H          4.88770        1.62030        7.04990
H          6.20640        0.74370        7.85160
H          4.89780       -0.17810        7.09900
H          3.53650        0.86400        5.33510
H          2.08180        0.69930        3.39800
H         -5.45250       -0.39820       -1.13000
H         -7.08110        0.98140       -2.34940
H         -5.02470        4.20330       -4.95410
H         -5.63720        5.49710       -3.87030
H         -6.52880        5.05090       -5.33980
H         -4.20200        4.12930       -2.62810
H         -2.61180        2.79230       -1.36810
H         -2.55540       -2.39510       -0.95340
H         -3.20890       -4.13970        0.67800
H         -6.22250       -2.82820        4.21740
H         -5.47490       -4.04680        5.27040
H         -4.63360       -2.50670        4.99150
H         -4.98440       -1.13360        3.15320
H         -4.34970        0.57690        1.53030
H         -3.29810        2.96640       -7.34920
H          2.44330        2.97950       -9.86050
H         -1.32930        5.55990      -11.84950
