164

C         -2.08290       -2.84010       -6.12870
C         -2.14770       -4.16850       -6.44790
C         -2.60340       -4.53800       -7.81140
O         -2.91270       -3.77980       -8.70220
C         -2.62400       -6.01580       -7.83410
C         -3.03750       -6.85550       -8.84810
C         -2.93060       -8.22160       -8.63800
F         -3.32530       -9.07290       -9.59350
C         -2.40330       -8.71540       -7.44620
F         -2.29170      -10.03710       -7.27170
C         -1.98270       -7.86950       -6.43060
C         -2.11120       -6.50280       -6.61970
C         -1.76930       -5.37100       -5.75370
C         -1.04700       -5.47350       -4.58910
C         -0.64640       -6.69830       -4.02290
N         -0.31520       -7.66170       -3.49030
C         -0.57700       -4.40970       -3.79660
N         -0.13200       -3.62900       -3.08020
C         -2.00230       -2.17070       -4.88670
C         -2.78350       -2.25460       -3.73070
N         -3.94150       -2.98630       -3.56330
C         -3.97190       -4.39510       -3.69690
C         -3.31380       -5.18970       -2.76640
C         -3.38150       -6.56970       -2.85150
C         -4.08030       -7.16400       -3.89380
S         -4.18220       -8.90140       -4.15040
C         -3.03150       -9.59890       -2.93210
C         -4.74930       -6.36170       -4.82120
C         -4.71310       -4.98940       -4.71360
C         -5.09110       -2.34220       -3.09690
C         -5.31670       -0.99360       -3.38570
C         -6.45400       -0.36600       -2.93550
C         -7.40740       -1.06600       -2.19670
S         -8.82210       -0.15090       -1.67810
C         -9.85360       -1.37780       -0.82650
C         -7.19710       -2.41020       -1.92240
C         -6.05000       -3.03910       -2.36610
C         -2.36920       -1.29470       -2.77580
S         -2.80500       -1.02010       -1.12800
C         -1.55740        0.18880       -0.99380
C         -0.80720        0.33800       -2.14940
N          0.32810        1.11820       -2.26840
C          0.61060        1.72900       -3.49700
C         -0.42080        2.21700       -4.29390
C         -0.15310        2.79340       -5.52070
C          1.15640        2.89880       -5.96710
S          1.62600        3.61270       -7.51080
C          0.04460        3.98260       -8.32160
C          2.19340        2.42670       -5.16290
C          1.92690        1.84480       -3.94510
C          1.19730        1.26010       -1.17910
C          1.45190        0.18080       -0.33350
C          2.22410        0.34060        0.79880
C          2.76720        1.58220        1.10130
S          3.74310        1.88230        2.54680
C          3.19190        0.59190        3.69700
C          2.56640        2.64770        0.22800
C          1.78860        2.49190       -0.89910
C         -1.30650       -0.50280       -3.17330
S         -0.83070       -0.85110       -4.79310
C         -1.29490        0.82420        0.27930
C         -1.07460        2.18030        0.39920
F         -1.25870        2.98200       -0.66480
C         -0.64670        2.75890        1.60040
F         -0.46880        4.09210        1.60990
C         -0.40270        2.01260        2.73560
C         -0.65900        0.61680        2.65050
N         -0.38370       -0.18100        3.70070
C         -0.59110       -1.46970        3.60910
C         -0.21790       -2.28770        4.80850
C          1.22470       -2.78770        4.69890
C         -1.11120       -2.04340        2.41030
N         -1.35010       -1.28750        1.37120
C         -1.12870        0.03510        1.44750
C         -1.39470       -3.50980        2.28180
C         -1.88080       -3.89520        0.89080
C          0.16840        2.60060        3.95140
C          1.21740        3.50450        3.83280
C          1.80840        3.97830        4.99200
N          2.88450        4.81610        5.13570
C          3.57070        5.47790        4.05650
C          2.84120        6.74960        3.62770
C          3.09100        5.02750        6.47340
C          2.14540        4.27380        7.22380
C          1.33020        3.59360        6.27020
C          0.25570        2.71320        6.37000
C         -0.30710        2.21800        5.21710
C          2.17180        4.31540        8.61490
C          3.11400        5.09700        9.23760
C          4.03270        5.87450        8.50070
C          4.03180        5.81770        7.10300
C          4.98420        6.66920        9.21990
C          5.68680        7.76440        8.82740
C          6.89310        8.15940        9.60350
O          7.22120        7.75880       10.69490
C          7.62690        9.10020        8.72600
C          8.87230        9.66550        8.91860
C          9.36210       10.49720        7.92470
F         10.56580       11.06390        8.06790
C          8.61550       10.74740        6.77220
F          9.12150       11.54170        5.82270
C          7.36050       10.18910        6.58240
C          6.86330        9.35810        7.57400
C          5.58470        8.65570        7.68820
C          4.44890        8.98110        6.99740
C          3.16390        8.48380        7.30530
N          2.08450        8.16610        7.52850
C          4.41190        9.90380        5.93140
N          4.33120       10.61640        5.03540
H         -2.09510       -2.18360       -6.99740
H         -3.42660       -6.46810       -9.77610
H         -1.57170       -8.30630       -5.53730
H         -2.76520       -4.72290       -1.96140
H         -2.87750       -7.16510       -2.10800
H         -2.05290       -9.13580       -3.03250
H         -2.96740      -10.65600       -3.17100
H         -3.42900       -9.47150       -1.92940
H         -5.29740       -6.83480       -5.62170
H         -5.24060       -4.36830       -5.42160
H         -4.60130       -0.44230       -3.97660
H         -6.62610        0.67530       -3.16000
H         -9.33480       -1.75840        0.04850
H        -10.74790       -0.84400       -0.52050
H        -10.11850       -2.17880       -1.51050
H         -7.91390       -2.98310       -1.35690
H         -5.89690       -4.08280       -2.13680
H         -1.44000        2.16260       -3.94160
H         -0.97600        3.16320       -6.11020
H          0.30360        4.37150       -9.30150
H         -0.53770        3.07200       -8.42790
H         -0.49720        4.73720       -7.75880
H          3.20990        2.51460       -5.51420
H          2.73440        1.46880       -3.33530
H          1.03650       -0.78880       -0.56480
H          2.40280       -0.51080        1.43660
H          3.54960        0.89730        4.67570
H          2.10640        0.54480        3.70090
H          3.63420       -0.36310        3.42580
H          3.01260        3.60540        0.44930
H          1.60890        3.33030       -1.55460
H         -0.30210       -1.65170        5.69050
H         -0.89620       -3.13490        4.91370
H          1.47210       -3.40160        5.56100
H          1.90830       -1.94300        4.66770
H          1.36740       -3.38290        3.79950
H         -0.48780       -4.06900        2.52570
H         -2.15090       -3.78100        3.02530
H         -1.13830       -3.62820        0.14330
H         -2.80240       -3.36980        0.65550
H         -2.05960       -4.96720        0.84480
H          1.58000        3.79950        2.86240
H          3.64710        4.77880        3.21940
H          4.58480        5.71500        4.38730
H          2.72570        7.42520        4.47300
H          3.40030        7.25930        2.84800
H          1.85180        6.50740        3.24810
H         -0.12450        2.42420        7.33770
H         -1.13760        1.53360        5.27190
H          1.46280        3.74070        9.19060
H          3.14280        5.15310       10.31510
H          4.78010        6.35310        6.53880
H          5.23620        6.31510       10.21560
H          9.44810        9.46990        9.80910
H          6.82220       10.40940        5.67490
