
  xtb     02112218003D
 energy: -421.698175805762 gnorm: 0.000551385286 xtb: 6.4.1 (unknown)
248269  0     0  0            999 V2000
    3.4538   -7.6300   -4.8566 C   0  0  0  0  0  0  0  0  0  0  0  0
    3.4874   -7.5951   -6.2399 C   0  0  0  0  0  0  0  0  0  0  0  0
    2.6713   -6.6840   -7.0468 C   0  0  0  0  0  0  0  0  0  0  0  0
    1.8917   -5.8327   -6.6583 O   0  0  0  0  0  0  0  0  0  0  0  0
    2.8884   -7.1008   -8.4537 C   0  0  0  0  0  0  0  0  0  0  0  0
    2.3535   -6.5590   -9.6034 C   0  0  0  0  0  0  0  0  0  0  0  0
    2.7348   -7.1158  -10.8150 C   0  0  0  0  0  0  0  0  0  0  0  0
    2.2546   -6.6065  -11.9592 F   0  0  0  0  0  0  0  0  0  0  0  0
    3.6193   -8.1907  -10.8556 C   0  0  0  0  0  0  0  0  0  0  0  0
    3.9792   -8.7031  -12.0420 F   0  0  0  0  0  0  0  0  0  0  0  0
    4.1502   -8.7426   -9.6974 C   0  0  0  0  0  0  0  0  0  0  0  0
    3.7781   -8.1867   -8.4855 C   0  0  0  0  0  0  0  0  0  0  0  0
    4.1763   -8.5028   -7.1130 C   0  0  0  0  0  0  0  0  0  0  0  0
    5.1544   -9.3946   -6.7493 C   0  0  0  0  0  0  0  0  0  0  0  0
    5.6153   -9.5543   -5.4273 C   0  0  0  0  0  0  0  0  0  0  0  0
    6.0547   -9.7055   -4.3770 N   0  0  0  0  0  0  0  0  0  0  0  0
    5.8515  -10.2130   -7.6587 C   0  0  0  0  0  0  0  0  0  0  0  0
    6.4396  -10.9043   -8.3619 N   0  0  0  0  0  0  0  0  0  0  0  0
    3.1164   -6.5629   -4.0279 C   0  0  0  0  0  0  0  0  0  0  0  0
    3.1489   -5.1658   -4.2469 C   0  0  0  0  0  0  0  0  0  0  0  0
    3.7260   -4.5035   -5.2858 N   0  0  0  0  0  0  0  0  0  0  0  0
    4.7269   -5.0447   -6.0985 C   0  0  0  0  0  0  0  0  0  0  0  0
    4.7259   -4.7657   -7.4638 C   0  0  0  0  0  0  0  0  0  0  0  0
    5.6558   -5.3462   -8.3044 C   0  0  0  0  0  0  0  0  0  0  0  0
    6.6121   -6.2135   -7.7908 C   0  0  0  0  0  0  0  0  0  0  0  0
    7.7816   -7.0948   -8.7614 S   0  0  0  0  0  0  0  0  0  0  0  0
    7.3201   -6.7050  -10.4723 C   0  0  0  0  0  0  0  0  0  0  0  0
    6.6645   -6.4302   -6.4107 C   0  0  0  0  0  0  0  0  0  0  0  0
    5.7357   -5.8575   -5.5753 C   0  0  0  0  0  0  0  0  0  0  0  0
    3.3381   -3.1610   -5.5186 C   0  0  0  0  0  0  0  0  0  0  0  0
    4.2961   -2.1500   -5.5174 C   0  0  0  0  0  0  0  0  0  0  0  0
    3.9022   -0.8354   -5.6314 C   0  0  0  0  0  0  0  0  0  0  0  0
    2.5504   -0.5149   -5.7586 C   0  0  0  0  0  0  0  0  0  0  0  0
    2.1568    1.2004   -5.7968 S   0  0  0  0  0  0  0  0  0  0  0  0
    0.3471    1.2282   -5.6586 C   0  0  0  0  0  0  0  0  0  0  0  0
    1.6034   -1.5284   -5.8438 C   0  0  0  0  0  0  0  0  0  0  0  0
    1.9992   -2.8457   -5.7190 C   0  0  0  0  0  0  0  0  0  0  0  0
    2.5794   -4.4874   -3.1426 C   0  0  0  0  0  0  0  0  0  0  0  0
    2.2702   -2.8234   -2.7862 S   0  0  0  0  0  0  0  0  0  0  0  0
    1.6061   -3.2543   -1.2194 C   0  0  0  0  0  0  0  0  0  0  0  0
    1.6418   -4.6117   -0.9800 C   0  0  0  0  0  0  0  0  0  0  0  0
    1.2947   -5.2417    0.2175 N   0  0  0  0  0  0  0  0  0  0  0  0
   -0.0465   -5.3533    0.6120 C   0  0  0  0  0  0  0  0  0  0  0  0
   -1.0560   -5.5364   -0.3300 C   0  0  0  0  0  0  0  0  0  0  0  0
   -2.3669   -5.6701    0.0687 C   0  0  0  0  0  0  0  0  0  0  0  0
   -2.6990   -5.6505    1.4208 C   0  0  0  0  0  0  0  0  0  0  0  0
   -4.4042   -5.8666    1.8123 S   0  0  0  0  0  0  0  0  0  0  0  0
   -4.4482   -5.8683    3.6252 C   0  0  0  0  0  0  0  0  0  0  0  0
   -1.6958   -5.4789    2.3652 C   0  0  0  0  0  0  0  0  0  0  0  0
   -0.3842   -5.3218    1.9616 C   0  0  0  0  0  0  0  0  0  0  0  0
    2.2857   -6.0420    0.8012 C   0  0  0  0  0  0  0  0  0  0  0  0
    1.9802   -7.2503    1.4209 C   0  0  0  0  0  0  0  0  0  0  0  0
    2.9754   -8.0292    1.9782 C   0  0  0  0  0  0  0  0  0  0  0  0
    4.3010   -7.6228    1.9118 C   0  0  0  0  0  0  0  0  0  0  0  0
    5.6546   -8.5343    2.5863 S   0  0  0  0  0  0  0  0  0  0  0  0
    4.9252  -10.1403    3.0151 C   0  0  0  0  0  0  0  0  0  0  0  0
    4.6122   -6.4148    1.2919 C   0  0  0  0  0  0  0  0  0  0  0  0
    3.6195   -5.6317    0.7486 C   0  0  0  0  0  0  0  0  0  0  0  0
    2.2036   -5.3022   -2.0858 C   0  0  0  0  0  0  0  0  0  0  0  0
    2.5410   -6.9620   -2.3968 S   0  0  0  0  0  0  0  0  0  0  0  0
    1.1784   -2.1521   -0.3995 C   0  0  0  0  0  0  0  0  0  0  0  0
   -0.0812   -1.7827    0.0003 C   0  0  0  0  0  0  0  0  0  0  0  0
   -1.2758   -2.4352   -0.3640 N   0  0  0  0  0  0  0  0  0  0  0  0
   -2.2951   -2.4346    0.5911 C   0  0  0  0  0  0  0  0  0  0  0  0
   -1.9748   -2.4067    1.9506 C   0  0  0  0  0  0  0  0  0  0  0  0
   -2.9654   -2.3714    2.9055 C   0  0  0  0  0  0  0  0  0  0  0  0
   -4.3042   -2.3939    2.5320 C   0  0  0  0  0  0  0  0  0  0  0  0
   -5.5051   -2.3384    3.8314 S   0  0  0  0  0  0  0  0  0  0  0  0
   -6.9905   -1.7266    2.9888 C   0  0  0  0  0  0  0  0  0  0  0  0
   -4.6307   -2.5049    1.1884 C   0  0  0  0  0  0  0  0  0  0  0  0
   -3.6371   -2.5212    0.2295 C   0  0  0  0  0  0  0  0  0  0  0  0
   -1.5998   -2.1090   -1.7226 C   0  0  0  0  0  0  0  0  0  0  0  0
   -2.2322   -0.9067   -2.0204 C   0  0  0  0  0  0  0  0  0  0  0  0
   -2.4855   -0.5473   -3.3304 C   0  0  0  0  0  0  0  0  0  0  0  0
   -2.1014   -1.3908   -4.3640 C   0  0  0  0  0  0  0  0  0  0  0  0
   -2.3518   -1.0298   -6.0769 S   0  0  0  0  0  0  0  0  0  0  0  0
   -3.4475    0.4160   -6.0636 C   0  0  0  0  0  0  0  0  0  0  0  0
   -1.4602   -2.5908   -4.0697 C   0  0  0  0  0  0  0  0  0  0  0  0
   -1.2097   -2.9446   -2.7601 C   0  0  0  0  0  0  0  0  0  0  0  0
   -0.0621   -0.5250    0.6521 C   0  0  0  0  0  0  0  0  0  0  0  0
   -1.2949    0.4705    1.3217 S   0  0  0  0  0  0  0  0  0  0  0  0
   -0.1252    1.7539    1.6276 C   0  0  0  0  0  0  0  0  0  0  0  0
    1.1685    1.3786    1.2687 C   0  0  0  0  0  0  0  0  0  0  0  0
    2.3311    2.1340    1.3724 N   0  0  0  0  0  0  0  0  0  0  0  0
    3.2179    2.0198    0.2884 C   0  0  0  0  0  0  0  0  0  0  0  0
    2.7117    2.1060   -1.0092 C   0  0  0  0  0  0  0  0  0  0  0  0
    3.5290    1.8746   -2.0959 C   0  0  0  0  0  0  0  0  0  0  0  0
    4.8663    1.5646   -1.8962 C   0  0  0  0  0  0  0  0  0  0  0  0
    5.8922    1.1999   -3.3026 S   0  0  0  0  0  0  0  0  0  0  0  0
    6.4001   -0.4923   -2.8598 C   0  0  0  0  0  0  0  0  0  0  0  0
    5.3914    1.5378   -0.6118 C   0  0  0  0  0  0  0  0  0  0  0  0
    4.5726    1.7554    0.4770 C   0  0  0  0  0  0  0  0  0  0  0  0
    2.7242    2.7060    2.5818 C   0  0  0  0  0  0  0  0  0  0  0  0
    2.2240    2.2293    3.7960 C   0  0  0  0  0  0  0  0  0  0  0  0
    2.5596    2.8485    4.9781 C   0  0  0  0  0  0  0  0  0  0  0  0
    3.4203    3.9435    4.9831 C   0  0  0  0  0  0  0  0  0  0  0  0
    3.7342    4.6887    6.5515 S   0  0  0  0  0  0  0  0  0  0  0  0
    5.1167    5.8207    6.2307 C   0  0  0  0  0  0  0  0  0  0  0  0
    3.9532    4.3952    3.7833 C   0  0  0  0  0  0  0  0  0  0  0  0
    3.6011    3.7890    2.5952 C   0  0  0  0  0  0  0  0  0  0  0  0
    1.1781    0.0792    0.7044 C   0  0  0  0  0  0  0  0  0  0  0  0
    2.3906   -0.9326   -0.0061 S   0  0  0  0  0  0  0  0  0  0  0  0
   -0.6408    2.9480    2.1900 C   0  0  0  0  0  0  0  0  0  0  0  0
   -1.9810    3.1521    2.5131 C   0  0  0  0  0  0  0  0  0  0  0  0
   -2.9965    2.2160    2.2548 N   0  0  0  0  0  0  0  0  0  0  0  0
   -3.6051    2.1917    0.9968 C   0  0  0  0  0  0  0  0  0  0  0  0
   -4.3586    1.0783    0.6211 C   0  0  0  0  0  0  0  0  0  0  0  0
   -4.9364    1.0149   -0.6293 C   0  0  0  0  0  0  0  0  0  0  0  0
   -4.7720    2.0440   -1.5502 C   0  0  0  0  0  0  0  0  0  0  0  0
   -5.4375    1.9892   -2.8930 C   0  0  0  0  0  0  0  0  0  0  0  0
   -3.9954    3.1345   -1.1817 C   0  0  0  0  0  0  0  0  0  0  0  0
   -3.4165    3.2138    0.0708 C   0  0  0  0  0  0  0  0  0  0  0  0
   -3.6591    1.6964    3.3880 C   0  0  0  0  0  0  0  0  0  0  0  0
   -5.0440    1.7257    3.5044 C   0  0  0  0  0  0  0  0  0  0  0  0
   -5.6536    1.1911    4.6214 C   0  0  0  0  0  0  0  0  0  0  0  0
   -4.9076    0.6249    5.6479 C   0  0  0  0  0  0  0  0  0  0  0  0
   -5.5819    0.0055    6.8320 C   0  0  0  0  0  0  0  0  0  0  0  0
   -3.5235    0.6247    5.5331 C   0  0  0  0  0  0  0  0  0  0  0  0
   -2.9016    1.1549    4.4203 C   0  0  0  0  0  0  0  0  0  0  0  0
   -2.1929    4.3942    3.1304 C   0  0  0  0  0  0  0  0  0  0  0  0
   -3.5777    5.1459    3.8312 S   0  0  0  0  0  0  0  0  0  0  0  0
   -2.6071    6.5742    4.2178 C   0  0  0  0  0  0  0  0  0  0  0  0
   -1.2310    6.3901    3.8903 C   0  0  0  0  0  0  0  0  0  0  0  0
   -0.2263    7.2702    4.1831 N   0  0  0  0  0  0  0  0  0  0  0  0
   -0.2333    8.0372    5.3679 C   0  0  0  0  0  0  0  0  0  0  0  0
   -0.6915    7.4873    6.5617 C   0  0  0  0  0  0  0  0  0  0  0  0
   -0.7121    8.2532    7.7103 C   0  0  0  0  0  0  0  0  0  0  0  0
   -0.2647    9.5693    7.7039 C   0  0  0  0  0  0  0  0  0  0  0  0
   -0.3050   10.4113    8.9411 C   0  0  0  0  0  0  0  0  0  0  0  0
    0.2237   10.0960    6.5133 C   0  0  0  0  0  0  0  0  0  0  0  0
    0.2401    9.3467    5.3540 C   0  0  0  0  0  0  0  0  0  0  0  0
    0.9056    7.3321    3.3517 C   0  0  0  0  0  0  0  0  0  0  0  0
    0.7643    7.2634    1.9675 C   0  0  0  0  0  0  0  0  0  0  0  0
    1.8762    7.3175    1.1523 C   0  0  0  0  0  0  0  0  0  0  0  0
    3.1500    7.4720    1.6860 C   0  0  0  0  0  0  0  0  0  0  0  0
    4.3472    7.5526    0.7905 C   0  0  0  0  0  0  0  0  0  0  0  0
    3.2763    7.5763    3.0656 C   0  0  0  0  0  0  0  0  0  0  0  0
    2.1767    7.4914    3.8958 C   0  0  0  0  0  0  0  0  0  0  0  0
   -1.0371    5.1646    3.2397 C   0  0  0  0  0  0  0  0  0  0  0  0
    0.3429    4.3456    2.5753 S   0  0  0  0  0  0  0  0  0  0  0  0
   -3.1261    7.7842    4.6549 C   0  0  0  0  0  0  0  0  0  0  0  0
   -4.4116    8.1274    5.0343 C   0  0  0  0  0  0  0  0  0  0  0  0
   -5.5308    7.2082    5.2139 C   0  0  0  0  0  0  0  0  0  0  0  0
   -5.5785    6.0159    4.9668 O   0  0  0  0  0  0  0  0  0  0  0  0
   -6.6287    8.0154    5.7938 C   0  0  0  0  0  0  0  0  0  0  0  0
   -7.8948    7.6081    6.1595 C   0  0  0  0  0  0  0  0  0  0  0  0
   -8.7492    8.5637    6.6875 C   0  0  0  0  0  0  0  0  0  0  0  0
   -9.9896    8.2129    7.0561 F   0  0  0  0  0  0  0  0  0  0  0  0
   -8.3310    9.8843    6.8376 C   0  0  0  0  0  0  0  0  0  0  0  0
   -9.1762   10.7869    7.3526 F   0  0  0  0  0  0  0  0  0  0  0  0
   -7.0576   10.2934    6.4664 C   0  0  0  0  0  0  0  0  0  0  0  0
   -6.1981    9.3443    5.9387 C   0  0  0  0  0  0  0  0  0  0  0  0
   -4.8246    9.4463    5.4391 C   0  0  0  0  0  0  0  0  0  0  0  0
   -4.1058   10.6151    5.3485 C   0  0  0  0  0  0  0  0  0  0  0  0
   -2.8456   10.7541    4.7379 C   0  0  0  0  0  0  0  0  0  0  0  0
   -1.8356   10.9636    4.2295 N   0  0  0  0  0  0  0  0  0  0  0  0
   -4.5570   11.8595    5.8306 C   0  0  0  0  0  0  0  0  0  0  0  0
   -4.8555   12.8990    6.2173 N   0  0  0  0  0  0  0  0  0  0  0  0
    3.6601   -8.5694   -4.3586 H   0  0  0  0  0  0  0  0  0  0  0  0
    1.6680   -5.7274   -9.5709 H   0  0  0  0  0  0  0  0  0  0  0  0
    4.8265   -9.5779   -9.7784 H   0  0  0  0  0  0  0  0  0  0  0  0
    3.9734   -4.1055   -7.8681 H   0  0  0  0  0  0  0  0  0  0  0  0
    5.6134   -5.1261   -9.3585 H   0  0  0  0  0  0  0  0  0  0  0  0
    6.2880   -6.9912  -10.6511 H   0  0  0  0  0  0  0  0  0  0  0  0
    7.9799   -7.3037  -11.0924 H   0  0  0  0  0  0  0  0  0  0  0  0
    7.4811   -5.6502  -10.6743 H   0  0  0  0  0  0  0  0  0  0  0  0
    7.4365   -7.0682   -6.0087 H   0  0  0  0  0  0  0  0  0  0  0  0
    5.7838   -6.0444   -4.5134 H   0  0  0  0  0  0  0  0  0  0  0  0
    5.3396   -2.4024   -5.3996 H   0  0  0  0  0  0  0  0  0  0  0  0
    4.6296   -0.0392   -5.5957 H   0  0  0  0  0  0  0  0  0  0  0  0
   -0.1041    0.8134   -6.5552 H   0  0  0  0  0  0  0  0  0  0  0  0
    0.0407    0.6783   -4.7727 H   0  0  0  0  0  0  0  0  0  0  0  0
    0.0789    2.2760   -5.5606 H   0  0  0  0  0  0  0  0  0  0  0  0
    0.5599   -1.3108   -6.0008 H   0  0  0  0  0  0  0  0  0  0  0  0
    1.2801   -3.6473   -5.7820 H   0  0  0  0  0  0  0  0  0  0  0  0
   -0.8020   -5.6117   -1.3761 H   0  0  0  0  0  0  0  0  0  0  0  0
   -3.1476   -5.8147   -0.6622 H   0  0  0  0  0  0  0  0  0  0  0  0
   -4.1203   -4.9054    4.0051 H   0  0  0  0  0  0  0  0  0  0  0  0
   -5.4882   -6.0292    3.8909 H   0  0  0  0  0  0  0  0  0  0  0  0
   -3.8389   -6.6811    4.0092 H   0  0  0  0  0  0  0  0  0  0  0  0
   -1.9229   -5.4551    3.4186 H   0  0  0  0  0  0  0  0  0  0  0  0
    0.3933   -5.1870    2.6992 H   0  0  0  0  0  0  0  0  0  0  0  0
    0.9554   -7.5878    1.4605 H   0  0  0  0  0  0  0  0  0  0  0  0
    2.7009   -8.9578    2.4520 H   0  0  0  0  0  0  0  0  0  0  0  0
    5.7571  -10.7654    3.3244 H   0  0  0  0  0  0  0  0  0  0  0  0
    4.4451  -10.5691    2.1407 H   0  0  0  0  0  0  0  0  0  0  0  0
    4.2246  -10.0287    3.8379 H   0  0  0  0  0  0  0  0  0  0  0  0
    5.6429   -6.0982    1.2469 H   0  0  0  0  0  0  0  0  0  0  0  0
    3.8725   -4.6919    0.2796 H   0  0  0  0  0  0  0  0  0  0  0  0
   -0.9405   -2.4155    2.2587 H   0  0  0  0  0  0  0  0  0  0  0  0
   -2.7110   -2.3182    3.9533 H   0  0  0  0  0  0  0  0  0  0  0  0
   -7.4192   -2.5061    2.3653 H   0  0  0  0  0  0  0  0  0  0  0  0
   -6.7341   -0.8475    2.4053 H   0  0  0  0  0  0  0  0  0  0  0  0
   -7.6897   -1.4605    3.7751 H   0  0  0  0  0  0  0  0  0  0  0  0
   -5.6594   -2.5806    0.8745 H   0  0  0  0  0  0  0  0  0  0  0  0
   -3.9090   -2.6051   -0.8116 H   0  0  0  0  0  0  0  0  0  0  0  0
   -2.5332   -0.2443   -1.2213 H   0  0  0  0  0  0  0  0  0  0  0  0
   -2.9718    0.3949   -3.5230 H   0  0  0  0  0  0  0  0  0  0  0  0
   -2.9263    1.2807   -5.6627 H   0  0  0  0  0  0  0  0  0  0  0  0
   -4.3414    0.1913   -5.4900 H   0  0  0  0  0  0  0  0  0  0  0  0
   -3.7102    0.5935   -7.1019 H   0  0  0  0  0  0  0  0  0  0  0  0
   -1.1658   -3.2436   -4.8768 H   0  0  0  0  0  0  0  0  0  0  0  0
   -0.7140   -3.8743   -2.5415 H   0  0  0  0  0  0  0  0  0  0  0  0
    1.6648    2.3304   -1.1542 H   0  0  0  0  0  0  0  0  0  0  0  0
    3.1388    1.9195   -3.1010 H   0  0  0  0  0  0  0  0  0  0  0  0
    6.9769   -0.4834   -1.9406 H   0  0  0  0  0  0  0  0  0  0  0  0
    5.5122   -1.1092   -2.7528 H   0  0  0  0  0  0  0  0  0  0  0  0
    7.0141   -0.8518   -3.6788 H   0  0  0  0  0  0  0  0  0  0  0  0
    6.4393    1.3277   -0.4597 H   0  0  0  0  0  0  0  0  0  0  0  0
    4.9728    1.6979    1.4781 H   0  0  0  0  0  0  0  0  0  0  0  0
    1.5655    1.3736    3.8052 H   0  0  0  0  0  0  0  0  0  0  0  0
    2.1605    2.4891    5.9142 H   0  0  0  0  0  0  0  0  0  0  0  0
    5.9335    5.2790    5.7634 H   0  0  0  0  0  0  0  0  0  0  0  0
    4.7866    6.6507    5.6136 H   0  0  0  0  0  0  0  0  0  0  0  0
    5.4256    6.1878    7.2046 H   0  0  0  0  0  0  0  0  0  0  0  0
    4.6310    5.2313    3.7562 H   0  0  0  0  0  0  0  0  0  0  0  0
    3.9927    4.1704    1.6646 H   0  0  0  0  0  0  0  0  0  0  0  0
   -4.4686    0.2587    1.3147 H   0  0  0  0  0  0  0  0  0  0  0  0
   -5.5158    0.1433   -0.8995 H   0  0  0  0  0  0  0  0  0  0  0  0
   -6.4002    2.5003   -2.8523 H   0  0  0  0  0  0  0  0  0  0  0  0
   -5.6200    0.9592   -3.1930 H   0  0  0  0  0  0  0  0  0  0  0  0
   -4.8334    2.4842   -3.6514 H   0  0  0  0  0  0  0  0  0  0  0  0
   -3.8461    3.9436   -1.8829 H   0  0  0  0  0  0  0  0  0  0  0  0
   -2.8224    4.0764    0.3342 H   0  0  0  0  0  0  0  0  0  0  0  0
   -5.6372    2.1767    2.7227 H   0  0  0  0  0  0  0  0  0  0  0  0
   -6.7306    1.2224    4.7018 H   0  0  0  0  0  0  0  0  0  0  0  0
   -5.8001   -1.0420    6.6197 H   0  0  0  0  0  0  0  0  0  0  0  0
   -4.9427    0.0463    7.7107 H   0  0  0  0  0  0  0  0  0  0  0  0
   -6.5199    0.5095    7.0526 H   0  0  0  0  0  0  0  0  0  0  0  0
   -2.9235    0.1981    6.3242 H   0  0  0  0  0  0  0  0  0  0  0  0
   -1.8240    1.1463    4.3400 H   0  0  0  0  0  0  0  0  0  0  0  0
   -1.0348    6.4635    6.5836 H   0  0  0  0  0  0  0  0  0  0  0  0
   -1.0757    7.8160    8.6289 H   0  0  0  0  0  0  0  0  0  0  0  0
    0.6852   10.8033    9.1682 H   0  0  0  0  0  0  0  0  0  0  0  0
   -0.9709   11.2614    8.7949 H   0  0  0  0  0  0  0  0  0  0  0  0
   -0.6577    9.8373    9.7940 H   0  0  0  0  0  0  0  0  0  0  0  0
    0.5789   11.1150    6.4880 H   0  0  0  0  0  0  0  0  0  0  0  0
    0.6024    9.7756    4.4332 H   0  0  0  0  0  0  0  0  0  0  0  0
   -0.2219    7.1804    1.5354 H   0  0  0  0  0  0  0  0  0  0  0  0
    1.7527    7.2532    0.0812 H   0  0  0  0  0  0  0  0  0  0  0  0
    4.4351    8.5560    0.3727 H   0  0  0  0  0  0  0  0  0  0  0  0
    5.2611    7.3339    1.3375 H   0  0  0  0  0  0  0  0  0  0  0  0
    4.2560    6.8542   -0.0389 H   0  0  0  0  0  0  0  0  0  0  0  0
    4.2568    7.7296    3.4947 H   0  0  0  0  0  0  0  0  0  0  0  0
    2.2921    7.5489    4.9680 H   0  0  0  0  0  0  0  0  0  0  0  0
   -2.4005    8.5858    4.7010 H   0  0  0  0  0  0  0  0  0  0  0  0
   -8.2143    6.5852    6.0400 H   0  0  0  0  0  0  0  0  0  0  0  0
   -6.7838   11.3266    6.6023 H   0  0  0  0  0  0  0  0  0  0  0  0
  1  2  2  0  0  0  0
  2  3  1  0  0  0  0
  3  4  2  0  0  0  0
  3  5  1  0  0  0  0
  5  6  2  0  0  0  0
  6  7  1  0  0  0  0
  7  8  1  0  0  0  0
  7  9  2  0  0  0  0
  9 10  1  0  0  0  0
  9 11  1  0  0  0  0
 11 12  2  0  0  0  0
 12 13  1  0  0  0  0
 13 14  2  0  0  0  0
 14 15  1  0  0  0  0
 15 16  3  0  0  0  0
 14 17  1  0  0  0  0
 17 18  3  0  0  0  0
  1 19  1  0  0  0  0
 19 20  2  0  0  0  0
 20 21  1  0  0  0  0
 21 22  1  0  0  0  0
 22 23  2  0  0  0  0
 23 24  1  0  0  0  0
 24 25  2  0  0  0  0
 25 26  1  0  0  0  0
 26 27  1  0  0  0  0
 25 28  1  0  0  0  0
 28 29  2  0  0  0  0
 21 30  1  0  0  0  0
 30 31  2  0  0  0  0
 31 32  1  0  0  0  0
 32 33  2  0  0  0  0
 33 34  1  0  0  0  0
 34 35  1  0  0  0  0
 33 36  1  0  0  0  0
 36 37  2  0  0  0  0
 20 38  1  0  0  0  0
 38 39  1  0  0  0  0
 39 40  1  0  0  0  0
 40 41  2  0  0  0  0
 41 42  1  0  0  0  0
 42 43  1  0  0  0  0
 43 44  2  0  0  0  0
 44 45  1  0  0  0  0
 45 46  2  0  0  0  0
 46 47  1  0  0  0  0
 47 48  1  0  0  0  0
 46 49  1  0  0  0  0
 49 50  2  0  0  0  0
 42 51  1  0  0  0  0
 51 52  2  0  0  0  0
 52 53  1  0  0  0  0
 53 54  2  0  0  0  0
 54 55  1  0  0  0  0
 55 56  1  0  0  0  0
 54 57  1  0  0  0  0
 57 58  2  0  0  0  0
 41 59  1  0  0  0  0
 59 60  1  0  0  0  0
 40 61  1  0  0  0  0
 61 62  2  0  0  0  0
 62 63  1  0  0  0  0
 63 64  1  0  0  0  0
 64 65  2  0  0  0  0
 65 66  1  0  0  0  0
 66 67  2  0  0  0  0
 67 68  1  0  0  0  0
 68 69  1  0  0  0  0
 67 70  1  0  0  0  0
 70 71  2  0  0  0  0
 63 72  1  0  0  0  0
 72 73  2  0  0  0  0
 73 74  1  0  0  0  0
 74 75  2  0  0  0  0
 75 76  1  0  0  0  0
 76 77  1  0  0  0  0
 75 78  1  0  0  0  0
 78 79  2  0  0  0  0
 62 80  1  0  0  0  0
 80 81  1  0  0  0  0
 81 82  1  0  0  0  0
 82 83  2  0  0  0  0
 83 84  1  0  0  0  0
 84 85  1  0  0  0  0
 85 86  2  0  0  0  0
 86 87  1  0  0  0  0
 87 88  2  0  0  0  0
 88 89  1  0  0  0  0
 89 90  1  0  0  0  0
 88 91  1  0  0  0  0
 91 92  2  0  0  0  0
 84 93  1  0  0  0  0
 93 94  2  0  0  0  0
 94 95  1  0  0  0  0
 95 96  2  0  0  0  0
 96 97  1  0  0  0  0
 97 98  1  0  0  0  0
 96 99  1  0  0  0  0
 99100  2  0  0  0  0
 83101  1  0  0  0  0
101102  1  0  0  0  0
 82103  1  0  0  0  0
103104  2  0  0  0  0
104105  1  0  0  0  0
105106  1  0  0  0  0
106107  2  0  0  0  0
107108  1  0  0  0  0
108109  2  0  0  0  0
109110  1  0  0  0  0
109111  1  0  0  0  0
111112  2  0  0  0  0
105113  1  0  0  0  0
113114  2  0  0  0  0
114115  1  0  0  0  0
115116  2  0  0  0  0
116117  1  0  0  0  0
116118  1  0  0  0  0
118119  2  0  0  0  0
104120  1  0  0  0  0
120121  1  0  0  0  0
121122  1  0  0  0  0
122123  2  0  0  0  0
123124  1  0  0  0  0
124125  1  0  0  0  0
125126  2  0  0  0  0
126127  1  0  0  0  0
127128  2  0  0  0  0
128129  1  0  0  0  0
128130  1  0  0  0  0
130131  2  0  0  0  0
124132  1  0  0  0  0
132133  2  0  0  0  0
133134  1  0  0  0  0
134135  2  0  0  0  0
135136  1  0  0  0  0
135137  1  0  0  0  0
137138  2  0  0  0  0
123139  1  0  0  0  0
139140  1  0  0  0  0
122141  1  0  0  0  0
141142  2  0  0  0  0
142143  1  0  0  0  0
143144  2  0  0  0  0
143145  1  0  0  0  0
145146  2  0  0  0  0
146147  1  0  0  0  0
147148  1  0  0  0  0
147149  2  0  0  0  0
149150  1  0  0  0  0
149151  1  0  0  0  0
151152  2  0  0  0  0
152153  1  0  0  0  0
153154  2  0  0  0  0
154155  1  0  0  0  0
155156  3  0  0  0  0
154157  1  0  0  0  0
157158  3  0  0  0  0
 13  2  1  0  0  0  0
 60 19  1  0  0  0  0
102 61  1  0  0  0  0
140103  1  0  0  0  0
153142  1  0  0  0  0
 12  5  1  0  0  0  0
 29 22  1  0  0  0  0
 37 30  1  0  0  0  0
 59 38  2  0  0  0  0
 71 64  1  0  0  0  0
 79 72  1  0  0  0  0
101 80  2  0  0  0  0
112106  1  0  0  0  0
119113  1  0  0  0  0
139120  2  0  0  0  0
152145  1  0  0  0  0
 50 43  1  0  0  0  0
 58 51  1  0  0  0  0
 92 85  1  0  0  0  0
100 93  1  0  0  0  0
131125  1  0  0  0  0
138132  1  0  0  0  0
  1159  1  0  0  0  0
  6160  1  0  0  0  0
 11161  1  0  0  0  0
 23162  1  0  0  0  0
 24163  1  0  0  0  0
 27164  1  0  0  0  0
 27165  1  0  0  0  0
 27166  1  0  0  0  0
 28167  1  0  0  0  0
 29168  1  0  0  0  0
 31169  1  0  0  0  0
 32170  1  0  0  0  0
 35171  1  0  0  0  0
 35172  1  0  0  0  0
 35173  1  0  0  0  0
 36174  1  0  0  0  0
 37175  1  0  0  0  0
 44176  1  0  0  0  0
 45177  1  0  0  0  0
 48178  1  0  0  0  0
 48179  1  0  0  0  0
 48180  1  0  0  0  0
 49181  1  0  0  0  0
 50182  1  0  0  0  0
 52183  1  0  0  0  0
 53184  1  0  0  0  0
 56185  1  0  0  0  0
 56186  1  0  0  0  0
 56187  1  0  0  0  0
 57188  1  0  0  0  0
 58189  1  0  0  0  0
 65190  1  0  0  0  0
 66191  1  0  0  0  0
 69192  1  0  0  0  0
 69193  1  0  0  0  0
 69194  1  0  0  0  0
 70195  1  0  0  0  0
 71196  1  0  0  0  0
 73197  1  0  0  0  0
 74198  1  0  0  0  0
 77199  1  0  0  0  0
 77200  1  0  0  0  0
 77201  1  0  0  0  0
 78202  1  0  0  0  0
 79203  1  0  0  0  0
 86204  1  0  0  0  0
 87205  1  0  0  0  0
 90206  1  0  0  0  0
 90207  1  0  0  0  0
 90208  1  0  0  0  0
 91209  1  0  0  0  0
 92210  1  0  0  0  0
 94211  1  0  0  0  0
 95212  1  0  0  0  0
 98213  1  0  0  0  0
 98214  1  0  0  0  0
 98215  1  0  0  0  0
 99216  1  0  0  0  0
100217  1  0  0  0  0
107218  1  0  0  0  0
108219  1  0  0  0  0
110220  1  0  0  0  0
110221  1  0  0  0  0
110222  1  0  0  0  0
111223  1  0  0  0  0
112224  1  0  0  0  0
114225  1  0  0  0  0
115226  1  0  0  0  0
117227  1  0  0  0  0
117228  1  0  0  0  0
117229  1  0  0  0  0
118230  1  0  0  0  0
119231  1  0  0  0  0
126232  1  0  0  0  0
127233  1  0  0  0  0
129234  1  0  0  0  0
129235  1  0  0  0  0
129236  1  0  0  0  0
130237  1  0  0  0  0
131238  1  0  0  0  0
133239  1  0  0  0  0
134240  1  0  0  0  0
136241  1  0  0  0  0
136242  1  0  0  0  0
136243  1  0  0  0  0
137244  1  0  0  0  0
138245  1  0  0  0  0
141246  1  0  0  0  0
146247  1  0  0  0  0
151248  1  0  0  0  0
M  END
