215

C         -6.97190        5.08330        2.81810
C         -7.11630        6.40410        2.52470
C         -7.87820        7.31120        3.42280
O         -8.61020        6.99610        4.33070
C         -7.47860        8.67580        3.00430
C         -7.78870        9.88670        3.59160
C         -7.25790       11.03280        3.02090
F         -7.52790       12.22720        3.56230
C         -6.43980       10.95790        1.89230
F         -5.92870       12.08200        1.37810
C         -6.13780        9.74470        1.29250
C         -6.66670        8.59640        1.85790
C         -6.54750        7.19800        1.46360
C         -6.23600        6.74480        0.20740
C         -6.36300        5.39270       -0.17210
N         -6.48820        4.30930       -0.53020
C         -5.90030        7.58500       -0.86880
N         -5.64330        8.22360       -1.78780
C         -5.90080        4.24010        2.42650
C         -4.56540        4.58620        2.25630
N         -4.03360        5.89260        2.33020
C         -3.42610        6.16180        3.58450
C         -2.06560        6.42700        3.69960
C         -1.49830        6.68120        4.93320
C         -2.28480        6.66460        6.07780
S         -1.68820        7.00820        7.69850
C          0.07520        7.35650        7.45960
C         -3.64230        6.36660        5.96820
C         -4.20710        6.11390        4.73800
C         -3.52400        6.48500        1.17230
C         -3.14840        7.83210        1.20560
C         -2.68490        8.45650        0.06980
C         -2.60000        7.76100       -1.13430
S         -2.01810        8.62160       -2.56340
C         -3.09720        7.93870       -3.85770
C         -2.96500        6.42410       -1.17630
C         -3.42950        5.79530       -0.03790
C         -3.75610        3.44340        2.13740
S         -2.06940        3.22760        1.85400
C         -2.30850        1.49640        1.70380
C         -3.63690        1.11380        1.84870
N         -4.11300       -0.16830        1.62280
C         -5.21670       -0.67300        2.30910
C         -5.56260       -0.20460        3.57650
C         -6.63030       -0.74440        4.26810
C         -7.37960       -1.76750        3.70740
S         -8.72170       -2.57370        4.53090
C         -9.19030       -1.39080        5.82610
C         -7.05010       -2.23030        2.43510
C         -5.99230       -1.68770        1.74270
C         -3.51190       -0.91050        0.58220
C         -3.26240       -0.30130       -0.64630
C         -2.57980       -0.97890       -1.63040
C         -2.10710       -2.27030       -1.40350
S         -1.10930       -2.97630       -2.67600
C         -0.63680       -4.59820       -2.01810
C         -2.42580       -2.90800       -0.21220
C         -3.13720       -2.23700        0.76350
C         -4.44980        2.23970        2.13540
S         -6.13790        2.50260        2.38800
C         -1.20060        0.69510        1.25960
C         -0.65150       -0.43460        1.83750
N         -0.86380       -0.74650        3.19140
C         -0.64560        0.26180        4.13590
C         -0.99180        0.08900        5.47800
C         -0.81750        1.10110        6.40280
C         -0.27630        2.31820        6.01880
S         -0.06940        3.69670        7.10540
C         -1.29310        3.38490        8.40880
C          0.17310        2.46430        4.71240
C          0.00670        1.45260        3.79470
C         -1.60420       -1.90780        3.52800
C         -1.11250       -3.18030        3.25680
C         -1.88480       -4.29360        3.51380
C         -3.15950       -4.16380        4.06350
S         -4.08340       -5.64600        4.30190
C         -5.70680       -5.06410        4.86430
C         -3.63120       -2.89850        4.38770
C         -2.85810       -1.78740        4.11640
C          0.26900       -1.04090        0.94720
S          1.13580       -2.53450        0.89990
C          1.85320       -2.13290       -0.66390
C          1.50960       -0.83830       -1.05540
N          2.10840       -0.13690       -2.07840
C          3.46700       -0.31110       -2.38720
C          4.40390       -0.63530       -1.41230
C          5.72270       -0.86850       -1.74850
C          6.13040       -0.76730       -3.07190
S          7.77230       -1.08550       -3.63180
C          8.69080       -1.46570       -2.11200
C          5.20420       -0.39540       -4.04610
C          3.88950       -0.16870       -3.71040
C          1.45200        0.99120       -2.60970
C          0.16990        0.87690       -3.14190
C         -0.49660        2.00170       -3.57840
C          0.10810        3.25550       -3.49910
S         -0.85330        4.64200       -4.00900
C          0.27520        6.05110       -3.81720
C          1.40870        3.36000       -3.02190
C          2.07450        2.23420       -2.58210
C          0.53870       -0.28450       -0.18520
S         -0.40050        1.16120       -0.23110
C          2.52940       -3.10480       -1.44960
C          3.19240       -4.27510       -1.06520
C          3.48270       -4.60040        0.36960
C          4.51360       -3.63770        0.95970
C          3.63420       -5.00210       -2.17490
C          3.34390       -4.36400       -3.38530
S          2.45560       -2.91690       -3.19280
C          3.91840       -5.05770       -4.46120
C          4.58200       -6.18990       -3.95140
C          4.40220       -6.28870       -2.44770
C          3.53710       -7.55070       -2.22200
C          3.08870       -7.83360       -0.79560
C          5.74220       -6.28460       -1.69070
C          6.67980       -7.44000       -2.01610
C          5.13680       -6.94510       -4.95250
C          4.94870       -6.38890       -6.23410
S          4.02270       -4.89210       -6.15780
C          5.44980       -7.00420       -7.37860
C          5.38210       -6.62930       -8.70520
C          4.74660       -5.41670       -9.21470
O          4.16420       -4.55070       -8.58580
C          4.94900       -5.43570      -10.68020
C          4.54060       -4.50720      -11.61540
C          4.85550       -4.75220      -12.94280
F          4.47980       -3.87800      -13.88630
C          5.55940       -5.89940      -13.30480
F          5.85110       -6.11140      -14.59440
C          5.96910       -6.83270      -12.36290
C          5.65860       -6.59510      -11.03380
C          5.93900       -7.36320       -9.81740
C          6.60670       -8.56300       -9.78530
C          7.11600       -9.21510      -10.92710
N          7.55440       -9.79930      -11.81300
C          6.88200       -9.32420       -8.63140
N          7.14890      -10.00660       -7.74590
H         -7.68130        4.66480        3.52440
H         -8.41940        9.94690        4.46410
H         -5.49810        9.72660        0.42490
H         -1.44550        6.43070        2.81520
H         -0.44020        6.87760        4.98810
H          0.46260        7.58790        8.44690
H          0.57120        6.47440        7.06570
H          0.19660        8.21510        6.80560
H         -4.24910        6.34310        6.86040
H         -5.26010        5.88880        4.66610
H         -3.23400        8.38170        2.13160
H         -2.39940        9.49680        0.09860
H         -2.99230        8.59760       -4.71380
H         -4.11900        7.95620       -3.49030
H         -2.79310        6.93060       -4.12480
H         -2.88860        5.85910       -2.09170
H         -3.70920        4.75560       -0.09880
H         -4.98100        0.57240        4.04920
H         -6.85650       -0.36440        5.25160
H         -9.30980       -0.40450        5.38830
H        -10.14040       -1.74260        6.21560
H         -8.44980       -1.38340        6.62090
H         -7.64240       -3.01670        1.99250
H         -5.76500       -2.04550        0.75070
H         -3.59870        0.70960       -0.82300
H         -2.39790       -0.50630       -2.58210
H          0.01900       -5.03460       -2.76550
H         -1.51820       -5.21990       -1.89150
H         -0.09920       -4.47760       -1.08170
H         -2.11930       -3.92300       -0.01930
H         -3.38980       -2.74600        1.67870
H         -1.39120       -0.85320        5.81890
H         -1.10840        0.92250        7.42620
H         -2.23950        3.11410        7.95070
H         -0.94100        2.60610        9.07930
H         -1.39800        4.32050        8.94940
H          0.65270        3.38470        4.41660
H          0.39470        1.60360        2.80020
H         -0.12430       -3.29800        2.84350
H         -1.50950       -5.28060        3.29110
H         -6.32360       -5.95360        4.94460
H         -6.13440       -4.38480        4.13240
H         -5.61830       -4.59150        5.83820
H         -4.60350       -2.75830        4.83070
H         -3.23730       -0.80780        4.35560
H          4.10130       -0.70310       -0.37810
H          6.41910       -1.12260       -0.96590
H          8.28690       -2.35860       -1.64350
H          9.71300       -1.64810       -2.42860
H          8.66140       -0.61600       -1.43640
H          5.52860       -0.30480       -5.07100
H          3.17100        0.09990       -4.46950
H         -0.28390       -0.10030       -3.20550
H         -1.49480        1.92530       -3.98180
H          1.15200        5.90820       -4.44160
H         -0.27300        6.92600       -4.15150
H          0.54230        6.17180       -2.77140
H          1.91020        4.31220       -2.96900
H          3.07920        2.32010       -2.19440
H          3.86890       -5.61360        0.44030
H          2.56530       -4.55380        0.95980
H          4.76960       -3.93940        1.97230
H          5.41780       -3.63810        0.35510
H          4.12170       -2.62550        0.99330
H          2.64890       -7.45000       -2.85160
H          4.10160       -8.40580       -2.59620
H          2.42520       -7.05330       -0.43360
H          3.93690       -7.92820       -0.12230
H          2.54250       -8.77440       -0.77580
H          6.24550       -5.34300       -1.92690
H          5.54100       -6.28830       -0.61980
H          7.56980       -7.36660       -1.39460
H          6.99320       -7.40850       -3.05500
H          6.21040       -8.39950       -1.81740
H          5.66330       -7.87460       -4.82850
H          5.97640       -7.92710       -7.16840
H          3.99630       -3.62140      -11.32930
H          6.51080       -7.70210      -12.69680
