
  xtb     02102220043D
 energy: -182.339511799176 gnorm: 0.000311018222 xtb: 6.4.1 (unknown)
 77 88  0     0  0            999 V2000
   -3.8908   -2.6145   -5.8048 C   0  0  0  0  0  0  0  0  0  0  0  0
   -4.7714   -3.5647   -5.3766 C   0  0  0  0  0  0  0  0  0  0  0  0
   -4.9440   -3.9752   -3.9605 C   0  0  0  0  0  0  0  0  0  0  0  0
   -4.3227   -3.6117   -2.9867 O   0  0  0  0  0  0  0  0  0  0  0  0
   -6.1517   -4.8311   -3.9477 C   0  0  0  0  0  0  0  0  0  0  0  0
   -6.7440   -5.4485   -2.8635 C   0  0  0  0  0  0  0  0  0  0  0  0
   -7.8949   -6.1848   -3.0918 C   0  0  0  0  0  0  0  0  0  0  0  0
   -8.4988   -6.8051   -2.0713 F   0  0  0  0  0  0  0  0  0  0  0  0
   -8.4324   -6.2838   -4.3761 C   0  0  0  0  0  0  0  0  0  0  0  0
   -9.5495   -6.9940   -4.5654 F   0  0  0  0  0  0  0  0  0  0  0  0
   -7.8402   -5.6600   -5.4640 C   0  0  0  0  0  0  0  0  0  0  0  0
   -6.6842   -4.9264   -5.2439 C   0  0  0  0  0  0  0  0  0  0  0  0
   -5.8321   -4.1694   -6.1588 C   0  0  0  0  0  0  0  0  0  0  0  0
   -5.9654   -4.1189   -7.5199 C   0  0  0  0  0  0  0  0  0  0  0  0
   -7.0061   -4.7492   -8.2354 C   0  0  0  0  0  0  0  0  0  0  0  0
   -7.8328   -5.2343   -8.8662 N   0  0  0  0  0  0  0  0  0  0  0  0
   -5.0710   -3.4624   -8.3935 C   0  0  0  0  0  0  0  0  0  0  0  0
   -4.3823   -2.9748   -9.1714 N   0  0  0  0  0  0  0  0  0  0  0  0
   -2.7627   -2.1581   -5.0686 C   0  0  0  0  0  0  0  0  0  0  0  0
   -1.9715   -2.9804   -4.2428 C   0  0  0  0  0  0  0  0  0  0  0  0
   -0.9240   -2.4497   -3.3905 C   0  0  0  0  0  0  0  0  0  0  0  0
   -0.3333   -3.4225   -2.6853 N   0  0  0  0  0  0  0  0  0  0  0  0
   -0.9884   -4.8259   -3.0787 S   0  0  0  0  0  4  0  0  0  0  0  0
   -2.0543   -4.3086   -4.1508 N   0  0  0  0  0  0  0  0  0  0  0  0
   -0.6450   -1.0729   -3.3113 C   0  0  0  0  0  0  0  0  0  0  0  0
   -1.3161   -0.2805   -4.2601 C   0  0  0  0  0  0  0  0  0  0  0  0
   -1.1077    1.0198   -4.4930 N   0  0  0  0  0  0  0  0  0  0  0  0
   -2.0947    1.5121   -5.6444 S   0  0  0  0  0  0  0  0  0  0  0  0
   -2.8494    0.1267   -5.9328 N   0  0  0  0  0  0  0  0  0  0  0  0
   -2.3394   -0.8154   -5.1370 C   0  0  0  0  0  0  0  0  0  0  0  0
    0.1944   -0.5125   -2.2769 C   0  0  0  0  0  0  0  0  0  0  0  0
    1.3153   -1.1623   -1.7849 C   0  0  0  0  0  0  0  0  0  0  0  0
    2.0832   -0.6474   -0.7425 C   0  0  0  0  0  0  0  0  0  0  0  0
    1.7821    0.5493   -0.1103 C   0  0  0  0  0  0  0  0  0  0  0  0
    0.6235    1.2338   -0.5620 C   0  0  0  0  0  0  0  0  0  0  0  0
    0.0675    2.3206   -0.0302 N   0  0  0  0  0  0  0  0  0  0  0  0
   -1.2846    2.6556   -0.8241 S   0  0  0  0  0  0  0  0  0  0  0  0
   -1.2562    1.4366   -1.8656 N   0  0  0  0  0  0  0  0  0  0  0  0
   -0.1634    0.7079   -1.6472 C   0  0  0  0  0  0  0  0  0  0  0  0
    2.5437    1.0435    1.0152 C   0  0  0  0  0  0  0  0  0  0  0  0
    3.0731    0.1788    1.9920 C   0  0  0  0  0  0  0  0  0  0  0  0
    3.6850    0.6714    3.2090 C   0  0  0  0  0  0  0  0  0  0  0  0
    4.0704   -0.3266    4.0072 N   0  0  0  0  0  0  0  0  0  0  0  0
    3.6924   -1.7226    3.3202 S   0  0  0  0  0  4  0  0  0  0  0  0
    3.0330   -1.1599    1.9770 N   0  0  0  0  0  0  0  0  0  0  0  0
    3.8580    2.0448    3.4817 C   0  0  0  0  0  0  0  0  0  0  0  0
    3.3571    2.9081    2.4872 C   0  0  0  0  0  0  0  0  0  0  0  0
    3.3327    4.2415    2.5395 N   0  0  0  0  0  0  0  0  0  0  0  0
    2.6991    4.8031    1.1824 S   0  0  0  0  0  0  0  0  0  0  0  0
    2.3698    3.4183    0.4684 N   0  0  0  0  0  0  0  0  0  0  0  0
    2.7334    2.4124    1.2733 C   0  0  0  0  0  0  0  0  0  0  0  0
    4.4010    2.4605    4.7272 C   0  0  0  0  0  0  0  0  0  0  0  0
    5.0968    3.6087    4.9694 C   0  0  0  0  0  0  0  0  0  0  0  0
    5.7984    4.4149    3.9406 C   0  0  0  0  0  0  0  0  0  0  0  0
    5.9015    4.1930    2.7555 O   0  0  0  0  0  0  0  0  0  0  0  0
    6.4966    5.4832    4.6934 C   0  0  0  0  0  0  0  0  0  0  0  0
    7.2725    6.5108    4.1947 C   0  0  0  0  0  0  0  0  0  0  0  0
    7.8412    7.3884    5.1035 C   0  0  0  0  0  0  0  0  0  0  0  0
    8.5916    8.4055    4.6631 F   0  0  0  0  0  0  0  0  0  0  0  0
    7.6394    7.2225    6.4743 C   0  0  0  0  0  0  0  0  0  0  0  0
    8.2049    8.0818    7.3293 F   0  0  0  0  0  0  0  0  0  0  0  0
    6.8673    6.1858    6.9760 C   0  0  0  0  0  0  0  0  0  0  0  0
    6.2886    5.3082    6.0716 C   0  0  0  0  0  0  0  0  0  0  0  0
    5.4233    4.1478    6.2752 C   0  0  0  0  0  0  0  0  0  0  0  0
    4.9430    3.7133    7.4816 C   0  0  0  0  0  0  0  0  0  0  0  0
    4.0346    2.6473    7.6624 C   0  0  0  0  0  0  0  0  0  0  0  0
    3.2826    1.8135    7.9015 N   0  0  0  0  0  0  0  0  0  0  0  0
    5.2786    4.2947    8.7234 C   0  0  0  0  0  0  0  0  0  0  0  0
    5.5167    4.7194    9.7624 N   0  0  0  0  0  0  0  0  0  0  0  0
   -4.0665   -2.1012   -6.7420 H   0  0  0  0  0  0  0  0  0  0  0  0
   -6.3285   -5.3645   -1.8720 H   0  0  0  0  0  0  0  0  0  0  0  0
   -8.2983   -5.7608   -6.4342 H   0  0  0  0  0  0  0  0  0  0  0  0
    1.6057   -2.0987   -2.2334 H   0  0  0  0  0  0  0  0  0  0  0  0
    2.9512   -1.1976   -0.4165 H   0  0  0  0  0  0  0  0  0  0  0  0
    4.2443    1.7575    5.5361 H   0  0  0  0  0  0  0  0  0  0  0  0
    7.4298    6.6337    3.1351 H   0  0  0  0  0  0  0  0  0  0  0  0
    6.7466    6.0969    8.0432 H   0  0  0  0  0  0  0  0  0  0  0  0
  1  2  2  0  0  0  0
  2  3  1  0  0  0  0
  3  4  2  0  0  0  0
  3  5  1  0  0  0  0
  5  6  2  0  0  0  0
  6  7  1  0  0  0  0
  7  8  1  0  0  0  0
  7  9  2  0  0  0  0
  9 10  1  0  0  0  0
  9 11  1  0  0  0  0
 11 12  2  0  0  0  0
 12 13  1  0  0  0  0
 13 14  2  0  0  0  0
 14 15  1  0  0  0  0
 15 16  3  0  0  0  0
 14 17  1  0  0  0  0
 17 18  3  0  0  0  0
  1 19  1  0  0  0  0
 19 20  2  0  0  0  0
 20 21  1  0  0  0  0
 21 22  1  0  0  0  0
 22 23  2  0  0  0  0
 23 24  2  0  0  0  0
 21 25  2  0  0  0  0
 25 26  1  0  0  0  0
 26 27  2  0  0  0  0
 27 28  1  0  0  0  0
 28 29  1  0  0  0  0
 29 30  2  0  0  0  0
 25 31  1  0  0  0  0
 31 32  2  0  0  0  0
 32 33  1  0  0  0  0
 33 34  2  0  0  0  0
 34 35  1  0  0  0  0
 35 36  2  0  0  0  0
 36 37  1  0  0  0  0
 37 38  1  0  0  0  0
 38 39  2  0  0  0  0
 34 40  1  0  0  0  0
 40 41  2  0  0  0  0
 41 42  1  0  0  0  0
 42 43  1  0  0  0  0
 43 44  2  0  0  0  0
 44 45  2  0  0  0  0
 42 46  2  0  0  0  0
 46 47  1  0  0  0  0
 47 48  2  0  0  0  0
 48 49  1  0  0  0  0
 49 50  1  0  0  0  0
 50 51  2  0  0  0  0
 46 52  1  0  0  0  0
 52 53  2  0  0  0  0
 53 54  1  0  0  0  0
 54 55  2  0  0  0  0
 54 56  1  0  0  0  0
 56 57  2  0  0  0  0
 57 58  1  0  0  0  0
 58 59  1  0  0  0  0
 58 60  2  0  0  0  0
 60 61  1  0  0  0  0
 60 62  1  0  0  0  0
 62 63  2  0  0  0  0
 63 64  1  0  0  0  0
 64 65  2  0  0  0  0
 65 66  1  0  0  0  0
 66 67  3  0  0  0  0
 65 68  1  0  0  0  0
 68 69  3  0  0  0  0
 13  2  1  0  0  0  0
 30 19  1  0  0  0  0
 39 31  1  0  0  0  0
 51 40  1  0  0  0  0
 64 53  1  0  0  0  0
 12  5  1  0  0  0  0
 24 20  1  0  0  0  0
 30 26  1  0  0  0  0
 39 35  1  0  0  0  0
 45 41  1  0  0  0  0
 51 47  1  0  0  0  0
 63 56  1  0  0  0  0
  1 70  1  0  0  0  0
  6 71  1  0  0  0  0
 11 72  1  0  0  0  0
 32 73  1  0  0  0  0
 33 74  1  0  0  0  0
 52 75  1  0  0  0  0
 57 76  1  0  0  0  0
 62 77  1  0  0  0  0
M  END
