252

C         -2.36980        5.93570        5.20820
C         -2.06100        7.28360        5.15040
C         -0.83510        7.85650        4.60750
O          0.14620        7.27410        4.17750
C         -1.01630        9.32510        4.65980
C         -0.14380       10.31410        4.25600
C         -0.55020       11.63070        4.40970
F          0.26590       12.62530        4.03100
C         -1.79750       11.92910        4.95360
F         -2.16610       13.21010        5.08960
C         -2.67410       10.93260        5.36040
C         -2.27600        9.61480        5.20970
C         -2.94280        8.35200        5.54130
C         -4.17990        8.24790        6.13480
C         -5.00100        9.35070        6.44220
N         -5.72180       10.20520        6.70590
C         -4.79610        7.05100        6.54580
N         -5.35890        6.12660        6.93540
C         -1.61220        4.82150        4.88470
C         -2.11800        3.49470        4.99890
N         -3.42790        3.15350        5.20910
C         -4.49120        3.82030        4.57580
C         -4.33440        4.38830        3.31460
C         -5.39180        5.02220        2.69420
C         -6.62940        5.08890        3.32260
S         -8.05450        5.85600        2.62120
C         -7.41120        6.72830        1.16410
C         -6.79340        4.50320        4.57640
C         -5.73690        3.87920        5.20060
C         -3.69490        1.92250        5.83870
C         -3.06600        1.60630        7.04280
C         -3.31510        0.39920        7.65520
C         -4.18260       -0.52380        7.07160
S         -4.39160       -2.05470        7.92410
C         -5.52010       -2.99710        6.86050
C         -4.81480       -0.20850        5.87590
C         -4.57840        1.00970        5.27250
C         -1.10410        2.55520        4.80080
S         -1.09460        0.82050        4.74790
C          0.52900        0.85140        4.06860
C          1.07020        2.13910        4.04490
N          2.35290        2.41340        3.58200
C          2.49600        3.37350        2.57010
C          3.59990        4.21760        2.51330
C          3.74450        5.11540        1.47440
C          2.78170        5.18750        0.47690
S          2.91060        6.25170       -0.92620
C          4.68500        6.62410       -1.00490
C          1.64800        4.38330        0.55720
C          1.50930        3.48630        1.59100
C          3.43860        1.71910        4.11740
C          4.58640        1.47870        3.35660
C          5.63960        0.77380        3.89060
C          5.58140        0.28410        5.19370
S          6.99370       -0.61460        5.76370
C          6.70760       -0.78810        7.54830
C          4.43960        0.50690        5.94880
C          3.38200        1.21800        5.41640
C          0.12510        3.10450        4.43970
S          0.09190        4.83380        4.39930
C          0.96300       -0.24160        3.29510
C          0.20180       -1.40030        3.09470
N         -0.58170       -1.93580        4.09520
C         -1.79750       -2.56130        3.80190
C         -2.64000       -2.01130        2.83800
C         -3.85010       -2.60190        2.55890
C         -4.25170       -3.75110        3.23550
S         -5.85110       -4.38370        2.82540
C         -5.99030       -5.90570        3.80310
C         -3.40810       -4.31140        4.18610
C         -2.18930       -3.72260        4.46190
C         -0.07340       -1.95710        5.40730
C         -0.94370       -1.86800        6.49340
C         -0.45970       -1.88980        7.78050
C          0.91010       -1.98550        8.01990
S          1.41120       -1.99290        9.71180
C          3.22190       -2.10230        9.63270
C          1.78120       -2.07150        6.94260
C          1.29260       -2.06380        5.65070
C          0.41890       -1.91250        1.79930
S         -0.45100       -2.99260        0.76410
C          0.61300       -2.57370       -0.57220
C          1.68350       -1.78100       -0.17900
N          2.81270       -1.57500       -0.94950
C          3.27750       -2.59980       -1.79270
C          3.08600       -3.94400       -1.48310
C          3.46820       -4.93850       -2.36120
C          4.06110       -4.60720       -3.57060
S          4.48050       -5.80200       -4.80460
C          4.66460       -7.33380       -3.84300
C          4.32510       -3.26950       -3.85400
C          3.95400       -2.27860       -2.97120
C          3.66320       -0.47780       -0.70140
C          5.01710       -0.68210       -0.45370
C          5.86120        0.38550       -0.21640
C          5.36220        1.68160       -0.23070
S          6.33120        3.12520        0.07240
C          7.98210        2.47960        0.45920
C          4.01180        1.89140       -0.49590
C          3.17250        0.82450       -0.72080
C          1.49240       -1.31910        1.14290
S          2.19630       -0.03350        2.05640
C          0.28980       -2.80170       -1.95330
C          0.06590       -1.75330       -2.82990
N         -0.07880       -0.43200       -2.40870
C         -0.98320       -0.14750       -1.37200
C         -0.66900        0.75830       -0.35650
C         -1.60640        1.10410        0.58930
C         -2.88690        0.56020        0.55020
S         -4.02460        1.14650        1.77330
C         -5.64880        0.79060        1.04350
C         -3.18790       -0.39290       -0.41310
C         -2.24350       -0.74270       -1.35960
C          0.66270        0.58500       -3.01950
C          0.27380        1.92060       -2.93760
C          1.07020        2.92440       -3.45420
C          2.26060        2.61280       -4.09560
S          3.38630        3.80740       -4.74040
C          2.49620        5.38080       -4.58000
C          2.61880        1.27530       -4.24170
C          1.83460        0.27750       -3.71110
C         -0.01330       -2.20590       -4.16730
S         -0.11570       -1.39990       -5.68870
C          0.00360       -2.95370       -6.52370
C          0.19560       -4.03320       -5.61580
N          0.49640       -5.31760       -5.97120
C          1.27320       -5.60830       -7.11150
C          0.96970       -6.71750       -7.89350
C          1.68140       -6.97170       -9.05030
C          2.69510       -6.11030       -9.44530
S          3.59190       -6.28410      -10.95230
C          2.54390       -7.39110      -11.93850
C          3.04640       -5.03870       -8.62250
C          2.35010       -4.79300       -7.46300
C          0.16080       -6.37160       -5.10750
C          1.06430       -7.41030       -4.88130
C          0.73450       -8.43660       -4.02710
C         -0.50240       -8.45300       -3.38070
S         -0.79880       -9.81120       -2.29830
C         -2.44400       -9.47570       -1.61020
C         -1.41180       -7.43210       -3.62220
C         -1.08180       -6.40230       -4.48150
C          0.12570       -3.58430       -4.28620
S          0.27130       -4.36350       -2.74200
C         -0.14660       -3.13050       -7.89390
C         -0.22770       -2.20850       -8.91890
C         -0.09310       -0.75880       -8.79060
O         -0.03820       -0.09450       -7.77170
C         -0.02860       -0.23530      -10.17410
C          0.11410        1.07090      -10.59470
C          0.14550        1.30530      -11.96090
F          0.28100        2.55840      -12.41550
C          0.03510        0.25100      -12.86590
F          0.06670        0.50700      -14.17980
C         -0.10980       -1.06250      -12.44150
C         -0.13990       -1.30450      -11.07820
C         -0.30240       -2.54480      -10.31770
C         -0.50530       -3.78660      -10.87140
C         -0.82860       -4.95620      -10.16020
N         -1.13100       -5.95270       -9.67160
C         -0.44300       -4.06360      -12.25120
N         -0.37950       -4.37790      -13.35410
H         -3.36370        5.69830        5.56540
H          0.82070       10.07760        3.83610
H         -3.62670       11.21740        5.77560
H         -3.38170        4.32530        2.81100
H         -5.23990        5.44630        1.71480
H         -6.61270        7.40150        1.46170
H         -7.07160        6.01710        0.41660
H         -8.24830        7.29850        0.77360
H         -7.75510        4.55940        5.06100
H         -5.86630        3.44370        6.17840
H         -2.39060        2.31650        7.49560
H         -2.83950        0.15610        8.59240
H         -5.64230       -3.95830        7.35090
H         -6.48010       -2.49360        6.79460
H         -5.07270       -3.13070        5.87930
H         -5.48640       -0.90200        5.39720
H         -5.06570        1.25010        4.34100
H          4.35150        4.17180        3.28650
H          4.61280        5.75310        1.45340
H          5.24950        5.70210       -0.89880
H          4.85480        7.05650       -1.98600
H          4.95170        7.34310       -0.23570
H          0.89320        4.45360       -0.21140
H          0.64340        2.84390        1.63420
H          4.63430        1.83480        2.34000
H          6.52170        0.58100        3.29940
H          5.88840       -1.47710        7.73430
H          6.51270        0.18660        7.98540
H          7.62710       -1.19820        7.95400
H          4.35930        0.13970        6.95930
H          2.50170        1.38560        6.01950
H         -2.34090       -1.10860        2.33140
H         -4.50760       -2.17620        1.81810
H         -6.94890       -6.33790        3.53300
H         -5.18940       -6.58990        3.53850
H         -5.97870       -5.67270        4.86400
H         -3.68210       -5.20920        4.71690
H         -1.53880       -4.16730        5.19980
H         -2.00220       -1.77310        6.31670
H         -1.14030       -1.83060        8.61540
H          3.62250       -1.22640        9.13050
H          3.55940       -2.11900       10.66430
H          3.51960       -3.02000        9.13350
H          2.84560       -2.15880        7.08690
H          1.98770       -2.14430        4.82810
H          2.61620       -4.22040       -0.55100
H          3.27820       -5.96610       -2.09710
H          5.10530       -8.05580       -4.52330
H          3.69650       -7.69020       -3.50300
H          5.33320       -7.15470       -3.00660
H          4.82110       -3.01500       -4.77820
H          4.18990       -1.24780       -3.18670
H          5.41220       -1.68750       -0.44460
H          6.90290        0.18960       -0.02000
H          8.59320        3.34980        0.67740
H          7.93170        1.83730        1.33360
H          8.38680        1.95220       -0.39960
H          3.62650        2.89760       -0.52680
H          2.13540        1.00110       -0.94340
H          0.30600        1.21650       -0.31660
H         -1.36650        1.81400        1.36740
H         -6.36220        1.38880        1.60270
H         -5.89360       -0.26270        1.14700
H         -5.64810        1.09250        0.00080
H         -4.16090       -0.85680       -0.44820
H         -2.49410       -1.46970       -2.11800
H         -0.65680        2.18400       -2.45770
H          0.74810        3.94760       -3.34730
H          1.54980        5.32090       -5.10910
H          3.13320        6.12430       -5.04910
H          2.35390        5.62680       -3.53120
H          3.52880        1.02990       -4.76780
H          2.13360       -0.75220       -3.81870
H          0.15820       -7.36910       -7.61000
H          1.41430       -7.82900       -9.64520
H          2.60120       -8.40650      -11.55730
H          1.52190       -7.02370      -11.93520
H          2.94620       -7.35420      -12.94610
H          3.86980       -4.40390       -8.91030
H          2.62280       -3.96200       -6.83060
H          2.02210       -7.39450       -5.37860
H          1.42870       -9.24300       -3.84420
H         -2.63790      -10.28450       -0.91240
H         -2.43800       -8.52590       -1.08340
H         -3.18810       -9.48710       -2.40130
H         -2.38300       -7.42710       -3.15550
H         -1.79960       -5.62040       -4.67990
H         -0.18310       -4.16710       -8.20250
H          0.19790        1.88380       -9.89130
H         -0.19160       -1.84230      -13.18080
