136

C          0.07940       -5.55310        5.52130
C          0.65080       -6.80140        5.49830
C          1.76500       -7.20510        4.61650
O          2.36460       -6.53620        3.80250
C          2.12600       -8.57850        5.04570
C          3.09730       -9.40890        4.52520
C          3.26720      -10.65100        5.11650
F          4.19340      -11.49290        4.63710
C          2.48490      -11.03200        6.20550
F          2.67450      -12.23550        6.76190
C          1.51350      -10.19390        6.73360
C          1.33390       -8.95320        6.14290
C          0.41030       -7.85960        6.44930
C         -0.55110       -7.88430        7.42900
C         -1.48250       -6.85930        7.68700
N         -2.28810       -6.08970        7.96860
C         -0.74480       -8.96010        8.31990
N         -0.94770       -9.79860        9.07740
C          0.10830       -4.59030        4.49160
C          0.19060       -4.86490        3.10630
C          0.19450       -3.81490        2.11340
N          0.25910       -4.30140        0.87370
S          0.29480       -5.90800        0.94730
N          0.20160       -6.06890        2.53810
C          0.03170       -2.44400        2.42730
C          0.00520       -2.16460        3.81330
N          0.02770       -0.95360        4.37100
S          0.04290       -1.11060        5.97120
N          0.01310       -2.71810        6.04520
C          0.01250       -3.21300        4.80910
C         -0.08160       -1.48280        1.39710
C         -0.70580       -0.22050        1.38960
N         -1.58680        0.25950        2.32450
C         -1.70870        1.65070        2.46560
C         -2.96450        2.25490        2.52250
C         -3.06430        3.62630        2.56640
C         -1.91780        4.42240        2.56030
S         -2.17310        6.16310        2.55290
C         -0.50290        6.84890        2.36630
C         -0.66620        3.81970        2.56090
C         -0.56560        2.44420        2.51250
C         -2.37130       -0.60420        3.09060
C         -2.68420       -0.29270        4.41250
C         -3.28290       -1.22950        5.23060
C         -3.59580       -2.49230        4.73650
S         -4.19990       -3.81220        5.72270
C         -3.73960       -3.31930        7.40540
C         -3.41250       -2.75250        3.37580
C         -2.81500       -1.82060        2.56300
C         -0.44430        0.45460        0.17510
S         -0.80530        2.04220       -0.41320
C         -0.07460        1.66060       -1.97110
C          0.52170        0.38060       -1.97650
N          1.31100       -0.20670       -2.93440
C          1.27040       -1.62100       -2.97050
C          0.04390       -2.26530       -3.09290
C         -0.03660       -3.64110       -3.01610
C          1.11500       -4.39050       -2.80870
S          1.12790       -6.13750       -2.60930
C         -0.63130       -6.57480       -2.50910
C          2.35220       -3.74810       -2.74610
C          2.43300       -2.37670       -2.82840
C          2.15990        0.46290       -3.80240
C          2.66020        1.73610       -3.51550
C          3.43160        2.41830       -4.43220
C          3.75390        1.83060       -5.65300
S          4.68310        2.60480       -6.91920
C          4.96640        4.29190       -6.32350
C          3.32720        0.52220       -5.90710
C          2.55160       -0.15320       -4.99900
C          0.26840       -0.28680       -0.75170
S          0.64550       -1.87140       -0.15100
C         -0.19160        2.65590       -2.96690
C         -0.48440        3.99490       -2.59150
C         -0.44200        5.11200       -3.50520
N         -0.60270        6.26920       -2.86920
S         -0.86950        5.99300       -1.31390
N         -0.72550        4.38750       -1.34240
C         -0.16470        4.94200       -4.88270
C          0.01870        3.59420       -5.27810
N          0.18620        3.19470       -6.53610
S          0.24090        1.58830       -6.57850
N          0.07050        1.31150       -5.00340
C         -0.02980        2.47700       -4.36100
C          0.01560        5.98800       -5.80390
C         -0.53520        7.24660       -5.73940
C         -1.81640        7.58010       -5.08690
O         -2.54910        6.85880       -4.44590
C         -2.11560        8.97140       -5.51640
C         -3.20800        9.74910       -5.19550
C         -3.29200       11.02600       -5.74050
Cl        -4.62570       12.04940       -5.37180
C         -2.28420       11.47640       -6.59400
F         -2.37730       12.70460       -7.12120
C         -1.18350       10.69930       -6.92350
C         -1.10190        9.43050       -6.37470
C         -0.08830        8.38690       -6.49410
C          1.14260        8.51270       -7.09390
C          1.55470        9.64550       -7.82130
N          1.93350       10.53920       -8.43490
C          2.16120        7.54780       -6.98070
N          3.05300        6.83040       -6.87200
H         -0.41410       -5.22510        6.42810
H          3.70370       -9.10870        3.68570
H          0.94010      -10.53280        7.58060
H         -3.85340        1.64250        2.50410
H         -4.03210        4.10280        2.58510
H          0.08410        6.65220        3.25880
H         -0.03350        6.43330        1.47950
H         -0.63830        7.91920        2.24630
H          0.23620        4.40700        2.59490
H          0.40470        1.97120        2.51390
H         -2.39890        0.66860        4.81270
H         -3.48240       -0.97700        6.25950
H         -2.71530       -2.95940        7.40350
H         -3.80300       -4.22620        7.99840
H         -4.42820       -2.56920        7.78370
H         -3.72480       -3.70630        2.97960
H         -2.66010       -2.03960        1.51730
H         -0.84880       -1.67520       -3.23770
H         -1.00020       -4.11320       -3.11120
H         -1.11140       -6.42170       -3.47140
H         -1.10770       -5.99080       -1.72750
H         -0.65730       -7.62910       -2.25210
H          3.24320       -4.34010       -2.60750
H          3.38810       -1.87940       -2.75360
H          2.43330        2.20030       -2.56780
H          3.77610        3.41070       -4.18940
H          5.54240        4.27040       -5.40320
H          4.02230        4.81370       -6.19990
H          5.54210        4.77990       -7.10390
H          3.60430        0.05720       -6.84030
H          2.19500       -1.14440       -5.22910
H          0.62970        5.73600       -6.66090
H         -3.97480        9.37590       -4.53560
H         -0.43970       11.09980       -7.59330
