
  xtb     02032221363D
 energy: -268.991490778019 gnorm: 0.000316667342 xtb: 6.4.1 (unknown)
145157  0     0  0            999 V2000
    9.7090   -0.2164   -1.2804 C   0  0  0  0  0  0  0  0  0  0  0  0
   10.3658   -1.0534   -0.4353 C   0  0  0  0  0  0  0  0  0  0  0  0
    9.7014   -1.9218    0.5724 C   0  0  0  0  0  0  0  0  0  0  0  0
    8.5588   -1.8720    0.9682 O   0  0  0  0  0  0  0  0  0  0  0  0
   10.7243   -2.9222    0.9482 C   0  0  0  0  0  0  0  0  0  0  0  0
   10.5878   -3.9984    1.8037 C   0  0  0  0  0  0  0  0  0  0  0  0
   11.6940   -4.8089    1.9988 C   0  0  0  0  0  0  0  0  0  0  0  0
   11.6085   -5.8589    2.8216 F   0  0  0  0  0  0  0  0  0  0  0  0
   12.8992   -4.5406    1.3450 C   0  0  0  0  0  0  0  0  0  0  0  0
   13.9460   -5.3444    1.5491 F   0  0  0  0  0  0  0  0  0  0  0  0
   13.0376   -3.4602    0.4875 C   0  0  0  0  0  0  0  0  0  0  0  0
   11.9351   -2.6421    0.2899 C   0  0  0  0  0  0  0  0  0  0  0  0
   11.7649   -1.4405   -0.5183 C   0  0  0  0  0  0  0  0  0  0  0  0
   12.7530   -0.7320   -1.1431 C   0  0  0  0  0  0  0  0  0  0  0  0
   12.5437    0.5212   -1.7603 C   0  0  0  0  0  0  0  0  0  0  0  0
   12.4354    1.5638   -2.2265 N   0  0  0  0  0  0  0  0  0  0  0  0
   14.1063   -1.1309   -1.1830 C   0  0  0  0  0  0  0  0  0  0  0  0
   15.2152   -1.4171   -1.2466 N   0  0  0  0  0  0  0  0  0  0  0  0
    8.3106    0.1197   -1.1685 C   0  0  0  0  0  0  0  0  0  0  0  0
    7.5415    0.0402   -2.3448 C   0  0  0  0  0  0  0  0  0  0  0  0
    8.1734   -0.1988   -3.5062 F   0  0  0  0  0  0  0  0  0  0  0  0
    6.1701    0.1338   -2.3172 C   0  0  0  0  0  0  0  0  0  0  0  0
    5.4749    0.0712   -3.4624 F   0  0  0  0  0  0  0  0  0  0  0  0
    5.4955    0.3047   -1.1019 C   0  0  0  0  0  0  0  0  0  0  0  0
    6.2398    0.4914    0.0630 C   0  0  0  0  0  0  0  0  0  0  0  0
    5.5822    0.7489    1.2303 O   0  0  0  0  0  0  0  0  0  0  0  0
    5.7765   -0.1937    2.2861 C   0  0  0  0  0  0  0  0  0  0  0  0
    5.1193   -1.5301    1.9688 C   0  0  0  0  0  0  0  0  0  0  0  0
    7.6538    0.4631    0.0284 C   0  0  0  0  0  0  0  0  0  0  0  0
    8.2518    0.8646    1.1627 O   0  0  0  0  0  0  0  0  0  0  0  0
    9.5861    1.3268    1.2005 C   0  0  0  0  0  0  0  0  0  0  0  0
    9.6650    2.4213    2.2550 C   0  0  0  0  0  0  0  0  0  0  0  0
    4.0274    0.2865   -1.0535 C   0  0  0  0  0  0  0  0  0  0  0  0
    3.3251    1.2760   -0.3746 C   0  0  0  0  0  0  0  0  0  0  0  0
    1.9440    1.2350   -0.2572 C   0  0  0  0  0  0  0  0  0  0  0  0
    1.2090    2.1594    0.4028 O   0  0  0  0  0  0  0  0  0  0  0  0
    1.8249    3.0862    1.2789 C   0  0  0  0  0  0  0  0  0  0  0  0
    2.4014    2.4248    2.5252 C   0  0  0  0  0  0  0  0  0  0  0  0
    1.2145    0.1920   -0.8729 C   0  0  0  0  0  0  0  0  0  0  0  0
    1.9225   -0.7959   -1.5565 C   0  0  0  0  0  0  0  0  0  0  0  0
    3.2967   -0.7496   -1.6313 C   0  0  0  0  0  0  0  0  0  0  0  0
    3.9404   -1.7723   -2.2282 F   0  0  0  0  0  0  0  0  0  0  0  0
   -0.2251    0.1221   -0.7632 C   0  0  0  0  0  0  0  0  0  0  0  0
   -1.0717   -0.6634   -1.4945 C   0  0  0  0  0  0  0  0  0  0  0  0
   -2.4299   -0.5569   -1.1117 C   0  0  0  0  0  0  0  0  0  0  0  0
   -3.5365   -1.2360   -1.6531 C   0  0  0  0  0  0  0  0  0  0  0  0
   -3.3843   -2.2343   -2.7192 C   0  0  0  0  0  0  0  0  0  0  0  0
   -2.4543   -3.2856   -2.5698 C   0  0  0  0  0  0  0  0  0  0  0  0
   -2.3014   -4.2257   -3.5471 C   0  0  0  0  0  0  0  0  0  0  0  0
   -3.0680   -4.1726   -4.7309 C   0  0  0  0  0  0  0  0  0  0  0  0
   -2.9209   -5.1299   -5.7532 C   0  0  0  0  0  0  0  0  0  0  0  0
   -3.6815   -5.0525   -6.8913 C   0  0  0  0  0  0  0  0  0  0  0  0
   -3.6022   -6.1875   -8.2401 S   0  0  0  0  0  0  0  0  0  0  0  0
   -2.0578   -7.1256   -7.9772 C   0  0  0  0  0  0  0  0  0  0  0  0
   -0.8233   -6.2765   -8.2141 C   0  0  0  0  0  0  0  0  0  0  0  0
   -4.6333   -4.0188   -7.0352 C   0  0  0  0  0  0  0  0  0  0  0  0
   -4.7947   -3.0840   -6.0584 C   0  0  0  0  0  0  0  0  0  0  0  0
   -4.0149   -3.1266   -4.8808 C   0  0  0  0  0  0  0  0  0  0  0  0
   -4.1506   -2.1712   -3.8599 C   0  0  0  0  0  0  0  0  0  0  0  0
   -4.7751   -0.9241   -1.1172 C   0  0  0  0  0  0  0  0  0  0  0  0
   -4.9493   -0.0078   -0.0414 C   0  0  0  0  0  0  0  0  0  0  0  0
   -3.8333    0.6494    0.5185 C   0  0  0  0  0  0  0  0  0  0  0  0
   -3.9643    1.5490    1.6681 C   0  0  0  0  0  0  0  0  0  0  0  0
   -3.3516    2.7811    1.6712 C   0  0  0  0  0  0  0  0  0  0  0  0
   -3.4406    3.6342    2.7842 C   0  0  0  0  0  0  0  0  0  0  0  0
   -2.8062    4.8943    2.8149 C   0  0  0  0  0  0  0  0  0  0  0  0
   -2.8936    5.7033    3.9106 C   0  0  0  0  0  0  0  0  0  0  0  0
   -3.6424    5.2966    5.0308 C   0  0  0  0  0  0  0  0  0  0  0  0
   -3.7666    6.2770    6.4989 S   0  0  0  0  0  0  0  0  0  0  0  0
   -3.6763    7.9976    5.8863 C   0  0  0  0  0  0  0  0  0  0  0  0
   -4.8156    8.3278    4.9424 C   0  0  0  0  0  0  0  0  0  0  0  0
   -4.2676    4.0728    5.0332 C   0  0  0  0  0  0  0  0  0  0  0  0
   -4.1787    3.2160    3.9232 C   0  0  0  0  0  0  0  0  0  0  0  0
   -4.8017    1.9490    3.8970 C   0  0  0  0  0  0  0  0  0  0  0  0
   -4.6979    1.1394    2.8050 C   0  0  0  0  0  0  0  0  0  0  0  0
   -2.6027    0.3727   -0.0538 C   0  0  0  0  0  0  0  0  0  0  0  0
   -1.0794    1.0724    0.4258 S   0  0  0  0  0  0  0  0  0  0  0  0
   -6.2991    0.1386    0.3239 C   0  0  0  0  0  0  0  0  0  0  0  0
   -7.1601   -0.6545   -0.4010 C   0  0  0  0  0  0  0  0  0  0  0  0
   -6.2960   -1.6050   -1.6132 S   0  0  0  0  0  0  0  0  0  0  0  0
   -8.5615   -0.7951   -0.3782 C   0  0  0  0  0  0  0  0  0  0  0  0
   -9.5006   -0.3393    0.5101 C   0  0  0  0  0  0  0  0  0  0  0  0
   -9.2851    0.2827    1.8341 C   0  0  0  0  0  0  0  0  0  0  0  0
   -8.2538    0.6576    2.3504 O   0  0  0  0  0  0  0  0  0  0  0  0
  -10.6223    0.3369    2.4675 C   0  0  0  0  0  0  0  0  0  0  0  0
  -10.9432    0.7911    3.7315 C   0  0  0  0  0  0  0  0  0  0  0  0
  -12.2727    0.7350    4.1154 C   0  0  0  0  0  0  0  0  0  0  0  0
  -12.6314    1.1642    5.3317 F   0  0  0  0  0  0  0  0  0  0  0  0
  -13.2422    0.2330    3.2463 C   0  0  0  0  0  0  0  0  0  0  0  0
  -14.5179    0.1838    3.6460 F   0  0  0  0  0  0  0  0  0  0  0  0
  -12.9192   -0.2194    1.9758 C   0  0  0  0  0  0  0  0  0  0  0  0
  -11.5903   -0.1638    1.5837 C   0  0  0  0  0  0  0  0  0  0  0  0
  -10.9299   -0.5422    0.3355 C   0  0  0  0  0  0  0  0  0  0  0  0
  -11.5776   -0.9390   -0.8042 C   0  0  0  0  0  0  0  0  0  0  0  0
  -10.9755   -1.1998   -2.0549 C   0  0  0  0  0  0  0  0  0  0  0  0
  -10.5824   -1.4064   -3.1138 N   0  0  0  0  0  0  0  0  0  0  0  0
  -12.9765   -1.1048   -0.8983 C   0  0  0  0  0  0  0  0  0  0  0  0
  -14.1040   -1.2651   -1.0395 N   0  0  0  0  0  0  0  0  0  0  0  0
   10.2068    0.1180   -2.1830 H   0  0  0  0  0  0  0  0  0  0  0  0
    9.6556   -4.2046    2.3051 H   0  0  0  0  0  0  0  0  0  0  0  0
   13.9852   -3.2958    0.0010 H   0  0  0  0  0  0  0  0  0  0  0  0
    6.8419   -0.3368    2.4814 H   0  0  0  0  0  0  0  0  0  0  0  0
    5.3080    0.2770    3.1535 H   0  0  0  0  0  0  0  0  0  0  0  0
    4.0724   -1.3874    1.7082 H   0  0  0  0  0  0  0  0  0  0  0  0
    5.1840   -2.1818    2.8351 H   0  0  0  0  0  0  0  0  0  0  0  0
    5.6297   -2.0070    1.1352 H   0  0  0  0  0  0  0  0  0  0  0  0
   10.2597    0.4993    1.4670 H   0  0  0  0  0  0  0  0  0  0  0  0
    9.8887    1.7116    0.2181 H   0  0  0  0  0  0  0  0  0  0  0  0
    9.3477    2.0322    3.2183 H   0  0  0  0  0  0  0  0  0  0  0  0
    9.0157    3.2492    1.9841 H   0  0  0  0  0  0  0  0  0  0  0  0
   10.6869    2.7803    2.3326 H   0  0  0  0  0  0  0  0  0  0  0  0
    3.8914    2.0798    0.0630 H   0  0  0  0  0  0  0  0  0  0  0  0
    2.5908    3.6651    0.7492 H   0  0  0  0  0  0  0  0  0  0  0  0
    1.0094    3.7595    1.5558 H   0  0  0  0  0  0  0  0  0  0  0  0
    1.6264    1.8475    3.0237 H   0  0  0  0  0  0  0  0  0  0  0  0
    3.2252    1.7627    2.2712 H   0  0  0  0  0  0  0  0  0  0  0  0
    2.7631    3.1900    3.2060 H   0  0  0  0  0  0  0  0  0  0  0  0
    1.4090   -1.6271   -2.0101 H   0  0  0  0  0  0  0  0  0  0  0  0
   -0.7507   -1.2842   -2.3106 H   0  0  0  0  0  0  0  0  0  0  0  0
   -1.8823   -3.3505   -1.6554 H   0  0  0  0  0  0  0  0  0  0  0  0
   -1.5905   -5.0305   -3.4223 H   0  0  0  0  0  0  0  0  0  0  0  0
   -2.2005   -5.9193   -5.6031 H   0  0  0  0  0  0  0  0  0  0  0  0
   -2.0820   -7.5570   -6.9771 H   0  0  0  0  0  0  0  0  0  0  0  0
   -2.1190   -7.9345   -8.7053 H   0  0  0  0  0  0  0  0  0  0  0  0
   -0.7889   -5.4360   -7.5241 H   0  0  0  0  0  0  0  0  0  0  0  0
    0.0727   -6.8786   -8.0751 H   0  0  0  0  0  0  0  0  0  0  0  0
   -0.8265   -5.8858   -9.2289 H   0  0  0  0  0  0  0  0  0  0  0  0
   -5.2252   -3.9908   -7.9375 H   0  0  0  0  0  0  0  0  0  0  0  0
   -5.5240   -2.2955   -6.1713 H   0  0  0  0  0  0  0  0  0  0  0  0
   -4.8578   -1.3660   -3.9964 H   0  0  0  0  0  0  0  0  0  0  0  0
   -2.8093    3.1209    0.8008 H   0  0  0  0  0  0  0  0  0  0  0  0
   -2.2334    5.2081    1.9538 H   0  0  0  0  0  0  0  0  0  0  0  0
   -2.3783    6.6514    3.9187 H   0  0  0  0  0  0  0  0  0  0  0  0
   -2.7012    8.1586    5.4274 H   0  0  0  0  0  0  0  0  0  0  0  0
   -3.7344    8.5956    6.7956 H   0  0  0  0  0  0  0  0  0  0  0  0
   -4.7569    9.3723    4.6423 H   0  0  0  0  0  0  0  0  0  0  0  0
   -4.7725    7.7064    4.0498 H   0  0  0  0  0  0  0  0  0  0  0  0
   -5.7714    8.1589    5.4330 H   0  0  0  0  0  0  0  0  0  0  0  0
   -4.8329    3.7636    5.8996 H   0  0  0  0  0  0  0  0  0  0  0  0
   -5.3613    1.6273    4.7626 H   0  0  0  0  0  0  0  0  0  0  0  0
   -5.1571    0.1626    2.8091 H   0  0  0  0  0  0  0  0  0  0  0  0
   -6.6364    0.8170    1.0845 H   0  0  0  0  0  0  0  0  0  0  0  0
   -8.9383   -1.3914   -1.2014 H   0  0  0  0  0  0  0  0  0  0  0  0
  -10.1889    1.1769    4.3986 H   0  0  0  0  0  0  0  0  0  0  0  0
  -13.7056   -0.5998    1.3451 H   0  0  0  0  0  0  0  0  0  0  0  0
  1  2  2  0  0  0  0
  2  3  1  0  0  0  0
  3  4  2  0  0  0  0
  3  5  1  0  0  0  0
  5  6  2  0  0  0  0
  6  7  1  0  0  0  0
  7  8  1  0  0  0  0
  7  9  2  0  0  0  0
  9 10  1  0  0  0  0
  9 11  1  0  0  0  0
 11 12  2  0  0  0  0
 12 13  1  0  0  0  0
 13 14  2  0  0  0  0
 14 15  1  0  0  0  0
 15 16  3  0  0  0  0
 14 17  1  0  0  0  0
 17 18  3  0  0  0  0
  1 19  1  0  0  0  0
 19 20  2  0  0  0  0
 20 21  1  0  0  0  0
 20 22  1  0  0  0  0
 22 23  1  0  0  0  0
 22 24  2  0  0  0  0
 24 25  1  0  0  0  0
 25 26  1  0  0  0  0
 26 27  1  0  0  0  0
 27 28  1  0  0  0  0
 25 29  2  0  0  0  0
 29 30  1  0  0  0  0
 30 31  1  0  0  0  0
 31 32  1  0  0  0  0
 24 33  1  0  0  0  0
 33 34  2  0  0  0  0
 34 35  1  0  0  0  0
 35 36  1  0  0  0  0
 36 37  1  0  0  0  0
 37 38  1  0  0  0  0
 35 39  2  0  0  0  0
 39 40  1  0  0  0  0
 40 41  2  0  0  0  0
 41 42  1  0  0  0  0
 39 43  1  0  0  0  0
 43 44  2  0  0  0  0
 44 45  1  0  0  0  0
 45 46  2  0  0  0  0
 46 47  1  0  0  0  0
 47 48  2  0  0  0  0
 48 49  1  0  0  0  0
 49 50  2  0  0  0  0
 50 51  1  0  0  0  0
 51 52  2  0  0  0  0
 52 53  1  0  0  0  0
 53 54  1  0  0  0  0
 54 55  1  0  0  0  0
 52 56  1  0  0  0  0
 56 57  2  0  0  0  0
 57 58  1  0  0  0  0
 58 59  2  0  0  0  0
 46 60  1  0  0  0  0
 60 61  2  0  0  0  0
 61 62  1  0  0  0  0
 62 63  1  0  0  0  0
 63 64  2  0  0  0  0
 64 65  1  0  0  0  0
 65 66  2  0  0  0  0
 66 67  1  0  0  0  0
 67 68  2  0  0  0  0
 68 69  1  0  0  0  0
 69 70  1  0  0  0  0
 70 71  1  0  0  0  0
 68 72  1  0  0  0  0
 72 73  2  0  0  0  0
 73 74  1  0  0  0  0
 74 75  2  0  0  0  0
 62 76  2  0  0  0  0
 76 77  1  0  0  0  0
 61 78  1  0  0  0  0
 78 79  2  0  0  0  0
 79 80  1  0  0  0  0
 79 81  1  0  0  0  0
 81 82  2  0  0  0  0
 82 83  1  0  0  0  0
 83 84  2  0  0  0  0
 83 85  1  0  0  0  0
 85 86  2  0  0  0  0
 86 87  1  0  0  0  0
 87 88  1  0  0  0  0
 87 89  2  0  0  0  0
 89 90  1  0  0  0  0
 89 91  1  0  0  0  0
 91 92  2  0  0  0  0
 92 93  1  0  0  0  0
 93 94  2  0  0  0  0
 94 95  1  0  0  0  0
 95 96  3  0  0  0  0
 94 97  1  0  0  0  0
 97 98  3  0  0  0  0
 13  2  1  0  0  0  0
 29 19  1  0  0  0  0
 41 33  1  0  0  0  0
 77 43  1  0  0  0  0
 93 82  1  0  0  0  0
 12  5  1  0  0  0  0
 76 45  1  0  0  0  0
 92 85  1  0  0  0  0
 59 47  1  0  0  0  0
 80 60  1  0  0  0  0
 58 50  1  0  0  0  0
 75 63  1  0  0  0  0
 73 65  1  0  0  0  0
  1 99  1  0  0  0  0
  6100  1  0  0  0  0
 11101  1  0  0  0  0
 27102  1  0  0  0  0
 27103  1  0  0  0  0
 28104  1  0  0  0  0
 28105  1  0  0  0  0
 28106  1  0  0  0  0
 31107  1  0  0  0  0
 31108  1  0  0  0  0
 32109  1  0  0  0  0
 32110  1  0  0  0  0
 32111  1  0  0  0  0
 34112  1  0  0  0  0
 37113  1  0  0  0  0
 37114  1  0  0  0  0
 38115  1  0  0  0  0
 38116  1  0  0  0  0
 38117  1  0  0  0  0
 40118  1  0  0  0  0
 44119  1  0  0  0  0
 48120  1  0  0  0  0
 49121  1  0  0  0  0
 51122  1  0  0  0  0
 54123  1  0  0  0  0
 54124  1  0  0  0  0
 55125  1  0  0  0  0
 55126  1  0  0  0  0
 55127  1  0  0  0  0
 56128  1  0  0  0  0
 57129  1  0  0  0  0
 59130  1  0  0  0  0
 64131  1  0  0  0  0
 66132  1  0  0  0  0
 67133  1  0  0  0  0
 70134  1  0  0  0  0
 70135  1  0  0  0  0
 71136  1  0  0  0  0
 71137  1  0  0  0  0
 71138  1  0  0  0  0
 72139  1  0  0  0  0
 74140  1  0  0  0  0
 75141  1  0  0  0  0
 78142  1  0  0  0  0
 81143  1  0  0  0  0
 86144  1  0  0  0  0
 91145  1  0  0  0  0
M  END
