144

C         -3.77940       10.04790        1.73520
C         -3.96540       10.84620        2.81830
C         -3.53510       10.54850        4.21220
O         -2.79090        9.68060        4.60610
C         -4.27800       11.50740        5.06020
C         -4.26600       11.60570        6.43860
C         -5.05190       12.58620        7.02090
F         -5.06860       12.72020        8.35120
C         -5.82970       13.43630        6.23130
F         -6.58580       14.36710        6.82000
C         -5.84070       13.33860        4.84850
C         -5.05160       12.36210        4.25760
C         -4.83970       12.01250        2.85680
C         -5.32110       12.70550        1.78070
C         -5.02670       12.41540        0.42940
N         -4.81330       12.25190       -0.68600
C         -6.15880       13.83910        1.88070
N         -6.84090       14.76040        1.89770
C         -2.93340        8.88770        1.62310
C         -3.39330        7.81820        0.83090
C         -2.64850        6.66710        0.77630
C         -2.94980        5.38350        0.08550
O         -3.89690        5.12610       -0.61850
C         -1.81160        4.49810        0.44590
C         -0.89660        5.21220        1.24640
C         -1.41420        6.55640        1.45240
C         -0.91600        7.63740        2.15630
C         -1.68230        8.78940        2.24340
C          0.24310        4.58600        1.71500
C          0.47670        3.27090        1.34960
C         -0.40430        2.57100        0.51690
C         -1.58720        3.19030        0.08980
C         -0.08970        1.22680        0.08400
C          1.13850        0.72640       -0.32930
N          2.26360        1.49360       -0.56220
C          3.53250        0.89570       -0.54410
C          3.86250       -0.03450        0.43760
C          5.06770       -0.70740        0.38730
C          5.96140       -0.45100       -0.64250
S          7.47770       -1.33610       -0.83330
C          7.07690       -2.94240       -0.08360
C          5.67140        0.54170       -1.57510
C          4.46850        1.20940       -1.52900
C          2.12810        2.84490       -0.92590
C          2.96640        3.80590       -0.36210
C          2.72590        5.14360       -0.57810
C          1.64550        5.55300       -1.35800
S          1.34020        7.28910       -1.43610
C         -0.22220        7.42390       -2.35130
C          0.87190        4.59730       -2.00240
C          1.12020        3.25660       -1.79310
C          1.05430       -0.66810       -0.57520
S          2.19500       -1.87590       -1.07180
C          0.95870       -3.11500       -0.93810
C         -0.32190       -2.57400       -0.71750
N         -1.50230       -3.23070       -0.94310
C         -1.54830       -4.30420       -1.84460
C         -2.35270       -5.41580       -1.58760
C         -2.24440       -6.54400       -2.36850
C         -1.33560       -6.59180       -3.42670
S         -1.13050       -8.13460       -4.24250
C          0.38520       -7.89880       -5.20730
C         -0.63630       -5.43660       -3.76730
C         -0.75210       -4.30520       -2.98920
C         -2.66820       -2.83320       -0.27760
C         -3.88550       -2.79660       -0.95950
C         -5.02510       -2.37800       -0.31400
C         -4.97660       -1.98110        1.02290
S         -6.49400       -1.44540        1.73750
C         -5.97660       -0.56880        3.23850
C         -3.77220       -2.04580        1.71250
C         -2.62860       -2.47230        1.06670
C         -0.22370       -1.19100       -0.43120
S         -1.36510        0.02730        0.02040
C          1.35360       -4.46760       -1.03290
C          0.67610       -5.54750       -0.42090
C          1.06260       -6.92720       -0.62240
N          0.24200       -7.75960        0.01480
S         -0.81990       -6.91390        0.86180
N         -0.35860       -5.44140        0.41590
C          2.15990       -7.30310       -1.43200
C          2.85850       -6.21770       -2.01340
N          3.93850       -6.31100       -2.78820
S          4.46020       -4.83320       -3.15640
N          3.34380       -3.99330       -2.35830
C          2.50510       -4.84010       -1.76330
C          2.54580       -8.63600       -1.69380
C          2.39450       -9.70220       -0.84240
C          2.28160       -9.59260        0.62710
O          2.29040       -8.59260        1.31310
C          2.32820      -10.98850        1.12780
C          2.24450      -11.43100        2.43140
C          2.33770      -12.79720        2.67170
Cl         2.22980      -13.41620        4.27420
C          2.52190      -13.67040        1.59890
F          2.61770      -14.98510        1.83860
C          2.61340      -13.23160        0.28640
C          2.51310      -11.86990        0.04960
C          2.54640      -11.09440       -1.18890
C          2.61490      -11.61830       -2.45640
C          2.77280      -12.99110       -2.73490
N          2.91560      -14.09410       -3.02110
C          2.50350      -10.86730       -3.64260
N          2.38580      -10.33660       -4.65510
H         -4.38620       10.24520        0.85870
H         -3.66640       10.94500        7.04430
H         -6.46190       14.01540        4.28500
H         -4.33820        7.88370        0.31210
H          0.04550        7.58810        2.64210
H         -1.29490        9.63810        2.78180
H          0.94230        5.10540        2.35170
H          1.35300        2.76460        1.72430
H         -2.29340        2.65740       -0.52990
H          3.16760       -0.23810        1.23890
H          5.29770       -1.43160        1.15170
H          7.82100       -3.64070       -0.45370
H          6.08480       -3.24750       -0.40370
H          7.13780       -2.88510        0.99970
H          6.38710        0.76040       -2.35170
H          4.22890        1.95540       -2.27130
H          3.78470        3.49390        0.26970
H          3.35190        5.89190       -0.11780
H         -1.00770        6.88220       -1.83170
H         -0.45590        8.48310       -2.36940
H         -0.09390        7.06130       -3.36610
H          0.06670        4.88120       -2.66000
H          0.50560        2.51920       -2.28750
H         -3.01720       -5.40750       -0.73720
H         -2.83260       -7.42090       -2.14540
H          1.15710       -7.47550       -4.57260
H          0.69210       -8.88930       -5.52930
H          0.18920       -7.26990       -6.07160
H          0.00260       -5.41090       -4.63520
H         -0.19600       -3.41900       -3.25840
H         -3.92360       -3.08340       -1.99960
H         -5.96660       -2.33700       -0.83880
H         -6.86350       -0.05320        3.59640
H         -5.20230        0.15230        2.99180
H         -5.63740       -1.27170        3.99350
H         -3.71550       -1.77810        2.75510
H         -1.69880       -2.54990        1.60910
H          3.05000       -8.79000       -2.64060
H          2.10580      -10.73250        3.24110
H          2.76220      -13.95780       -0.49610
