
  xtb     02112202453D
 energy: -270.892798857948 gnorm: 0.000497767782 xtb: 6.4.1 (unknown)
144159  0     0  0            999 V2000
   -8.6064   -5.6558    1.9264 C   0  0  0  0  0  0  0  0  0  0  0  0
   -9.9312   -5.6145    2.2228 C   0  0  0  0  0  0  0  0  0  0  0  0
  -10.8389   -4.4529    2.0129 C   0  0  0  0  0  0  0  0  0  0  0  0
  -10.5543   -3.3053    1.7628 O   0  0  0  0  0  0  0  0  0  0  0  0
  -12.2067   -5.0128    2.0986 C   0  0  0  0  0  0  0  0  0  0  0  0
  -13.4054   -4.3519    1.9111 C   0  0  0  0  0  0  0  0  0  0  0  0
  -14.5717   -5.0879    2.0380 C   0  0  0  0  0  0  0  0  0  0  0  0
  -15.7552   -4.4900    1.8671 F   0  0  0  0  0  0  0  0  0  0  0  0
  -14.5245   -6.4505    2.3417 C   0  0  0  0  0  0  0  0  0  0  0  0
  -15.6661   -7.1359    2.4508 F   0  0  0  0  0  0  0  0  0  0  0  0
  -13.3219   -7.1135    2.5308 C   0  0  0  0  0  0  0  0  0  0  0  0
  -12.1497   -6.3820    2.4079 C   0  0  0  0  0  0  0  0  0  0  0  0
  -10.7514   -6.7735    2.5492 C   0  0  0  0  0  0  0  0  0  0  0  0
  -10.2980   -7.9830    2.9974 C   0  0  0  0  0  0  0  0  0  0  0  0
  -11.1381   -9.0710    3.3216 C   0  0  0  0  0  0  0  0  0  0  0  0
  -11.7732   -9.9879    3.5890 N   0  0  0  0  0  0  0  0  0  0  0  0
   -8.9410   -8.2940    3.2376 C   0  0  0  0  0  0  0  0  0  0  0  0
   -7.8639   -8.6060    3.4815 N   0  0  0  0  0  0  0  0  0  0  0  0
   -7.7274   -4.5517    1.6447 C   0  0  0  0  0  0  0  0  0  0  0  0
   -6.6831   -4.7571    0.7217 C   0  0  0  0  0  0  0  0  0  0  0  0
   -5.8421   -3.7132    0.4294 C   0  0  0  0  0  0  0  0  0  0  0  0
   -4.6683   -3.6740   -0.4860 C   0  0  0  0  0  0  0  0  0  0  0  0
   -4.2447   -4.5633   -1.1859 O   0  0  0  0  0  0  0  0  0  0  0  0
   -4.1177   -2.3046   -0.3157 C   0  0  0  0  0  0  0  0  0  0  0  0
   -4.9218   -1.5841    0.5908 C   0  0  0  0  0  0  0  0  0  0  0  0
   -5.9840   -2.4581    1.0615 C   0  0  0  0  0  0  0  0  0  0  0  0
   -6.9720   -2.2688    2.0102 C   0  0  0  0  0  0  0  0  0  0  0  0
   -7.8365   -3.3144    2.2915 C   0  0  0  0  0  0  0  0  0  0  0  0
   -4.6039   -0.2771    0.9100 C   0  0  0  0  0  0  0  0  0  0  0  0
   -3.4317    0.2595    0.4054 C   0  0  0  0  0  0  0  0  0  0  0  0
   -2.5764   -0.4870   -0.4134 C   0  0  0  0  0  0  0  0  0  0  0  0
   -2.9647   -1.7659   -0.8345 C   0  0  0  0  0  0  0  0  0  0  0  0
   -1.2479   -0.0002   -0.7161 C   0  0  0  0  0  0  0  0  0  0  0  0
   -0.3636    0.5844    0.1769 C   0  0  0  0  0  0  0  0  0  0  0  0
   -0.5829    0.8254    1.5225 N   0  0  0  0  0  0  0  0  0  0  0  0
    0.1821    1.8559    2.1064 C   0  0  0  0  0  0  0  0  0  0  0  0
    1.0047    1.6080    3.2004 C   0  0  0  0  0  0  0  0  0  0  0  0
    1.9078    2.5643    3.6220 C   0  0  0  0  0  0  0  0  0  0  0  0
    1.9943    3.7827    2.9591 C   0  0  0  0  0  0  0  0  0  0  0  0
    3.2237    5.0006    3.3171 S   0  0  0  0  0  0  0  0  0  0  0  0
    4.5442    4.0333    4.1023 C   0  0  0  0  0  0  0  0  0  0  0  0
    1.0906    4.0764    1.9415 C   0  0  0  0  0  0  0  0  0  0  0  0
    0.1940    3.1210    1.5171 C   0  0  0  0  0  0  0  0  0  0  0  0
   -1.3577   -0.0394    2.3024 C   0  0  0  0  0  0  0  0  0  0  0  0
   -1.3928   -1.4076    2.0424 C   0  0  0  0  0  0  0  0  0  0  0  0
   -2.2840   -2.2306    2.6995 C   0  0  0  0  0  0  0  0  0  0  0  0
   -3.1462   -1.7002    3.6500 C   0  0  0  0  0  0  0  0  0  0  0  0
   -4.4111   -2.6255    4.4627 S   0  0  0  0  0  0  0  0  0  0  0  0
   -4.2148   -4.3095    3.8193 C   0  0  0  0  0  0  0  0  0  0  0  0
   -3.0431   -0.3512    3.9862 C   0  0  0  0  0  0  0  0  0  0  0  0
   -2.1602    0.4716    3.3229 C   0  0  0  0  0  0  0  0  0  0  0  0
    0.8755    0.8586   -0.4532 C   0  0  0  0  0  0  0  0  0  0  0  0
    2.3141    1.6359    0.0817 S   0  0  0  0  0  0  0  0  0  0  0  0
    3.0614    1.3754   -1.4812 C   0  0  0  0  0  0  0  0  0  0  0  0
    2.1884    0.7789   -2.4048 C   0  0  0  0  0  0  0  0  0  0  0  0
    2.4034    0.6288   -3.7531 N   0  0  0  0  0  0  0  0  0  0  0  0
    1.7288   -0.3999   -4.4307 C   0  0  0  0  0  0  0  0  0  0  0  0
    1.6247   -1.6654   -3.8599 C   0  0  0  0  0  0  0  0  0  0  0  0
    0.9183   -2.6674   -4.4948 C   0  0  0  0  0  0  0  0  0  0  0  0
    0.3080   -2.4188   -5.7182 C   0  0  0  0  0  0  0  0  0  0  0  0
   -0.6392   -3.6059   -6.6073 S   0  0  0  0  0  0  0  0  0  0  0  0
   -0.8667   -4.9615   -5.4216 C   0  0  0  0  0  0  0  0  0  0  0  0
    0.4455   -1.1622   -6.3102 C   0  0  0  0  0  0  0  0  0  0  0  0
    1.1454   -0.1624   -5.6756 C   0  0  0  0  0  0  0  0  0  0  0  0
    3.2768    1.4640   -4.4549 C   0  0  0  0  0  0  0  0  0  0  0  0
    3.4203    2.8063   -4.1040 C   0  0  0  0  0  0  0  0  0  0  0  0
    4.4109    3.5793   -4.6706 C   0  0  0  0  0  0  0  0  0  0  0  0
    5.2630    3.0312   -5.6252 C   0  0  0  0  0  0  0  0  0  0  0  0
    6.6417    3.8900   -6.3002 S   0  0  0  0  0  0  0  0  0  0  0  0
    7.0054    5.1409   -5.0361 C   0  0  0  0  0  0  0  0  0  0  0  0
    5.0307    1.7328   -6.0772 C   0  0  0  0  0  0  0  0  0  0  0  0
    4.0510    0.9566   -5.5000 C   0  0  0  0  0  0  0  0  0  0  0  0
    0.9519    0.4699   -1.7806 C   0  0  0  0  0  0  0  0  0  0  0  0
   -0.5309   -0.2692   -2.2950 S   0  0  0  0  0  0  0  0  0  0  0  0
    4.3988    1.8358   -1.5993 C   0  0  0  0  0  0  0  0  0  0  0  0
    5.4059    1.2667   -2.4050 C   0  0  0  0  0  0  0  0  0  0  0  0
    6.7311    1.8387   -2.4968 C   0  0  0  0  0  0  0  0  0  0  0  0
    7.5250    1.1139   -3.2799 N   0  0  0  0  0  0  0  0  0  0  0  0
    6.7128   -0.1627   -3.8220 S   0  0  0  0  0  4  0  0  0  0  0  0
    5.3025    0.1404   -3.1139 N   0  0  0  0  0  0  0  0  0  0  0  0
    7.1384    2.9893   -1.7737 C   0  0  0  0  0  0  0  0  0  0  0  0
    6.1261    3.5513   -0.9614 C   0  0  0  0  0  0  0  0  0  0  0  0
    6.2124    4.6755   -0.2460 N   0  0  0  0  0  0  0  0  0  0  0  0
    4.8199    4.9331    0.5250 S   0  0  0  0  0  0  0  0  0  0  0  0
    4.0267    3.6566   -0.0289 N   0  0  0  0  0  0  0  0  0  0  0  0
    4.8157    2.9589   -0.8480 C   0  0  0  0  0  0  0  0  0  0  0  0
    8.4465    3.4913   -1.9342 C   0  0  0  0  0  0  0  0  0  0  0  0
    9.1633    4.3569   -1.1474 C   0  0  0  0  0  0  0  0  0  0  0  0
   10.2955    5.1062   -1.7449 C   0  0  0  0  0  0  0  0  0  0  0  0
   10.7857    4.9454   -2.8409 O   0  0  0  0  0  0  0  0  0  0  0  0
   10.6495    6.1395   -0.7448 C   0  0  0  0  0  0  0  0  0  0  0  0
   11.5855    7.1514   -0.8272 C   0  0  0  0  0  0  0  0  0  0  0  0
   11.7200    8.0197    0.2463 C   0  0  0  0  0  0  0  0  0  0  0  0
   10.9184    7.8531    1.3665 C   0  0  0  0  0  0  0  0  0  0  0  0
   11.1126    9.0641    2.8192 Br  0  0  0  0  0  0  0  0  0  0  0  0
    9.9776    6.8352    1.4710 C   0  0  0  0  0  0  0  0  0  0  0  0
    9.8468    5.9722    0.3978 C   0  0  0  0  0  0  0  0  0  0  0  0
    8.9962    4.7967    0.2078 C   0  0  0  0  0  0  0  0  0  0  0  0
    8.3237    4.1416    1.2123 C   0  0  0  0  0  0  0  0  0  0  0  0
    8.0950    4.6611    2.4981 C   0  0  0  0  0  0  0  0  0  0  0  0
    7.7989    5.0348    3.5443 N   0  0  0  0  0  0  0  0  0  0  0  0
    7.7930    2.8432    1.0930 C   0  0  0  0  0  0  0  0  0  0  0  0
    7.3616    1.7785    1.0757 N   0  0  0  0  0  0  0  0  0  0  0  0
   -8.1447   -6.6323    1.8314 H   0  0  0  0  0  0  0  0  0  0  0  0
  -13.4367   -3.3002    1.6750 H   0  0  0  0  0  0  0  0  0  0  0  0
  -13.3375   -8.1668    2.7586 H   0  0  0  0  0  0  0  0  0  0  0  0
   -6.5582   -5.7137    0.2357 H   0  0  0  0  0  0  0  0  0  0  0  0
   -7.0660   -1.3312    2.5345 H   0  0  0  0  0  0  0  0  0  0  0  0
   -8.5860   -3.1836    3.0542 H   0  0  0  0  0  0  0  0  0  0  0  0
   -5.2341    0.3065    1.5627 H   0  0  0  0  0  0  0  0  0  0  0  0
   -3.1579    1.2720    0.6593 H   0  0  0  0  0  0  0  0  0  0  0  0
   -2.3361   -2.3374   -1.5011 H   0  0  0  0  0  0  0  0  0  0  0  0
    0.9638    0.6465    3.6905 H   0  0  0  0  0  0  0  0  0  0  0  0
    2.5612    2.3389    4.4493 H   0  0  0  0  0  0  0  0  0  0  0  0
    4.2765    3.7908    5.1264 H   0  0  0  0  0  0  0  0  0  0  0  0
    4.7262    3.1348    3.5195 H   0  0  0  0  0  0  0  0  0  0  0  0
    5.4295    4.6638    4.0967 H   0  0  0  0  0  0  0  0  0  0  0  0
    1.1287    5.0433    1.4653 H   0  0  0  0  0  0  0  0  0  0  0  0
   -0.4729    3.3290    0.6933 H   0  0  0  0  0  0  0  0  0  0  0  0
   -0.7294   -1.8281    1.3017 H   0  0  0  0  0  0  0  0  0  0  0  0
   -2.2998   -3.2801    2.4544 H   0  0  0  0  0  0  0  0  0  0  0  0
   -4.9921   -4.8977    4.2973 H   0  0  0  0  0  0  0  0  0  0  0  0
   -3.2388   -4.6991    4.0930 H   0  0  0  0  0  0  0  0  0  0  0  0
   -4.3587   -4.3185    2.7426 H   0  0  0  0  0  0  0  0  0  0  0  0
   -3.6854    0.0464    4.7566 H   0  0  0  0  0  0  0  0  0  0  0  0
   -2.1036    1.5217    3.5682 H   0  0  0  0  0  0  0  0  0  0  0  0
    2.1118   -1.8632   -2.9168 H   0  0  0  0  0  0  0  0  0  0  0  0
    0.8564   -3.6374   -4.0293 H   0  0  0  0  0  0  0  0  0  0  0  0
   -1.5512   -5.6549   -5.9003 H   0  0  0  0  0  0  0  0  0  0  0  0
    0.0802   -5.4572   -5.2289 H   0  0  0  0  0  0  0  0  0  0  0  0
   -1.3101   -4.5795   -4.5071 H   0  0  0  0  0  0  0  0  0  0  0  0
   -0.0194   -0.9810   -7.2667 H   0  0  0  0  0  0  0  0  0  0  0  0
    1.2329    0.8137   -6.1286 H   0  0  0  0  0  0  0  0  0  0  0  0
    2.7663    3.2409   -3.3625 H   0  0  0  0  0  0  0  0  0  0  0  0
    4.5166    4.6075   -4.3626 H   0  0  0  0  0  0  0  0  0  0  0  0
    8.0106    5.4921   -5.2484 H   0  0  0  0  0  0  0  0  0  0  0  0
    6.3045    5.9681   -5.1044 H   0  0  0  0  0  0  0  0  0  0  0  0
    6.9780    4.6807   -4.0523 H   0  0  0  0  0  0  0  0  0  0  0  0
    5.6591    1.3295   -6.8560 H   0  0  0  0  0  0  0  0  0  0  0  0
    3.9195   -0.0682   -5.8109 H   0  0  0  0  0  0  0  0  0  0  0  0
    8.9453    3.1809   -2.8478 H   0  0  0  0  0  0  0  0  0  0  0  0
   12.1970    7.2573   -1.7098 H   0  0  0  0  0  0  0  0  0  0  0  0
   12.4407    8.8223    0.2170 H   0  0  0  0  0  0  0  0  0  0  0  0
    9.3733    6.7418    2.3592 H   0  0  0  0  0  0  0  0  0  0  0  0
  1  2  2  0  0  0  0
  2  3  1  0  0  0  0
  3  4  2  0  0  0  0
  3  5  1  0  0  0  0
  5  6  2  0  0  0  0
  6  7  1  0  0  0  0
  7  8  1  0  0  0  0
  7  9  2  0  0  0  0
  9 10  1  0  0  0  0
  9 11  1  0  0  0  0
 11 12  2  0  0  0  0
 12 13  1  0  0  0  0
 13 14  2  0  0  0  0
 14 15  1  0  0  0  0
 15 16  3  0  0  0  0
 14 17  1  0  0  0  0
 17 18  3  0  0  0  0
  1 19  1  0  0  0  0
 19 20  2  0  0  0  0
 20 21  1  0  0  0  0
 21 22  1  0  0  0  0
 22 23  2  0  0  0  0
 22 24  1  0  0  0  0
 24 25  2  0  0  0  0
 25 26  1  0  0  0  0
 26 27  1  0  0  0  0
 27 28  2  0  0  0  0
 25 29  1  0  0  0  0
 29 30  2  0  0  0  0
 30 31  1  0  0  0  0
 31 32  2  0  0  0  0
 31 33  1  0  0  0  0
 33 34  2  0  0  0  0
 34 35  1  0  0  0  0
 35 36  1  0  0  0  0
 36 37  2  0  0  0  0
 37 38  1  0  0  0  0
 38 39  2  0  0  0  0
 39 40  1  0  0  0  0
 40 41  1  0  0  0  0
 39 42  1  0  0  0  0
 42 43  2  0  0  0  0
 35 44  1  0  0  0  0
 44 45  2  0  0  0  0
 45 46  1  0  0  0  0
 46 47  2  0  0  0  0
 47 48  1  0  0  0  0
 48 49  1  0  0  0  0
 47 50  1  0  0  0  0
 50 51  2  0  0  0  0
 34 52  1  0  0  0  0
 52 53  1  0  0  0  0
 53 54  1  0  0  0  0
 54 55  2  0  0  0  0
 55 56  1  0  0  0  0
 56 57  1  0  0  0  0
 57 58  2  0  0  0  0
 58 59  1  0  0  0  0
 59 60  2  0  0  0  0
 60 61  1  0  0  0  0
 61 62  1  0  0  0  0
 60 63  1  0  0  0  0
 63 64  2  0  0  0  0
 56 65  1  0  0  0  0
 65 66  2  0  0  0  0
 66 67  1  0  0  0  0
 67 68  2  0  0  0  0
 68 69  1  0  0  0  0
 69 70  1  0  0  0  0
 68 71  1  0  0  0  0
 71 72  2  0  0  0  0
 55 73  1  0  0  0  0
 73 74  1  0  0  0  0
 54 75  1  0  0  0  0
 75 76  2  0  0  0  0
 76 77  1  0  0  0  0
 77 78  1  0  0  0  0
 78 79  2  0  0  0  0
 79 80  2  0  0  0  0
 77 81  2  0  0  0  0
 81 82  1  0  0  0  0
 82 83  2  0  0  0  0
 83 84  1  0  0  0  0
 84 85  1  0  0  0  0
 85 86  2  0  0  0  0
 81 87  1  0  0  0  0
 87 88  2  0  0  0  0
 88 89  1  0  0  0  0
 89 90  2  0  0  0  0
 89 91  1  0  0  0  0
 91 92  2  0  0  0  0
 92 93  1  0  0  0  0
 93 94  2  0  0  0  0
 94 95  1  0  0  0  0
 94 96  1  0  0  0  0
 96 97  2  0  0  0  0
 97 98  1  0  0  0  0
 98 99  2  0  0  0  0
 99100  1  0  0  0  0
100101  3  0  0  0  0
 99102  1  0  0  0  0
102103  3  0  0  0  0
 13  2  1  0  0  0  0
 28 19  1  0  0  0  0
 74 33  1  0  0  0  0
 86 75  1  0  0  0  0
 98 88  1  0  0  0  0
 12  5  1  0  0  0  0
 26 21  2  0  0  0  0
 43 36  1  0  0  0  0
 51 44  1  0  0  0  0
 73 52  2  0  0  0  0
 80 76  1  0  0  0  0
 86 82  1  0  0  0  0
 97 91  1  0  0  0  0
 32 24  1  0  0  0  0
 64 57  1  0  0  0  0
 72 65  1  0  0  0  0
  1104  1  0  0  0  0
  6105  1  0  0  0  0
 11106  1  0  0  0  0
 20107  1  0  0  0  0
 27108  1  0  0  0  0
 28109  1  0  0  0  0
 29110  1  0  0  0  0
 30111  1  0  0  0  0
 32112  1  0  0  0  0
 37113  1  0  0  0  0
 38114  1  0  0  0  0
 41115  1  0  0  0  0
 41116  1  0  0  0  0
 41117  1  0  0  0  0
 42118  1  0  0  0  0
 43119  1  0  0  0  0
 45120  1  0  0  0  0
 46121  1  0  0  0  0
 49122  1  0  0  0  0
 49123  1  0  0  0  0
 49124  1  0  0  0  0
 50125  1  0  0  0  0
 51126  1  0  0  0  0
 58127  1  0  0  0  0
 59128  1  0  0  0  0
 62129  1  0  0  0  0
 62130  1  0  0  0  0
 62131  1  0  0  0  0
 63132  1  0  0  0  0
 64133  1  0  0  0  0
 66134  1  0  0  0  0
 67135  1  0  0  0  0
 70136  1  0  0  0  0
 70137  1  0  0  0  0
 70138  1  0  0  0  0
 71139  1  0  0  0  0
 72140  1  0  0  0  0
 87141  1  0  0  0  0
 92142  1  0  0  0  0
 93143  1  0  0  0  0
 96144  1  0  0  0  0
M  END
