
  xtb     02112202373D
 energy: -274.792071613775 gnorm: 0.000824062861 xtb: 6.4.1 (unknown)
152167  0     0  0            999 V2000
    0.1634    4.7636   10.9636 C   0  0  0  0  0  0  0  0  0  0  0  0
    1.2213    5.5748   11.2283 C   0  0  0  0  0  0  0  0  0  0  0  0
    2.0323    6.3016   10.2170 C   0  0  0  0  0  0  0  0  0  0  0  0
    1.9782    6.2238    9.0103 O   0  0  0  0  0  0  0  0  0  0  0  0
    2.8704    7.2433   10.9897 C   0  0  0  0  0  0  0  0  0  0  0  0
    3.7809    8.1627   10.5053 C   0  0  0  0  0  0  0  0  0  0  0  0
    4.4507    8.9506   11.4263 C   0  0  0  0  0  0  0  0  0  0  0  0
    5.3438    9.8520   11.0041 F   0  0  0  0  0  0  0  0  0  0  0  0
    4.2010    8.8141   12.7937 C   0  0  0  0  0  0  0  0  0  0  0  0
    4.8577    9.5926   13.6591 F   0  0  0  0  0  0  0  0  0  0  0  0
    3.2862    7.8931   13.2795 C   0  0  0  0  0  0  0  0  0  0  0  0
    2.6138    7.0972   12.3632 C   0  0  0  0  0  0  0  0  0  0  0  0
    1.6127    6.0513   12.5479 C   0  0  0  0  0  0  0  0  0  0  0  0
    1.1827    5.5649   13.7524 C   0  0  0  0  0  0  0  0  0  0  0  0
    0.2685    4.5025   13.9257 C   0  0  0  0  0  0  0  0  0  0  0  0
   -0.4523    3.6388   14.1542 N   0  0  0  0  0  0  0  0  0  0  0  0
    1.6169    6.0548   15.0037 C   0  0  0  0  0  0  0  0  0  0  0  0
    1.9282    6.4110   16.0489 N   0  0  0  0  0  0  0  0  0  0  0  0
   -0.2072    4.1711    9.7054 C   0  0  0  0  0  0  0  0  0  0  0  0
    0.7452    3.7221    8.7732 C   0  0  0  0  0  0  0  0  0  0  0  0
    0.3022    3.1239    7.6193 C   0  0  0  0  0  0  0  0  0  0  0  0
    1.0927    2.5681    6.4847 C   0  0  0  0  0  0  0  0  0  0  0  0
    2.2943    2.5128    6.3762 O   0  0  0  0  0  0  0  0  0  0  0  0
    0.0666    2.1255    5.5025 C   0  0  0  0  0  0  0  0  0  0  0  0
   -1.2177    2.3687    6.0297 C   0  0  0  0  0  0  0  0  0  0  0  0
   -1.0728    2.9779    7.3412 C   0  0  0  0  0  0  0  0  0  0  0  0
   -2.0139    3.4041    8.2615 C   0  0  0  0  0  0  0  0  0  0  0  0
   -1.5707    3.9722    9.4423 C   0  0  0  0  0  0  0  0  0  0  0  0
   -2.3406    2.0641    5.2845 C   0  0  0  0  0  0  0  0  0  0  0  0
   -2.1694    1.6018    3.9903 C   0  0  0  0  0  0  0  0  0  0  0  0
   -0.8983    1.4222    3.4370 C   0  0  0  0  0  0  0  0  0  0  0  0
    0.2379    1.6346    4.2296 C   0  0  0  0  0  0  0  0  0  0  0  0
   -0.7687    1.1026    2.0280 C   0  0  0  0  0  0  0  0  0  0  0  0
   -1.4292    1.7240    0.9822 C   0  0  0  0  0  0  0  0  0  0  0  0
   -2.2465    2.8370    1.1123 N   0  0  0  0  0  0  0  0  0  0  0  0
   -1.9531    3.7796    2.1119 C   0  0  0  0  0  0  0  0  0  0  0  0
   -2.9631    4.3164    2.9100 C   0  0  0  0  0  0  0  0  0  0  0  0
   -2.6422    5.0985    3.9973 C   0  0  0  0  0  0  0  0  0  0  0  0
   -1.3111    5.3637    4.3140 C   0  0  0  0  0  0  0  0  0  0  0  0
   -1.0036    6.2241    5.8234 S   0  0  0  0  0  0  0  0  0  0  0  0
    0.8022    6.2183    5.9684 C   0  0  0  0  0  0  0  0  0  0  0  0
   -0.3105    4.9185    3.4595 C   0  0  0  0  0  0  0  0  0  0  0  0
   -0.6328    4.1371    2.3693 C   0  0  0  0  0  0  0  0  0  0  0  0
   -3.3448    3.0058    0.2659 C   0  0  0  0  0  0  0  0  0  0  0  0
   -3.7377    4.2850   -0.1328 C   0  0  0  0  0  0  0  0  0  0  0  0
   -4.8087    4.4481   -0.9801 C   0  0  0  0  0  0  0  0  0  0  0  0
   -5.5111    3.3423   -1.4586 C   0  0  0  0  0  0  0  0  0  0  0  0
   -6.8576    3.6812   -2.5488 S   0  0  0  0  0  0  0  0  0  0  0  0
   -7.4035    2.0378   -3.0936 C   0  0  0  0  0  0  0  0  0  0  0  0
   -5.1324    2.0698   -1.0562 C   0  0  0  0  0  0  0  0  0  0  0  0
   -4.0626    1.9061   -0.1973 C   0  0  0  0  0  0  0  0  0  0  0  0
   -1.0659    1.1415   -0.2594 C   0  0  0  0  0  0  0  0  0  0  0  0
   -1.4912    1.4511   -1.9050 S   0  0  0  0  0  0  0  0  0  0  0  0
   -0.4210    0.1680   -2.4435 C   0  0  0  0  0  0  0  0  0  0  0  0
    0.2785   -0.4184   -1.4010 C   0  0  0  0  0  0  0  0  0  0  0  0
    1.2949   -1.3511   -1.5264 N   0  0  0  0  0  0  0  0  0  0  0  0
    1.4679   -2.3104   -0.5182 C   0  0  0  0  0  0  0  0  0  0  0  0
    0.3669   -2.8871    0.1081 C   0  0  0  0  0  0  0  0  0  0  0  0
    0.5336   -3.8112    1.1218 C   0  0  0  0  0  0  0  0  0  0  0  0
    1.8102   -4.1817    1.5194 C   0  0  0  0  0  0  0  0  0  0  0  0
    2.1539   -5.3466    2.7989 S   0  0  0  0  0  0  0  0  0  0  0  0
    0.5196   -5.7391    3.4847 C   0  0  0  0  0  0  0  0  0  0  0  0
    2.9160   -3.6210    0.8800 C   0  0  0  0  0  0  0  0  0  0  0  0
    2.7498   -2.6953   -0.1235 C   0  0  0  0  0  0  0  0  0  0  0  0
    2.1301   -1.3578   -2.6536 C   0  0  0  0  0  0  0  0  0  0  0  0
    2.5277   -2.5617   -3.2293 C   0  0  0  0  0  0  0  0  0  0  0  0
    3.2413   -2.5789   -4.4118 C   0  0  0  0  0  0  0  0  0  0  0  0
    3.5635   -1.3872   -5.0457 C   0  0  0  0  0  0  0  0  0  0  0  0
    4.3474   -1.2771   -6.6240 S   0  0  0  0  0  0  0  0  0  0  0  0
    4.7224   -2.9984   -7.0549 C   0  0  0  0  0  0  0  0  0  0  0  0
    3.2356   -0.1785   -4.4328 C   0  0  0  0  0  0  0  0  0  0  0  0
    2.5397   -0.1618   -3.2466 C   0  0  0  0  0  0  0  0  0  0  0  0
   -0.1218    0.1340   -0.1551 C   0  0  0  0  0  0  0  0  0  0  0  0
    0.3603   -0.1225    1.4862 S   0  0  0  0  0  0  0  0  0  0  0  0
   -0.2717   -0.1103   -3.8555 C   0  0  0  0  0  0  0  0  0  0  0  0
   -0.1056   -1.4357   -4.2934 C   0  0  0  0  0  0  0  0  0  0  0  0
    0.2618   -1.6532   -5.5979 C   0  0  0  0  0  0  0  0  0  0  0  0
    0.6245   -2.9312   -6.2638 C   0  0  0  0  0  0  0  0  0  0  0  0
    0.6175   -4.0427   -5.7914 O   0  0  0  0  0  0  0  0  0  0  0  0
    1.0584   -2.5230   -7.6276 C   0  0  0  0  0  0  0  0  0  0  0  0
    0.9600   -1.1210   -7.7477 C   0  0  0  0  0  0  0  0  0  0  0  0
    0.4433   -0.5848   -6.4993 C   0  0  0  0  0  0  0  0  0  0  0  0
    0.1608    0.7084   -6.1010 C   0  0  0  0  0  0  0  0  0  0  0  0
   -0.1986    0.9320   -4.7810 C   0  0  0  0  0  0  0  0  0  0  0  0
    1.4008   -0.4945   -8.9004 C   0  0  0  0  0  0  0  0  0  0  0  0
    1.9364   -1.2726   -9.9109 C   0  0  0  0  0  0  0  0  0  0  0  0
    1.9919   -2.6712   -9.8219 C   0  0  0  0  0  0  0  0  0  0  0  0
    1.5473   -3.3024   -8.6468 C   0  0  0  0  0  0  0  0  0  0  0  0
    2.5871   -3.4058  -10.9066 C   0  0  0  0  0  0  0  0  0  0  0  0
    2.2604   -4.6481  -11.3475 C   0  0  0  0  0  0  0  0  0  0  0  0
    0.9899   -5.3675  -11.0545 C   0  0  0  0  0  0  0  0  0  0  0  0
    0.1317   -5.0855  -10.2521 O   0  0  0  0  0  0  0  0  0  0  0  0
    0.9408   -6.4752  -12.0366 C   0  0  0  0  0  0  0  0  0  0  0  0
   -0.0630   -7.4051  -12.2145 C   0  0  0  0  0  0  0  0  0  0  0  0
    0.1159   -8.3516  -13.2142 C   0  0  0  0  0  0  0  0  0  0  0  0
   -1.2275   -9.6620  -13.5044 Br  0  0  0  0  0  0  0  0  0  0  0  0
    1.2547   -8.3636  -14.0108 C   0  0  0  0  0  0  0  0  0  0  0  0
    2.2576   -7.4255  -13.8246 C   0  0  0  0  0  0  0  0  0  0  0  0
    2.1035   -6.4719  -12.8270 C   0  0  0  0  0  0  0  0  0  0  0  0
    2.9675   -5.3848  -12.3851 C   0  0  0  0  0  0  0  0  0  0  0  0
    4.2527   -5.1598  -12.7979 C   0  0  0  0  0  0  0  0  0  0  0  0
    4.9049   -5.9127  -13.7977 C   0  0  0  0  0  0  0  0  0  0  0  0
    5.4767   -6.4836  -14.6124 N   0  0  0  0  0  0  0  0  0  0  0  0
    5.1096   -4.1818  -12.2476 C   0  0  0  0  0  0  0  0  0  0  0  0
    5.8678   -3.4331  -11.8198 N   0  0  0  0  0  0  0  0  0  0  0  0
   -0.5144    4.5421   11.7797 H   0  0  0  0  0  0  0  0  0  0  0  0
    3.9693    8.2646    9.4484 H   0  0  0  0  0  0  0  0  0  0  0  0
    3.1266    7.8304   14.3434 H   0  0  0  0  0  0  0  0  0  0  0  0
    1.8016    3.8108    8.9675 H   0  0  0  0  0  0  0  0  0  0  0  0
   -3.0699    3.2935    8.0700 H   0  0  0  0  0  0  0  0  0  0  0  0
   -2.2925    4.3039   10.1748 H   0  0  0  0  0  0  0  0  0  0  0  0
   -3.3322    2.2104    5.6837 H   0  0  0  0  0  0  0  0  0  0  0  0
   -3.0362    1.3833    3.3844 H   0  0  0  0  0  0  0  0  0  0  0  0
    1.2265    1.4690    3.8277 H   0  0  0  0  0  0  0  0  0  0  0  0
   -3.9956    4.0877    2.6918 H   0  0  0  0  0  0  0  0  0  0  0  0
   -3.4188    5.4869    4.6378 H   0  0  0  0  0  0  0  0  0  0  0  0
    1.2355    6.8918    5.2344 H   0  0  0  0  0  0  0  0  0  0  0  0
    1.1804    5.2077    5.8496 H   0  0  0  0  0  0  0  0  0  0  0  0
    1.0241    6.5650    6.9727 H   0  0  0  0  0  0  0  0  0  0  0  0
    0.7241    5.1613    3.6378 H   0  0  0  0  0  0  0  0  0  0  0  0
    0.1533    3.7740    1.7238 H   0  0  0  0  0  0  0  0  0  0  0  0
   -3.1896    5.1446    0.2220 H   0  0  0  0  0  0  0  0  0  0  0  0
   -5.1103    5.4357   -1.2933 H   0  0  0  0  0  0  0  0  0  0  0  0
   -7.8136    1.4818   -2.2554 H   0  0  0  0  0  0  0  0  0  0  0  0
   -6.5746    1.5081   -3.5539 H   0  0  0  0  0  0  0  0  0  0  0  0
   -8.1810    2.2181   -3.8294 H   0  0  0  0  0  0  0  0  0  0  0  0
   -5.6640    1.1953   -1.3947 H   0  0  0  0  0  0  0  0  0  0  0  0
   -3.7871    0.9120    0.1234 H   0  0  0  0  0  0  0  0  0  0  0  0
   -0.6309   -2.6152   -0.2048 H   0  0  0  0  0  0  0  0  0  0  0  0
   -0.3418   -4.2374    1.5844 H   0  0  0  0  0  0  0  0  0  0  0  0
   -0.0880   -6.2444    2.7394 H   0  0  0  0  0  0  0  0  0  0  0  0
    0.0404   -4.8312    3.8391 H   0  0  0  0  0  0  0  0  0  0  0  0
    0.7069   -6.4075    4.3193 H   0  0  0  0  0  0  0  0  0  0  0  0
    3.9060   -3.9156    1.1921 H   0  0  0  0  0  0  0  0  0  0  0  0
    3.6094   -2.2553   -0.6063 H   0  0  0  0  0  0  0  0  0  0  0  0
    2.2460   -3.4960   -2.7677 H   0  0  0  0  0  0  0  0  0  0  0  0
    3.5081   -3.5312   -4.8394 H   0  0  0  0  0  0  0  0  0  0  0  0
    5.2032   -2.9578   -8.0278 H   0  0  0  0  0  0  0  0  0  0  0  0
    3.8033   -3.5732   -7.1205 H   0  0  0  0  0  0  0  0  0  0  0  0
    5.4038   -3.4209   -6.3223 H   0  0  0  0  0  0  0  0  0  0  0  0
    3.5285    0.7455   -4.9069 H   0  0  0  0  0  0  0  0  0  0  0  0
    2.2885    0.7801   -2.7827 H   0  0  0  0  0  0  0  0  0  0  0  0
   -0.2504   -2.2649   -3.6186 H   0  0  0  0  0  0  0  0  0  0  0  0
    0.2526    1.5365   -6.7868 H   0  0  0  0  0  0  0  0  0  0  0  0
   -0.3775    1.9413   -4.4389 H   0  0  0  0  0  0  0  0  0  0  0  0
    1.3552    0.5786   -9.0027 H   0  0  0  0  0  0  0  0  0  0  0  0
    2.3064   -0.7963  -10.8075 H   0  0  0  0  0  0  0  0  0  0  0  0
    1.6276   -4.3704   -8.5233 H   0  0  0  0  0  0  0  0  0  0  0  0
    3.3665   -2.8718  -11.4387 H   0  0  0  0  0  0  0  0  0  0  0  0
   -0.9456   -7.3893  -11.5940 H   0  0  0  0  0  0  0  0  0  0  0  0
    1.3568   -9.1116  -14.7820 H   0  0  0  0  0  0  0  0  0  0  0  0
    3.1302   -7.4477  -14.4566 H   0  0  0  0  0  0  0  0  0  0  0  0
  1  2  2  0  0  0  0
  2  3  1  0  0  0  0
  3  4  2  0  0  0  0
  3  5  1  0  0  0  0
  5  6  2  0  0  0  0
  6  7  1  0  0  0  0
  7  8  1  0  0  0  0
  7  9  2  0  0  0  0
  9 10  1  0  0  0  0
  9 11  1  0  0  0  0
 11 12  2  0  0  0  0
 12 13  1  0  0  0  0
 13 14  2  0  0  0  0
 14 15  1  0  0  0  0
 15 16  3  0  0  0  0
 14 17  1  0  0  0  0
 17 18  3  0  0  0  0
  1 19  1  0  0  0  0
 19 20  2  0  0  0  0
 20 21  1  0  0  0  0
 21 22  1  0  0  0  0
 22 23  2  0  0  0  0
 22 24  1  0  0  0  0
 24 25  2  0  0  0  0
 25 26  1  0  0  0  0
 26 27  1  0  0  0  0
 27 28  2  0  0  0  0
 25 29  1  0  0  0  0
 29 30  2  0  0  0  0
 30 31  1  0  0  0  0
 31 32  2  0  0  0  0
 31 33  1  0  0  0  0
 33 34  2  0  0  0  0
 34 35  1  0  0  0  0
 35 36  1  0  0  0  0
 36 37  2  0  0  0  0
 37 38  1  0  0  0  0
 38 39  2  0  0  0  0
 39 40  1  0  0  0  0
 40 41  1  0  0  0  0
 39 42  1  0  0  0  0
 42 43  2  0  0  0  0
 35 44  1  0  0  0  0
 44 45  2  0  0  0  0
 45 46  1  0  0  0  0
 46 47  2  0  0  0  0
 47 48  1  0  0  0  0
 48 49  1  0  0  0  0
 47 50  1  0  0  0  0
 50 51  2  0  0  0  0
 34 52  1  0  0  0  0
 52 53  1  0  0  0  0
 53 54  1  0  0  0  0
 54 55  2  0  0  0  0
 55 56  1  0  0  0  0
 56 57  1  0  0  0  0
 57 58  2  0  0  0  0
 58 59  1  0  0  0  0
 59 60  2  0  0  0  0
 60 61  1  0  0  0  0
 61 62  1  0  0  0  0
 60 63  1  0  0  0  0
 63 64  2  0  0  0  0
 56 65  1  0  0  0  0
 65 66  2  0  0  0  0
 66 67  1  0  0  0  0
 67 68  2  0  0  0  0
 68 69  1  0  0  0  0
 69 70  1  0  0  0  0
 68 71  1  0  0  0  0
 71 72  2  0  0  0  0
 55 73  1  0  0  0  0
 73 74  1  0  0  0  0
 54 75  1  0  0  0  0
 75 76  2  0  0  0  0
 76 77  1  0  0  0  0
 77 78  1  0  0  0  0
 78 79  2  0  0  0  0
 78 80  1  0  0  0  0
 80 81  2  0  0  0  0
 81 82  1  0  0  0  0
 82 83  1  0  0  0  0
 83 84  2  0  0  0  0
 81 85  1  0  0  0  0
 85 86  2  0  0  0  0
 86 87  1  0  0  0  0
 87 88  2  0  0  0  0
 87 89  1  0  0  0  0
 89 90  2  0  0  0  0
 90 91  1  0  0  0  0
 91 92  2  0  0  0  0
 91 93  1  0  0  0  0
 93 94  2  0  0  0  0
 94 95  1  0  0  0  0
 95 96  1  0  0  0  0
 95 97  2  0  0  0  0
 97 98  1  0  0  0  0
 98 99  2  0  0  0  0
 99100  1  0  0  0  0
100101  2  0  0  0  0
101102  1  0  0  0  0
102103  3  0  0  0  0
101104  1  0  0  0  0
104105  3  0  0  0  0
 13  2  1  0  0  0  0
 28 19  1  0  0  0  0
 74 33  1  0  0  0  0
 84 75  1  0  0  0  0
100 90  1  0  0  0  0
 12  5  1  0  0  0  0
 26 21  2  0  0  0  0
 43 36  1  0  0  0  0
 51 44  1  0  0  0  0
 73 52  2  0  0  0  0
 82 77  2  0  0  0  0
 99 93  1  0  0  0  0
 32 24  1  0  0  0  0
 64 57  1  0  0  0  0
 72 65  1  0  0  0  0
 88 80  1  0  0  0  0
  1106  1  0  0  0  0
  6107  1  0  0  0  0
 11108  1  0  0  0  0
 20109  1  0  0  0  0
 27110  1  0  0  0  0
 28111  1  0  0  0  0
 29112  1  0  0  0  0
 30113  1  0  0  0  0
 32114  1  0  0  0  0
 37115  1  0  0  0  0
 38116  1  0  0  0  0
 41117  1  0  0  0  0
 41118  1  0  0  0  0
 41119  1  0  0  0  0
 42120  1  0  0  0  0
 43121  1  0  0  0  0
 45122  1  0  0  0  0
 46123  1  0  0  0  0
 49124  1  0  0  0  0
 49125  1  0  0  0  0
 49126  1  0  0  0  0
 50127  1  0  0  0  0
 51128  1  0  0  0  0
 58129  1  0  0  0  0
 59130  1  0  0  0  0
 62131  1  0  0  0  0
 62132  1  0  0  0  0
 62133  1  0  0  0  0
 63134  1  0  0  0  0
 64135  1  0  0  0  0
 66136  1  0  0  0  0
 67137  1  0  0  0  0
 70138  1  0  0  0  0
 70139  1  0  0  0  0
 70140  1  0  0  0  0
 71141  1  0  0  0  0
 72142  1  0  0  0  0
 76143  1  0  0  0  0
 83144  1  0  0  0  0
 84145  1  0  0  0  0
 85146  1  0  0  0  0
 86147  1  0  0  0  0
 88148  1  0  0  0  0
 89149  1  0  0  0  0
 94150  1  0  0  0  0
 97151  1  0  0  0  0
 98152  1  0  0  0  0
M  END
