152

C         -0.18450       -1.34890       11.71160
C         -0.84620       -0.41120       12.43940
C         -0.88140        1.04990       12.15590
O         -0.41280        1.64480       11.21450
C         -1.52700        1.66050       13.34010
C         -1.78210        2.99860       13.57010
C         -2.39680        3.33990       14.76330
F         -2.66800        4.62240       15.02820
C         -2.73550        2.35660       15.69530
F         -3.32230        2.71570       16.84170
C         -2.47670        1.01440       15.46560
C         -1.86520        0.66400       14.27020
C         -1.47130       -0.63620       13.73500
C         -1.71730       -1.84600       14.32530
C         -2.35090       -2.00140       15.57800
N         -2.85060       -2.19330       16.59270
C         -1.39400       -3.10720       13.77830
N         -1.17680       -4.17070       13.40420
C          0.33330       -1.23870       10.37460
C         -0.29400       -0.46330        9.38310
C          0.21660       -0.48670        8.10980
C         -0.30080        0.18050        6.88430
O         -1.23900        0.93230        6.78580
C          0.58640       -0.31600        5.79880
C          1.58260       -1.14920        6.34650
C          1.35170       -1.25600        7.77790
C          1.97920       -2.01390        8.75230
C          1.45110       -2.01380       10.03090
C          2.52000       -1.73770        5.51710
C          2.38580       -1.58000        4.14610
C          1.33550       -0.84530        3.59400
C          0.46770       -0.13690        4.44410
C          1.06860       -0.88210        2.17360
C         -0.17230       -0.99210        1.56590
N         -1.39530       -1.12750        2.20170
C         -2.53090       -0.58330        1.57820
C         -2.45940        0.65320        0.94200
C         -3.54690        1.15920        0.25690
C         -4.73160        0.43750        0.20740
S         -6.16800        0.96760       -0.66770
C         -5.54620        2.27750       -1.76140
C         -4.82270       -0.77610        0.88870
C         -3.73660       -1.28430        1.56380
C         -1.51600       -1.77260        3.43910
C         -0.72760       -2.87690        3.75430
C         -0.75250       -3.42490        5.02140
C         -1.58620       -2.88940        5.99400
S         -1.64080       -3.43810        7.67170
C         -0.29430       -4.65050        7.77940
C         -2.44220       -1.84260        5.65710
C         -2.40770       -1.28840        4.39850
C         -0.03550       -1.00460        0.15220
S         -1.15920       -1.03810       -1.15960
C          0.15510       -0.96010       -2.31400
C          1.39650       -0.87970       -1.70860
N          2.59100       -0.64560       -2.37840
C          3.76200       -1.27810       -1.95890
C          3.71430       -2.54160       -1.37490
C          4.86880       -3.16780       -0.94570
C          6.09770       -2.54490       -1.10680
S          7.64230       -3.24360       -0.61230
C          7.19460       -4.86950        0.06030
C          6.15130       -1.28300       -1.69800
C          5.00120       -0.65360       -2.11420
C          2.57320        0.21790       -3.48500
C          3.26350       -0.08940       -4.65730
C          3.08050        0.67660       -5.78760
C          2.20720        1.76250       -5.77740
S          1.90760        2.56830       -7.31870
C          0.61720        3.77800       -6.92790
C          1.60090        2.13170       -4.58360
C          1.78800        1.36710       -3.45130
C          1.27230       -0.93130       -0.29590
S          2.39250       -0.88140        1.01860
C         -0.14520       -0.82990       -3.72670
C         -1.14310        0.06650       -4.13400
C         -1.28380        0.33020       -5.47460
C         -2.15980        1.32620       -6.14530
O         -2.98140        2.05000       -5.63360
C         -1.77350        1.24680       -7.58120
C         -0.78660        0.25100       -7.74230
C         -0.47890       -0.31180       -6.43710
C          0.43680       -1.26870       -6.04330
C          0.60060       -1.51450       -4.68880
C         -0.27990       -0.02200       -9.00010
C         -0.75630        0.70630      -10.07630
C         -1.69430        1.73610       -9.91810
C         -2.22260        1.99510       -8.64140
C         -2.13560        2.45080      -11.08870
C         -2.47210        3.76370      -11.17620
C         -2.13970        4.80910      -10.17180
O         -1.61270        4.67150       -9.09080
C         -2.48940        6.09440      -10.81240
C         -2.35150        7.36570      -10.29120
C         -2.74350        8.44490      -11.07300
Cl        -2.60650       10.05390      -10.48490
C         -3.25460        8.21120      -12.35370
F         -3.62440        9.25480      -13.10290
C         -3.39300        6.93880      -12.88390
C         -3.00500        5.86230      -12.09910
C         -3.02570        4.42640      -12.35030
C         -3.53950        3.81980      -13.46400
C         -3.62000        2.42540      -13.67220
N         -3.73620        1.30900      -13.91260
C         -4.08270        4.51900      -14.56430
N         -4.53020        5.02930      -15.48920
H         -0.00030       -2.30750       12.18220
H         -1.51680        3.75330       12.84690
H         -2.75380        0.29550       16.21890
H         -1.18720        0.09990        9.59390
H          2.84810       -2.61210        8.52070
H          1.91730       -2.61850       10.79600
H          3.32000       -2.34230        5.91760
H          3.07740       -2.07540        3.47950
H         -0.28710        0.52100        4.04370
H         -1.54170        1.22230        0.98150
H         -3.45800        2.11690       -0.22990
H         -5.27980        3.15840       -1.18450
H         -6.36840        2.51450       -2.42940
H         -4.70220        1.90780       -2.33600
H         -5.75270       -1.32250        0.86220
H         -3.80590       -2.23510        2.07050
H         -0.07160       -3.29750        3.00660
H         -0.11450       -4.26680        5.23580
H         -0.52740       -5.52400        7.17750
H          0.63870       -4.19000        7.46860
H         -0.23940       -4.93010        8.82680
H         -3.11050       -1.44690        6.40560
H         -3.04710       -0.45160        4.16300
H          2.76520       -3.04550       -1.26370
H          4.79170       -4.14510       -0.49730
H          6.71710       -5.47130       -0.70750
H          6.55180       -4.75010        0.92750
H          8.13200       -5.32930        0.35760
H          7.10950       -0.80130       -1.81760
H          5.05080        0.32860       -2.55900
H          3.91430       -0.95060       -4.68580
H          3.58660        0.42190       -6.70590
H          0.27120        4.17160       -7.87820
H          1.03040        4.57840       -6.32070
H         -0.21100        3.28750       -6.42580
H          0.97190        3.00460       -4.52360
H          1.29470        1.64790       -2.53240
H         -1.74860        0.57980       -3.40180
H          1.03770       -1.79640       -6.76740
H          1.32730       -2.24390       -4.36370
H          0.46830       -0.78560       -9.14470
H         -0.37270        0.50310      -11.06570
H         -2.98690        2.74100       -8.49480
H         -2.17050        1.85690      -11.99440
H         -1.95280        7.51210       -9.30000
H         -3.79020        6.82990      -13.87980
