
  xtb     02102218183D
 energy: -246.281316804185 gnorm: 0.000443584771 xtb: 6.4.1 (unknown)
132144  0     0  0            999 V2000
   -5.9077   -8.0911   -3.5153 C   0  0  0  0  0  0  0  0  0  0  0  0
   -5.5787   -8.0639   -4.8478 C   0  0  0  0  0  0  0  0  0  0  0  0
   -4.6574   -7.1121   -5.4748 C   0  0  0  0  0  0  0  0  0  0  0  0
   -4.0357   -6.2133   -4.9387 O   0  0  0  0  0  0  0  0  0  0  0  0
   -4.6339   -7.4529   -6.9111 C   0  0  0  0  0  0  0  0  0  0  0  0
   -3.9202   -6.8449   -7.9247 C   0  0  0  0  0  0  0  0  0  0  0  0
   -4.0711   -7.3484   -9.2067 C   0  0  0  0  0  0  0  0  0  0  0  0
   -3.4025   -6.7898  -10.2217 F   0  0  0  0  0  0  0  0  0  0  0  0
   -4.9162   -8.4320   -9.4493 C   0  0  0  0  0  0  0  0  0  0  0  0
   -5.0445   -8.8963  -10.6964 F   0  0  0  0  0  0  0  0  0  0  0  0
   -5.6311   -9.0432   -8.4294 C   0  0  0  0  0  0  0  0  0  0  0  0
   -5.4868   -8.5453   -7.1439 C   0  0  0  0  0  0  0  0  0  0  0  0
   -6.0895   -8.9537   -5.8734 C   0  0  0  0  0  0  0  0  0  0  0  0
   -6.9698   -9.9915   -5.7178 C   0  0  0  0  0  0  0  0  0  0  0  0
   -7.4205  -10.8121   -6.7748 C   0  0  0  0  0  0  0  0  0  0  0  0
   -7.8269  -11.5139   -7.5865 N   0  0  0  0  0  0  0  0  0  0  0  0
   -7.5575  -10.4008   -4.5015 C   0  0  0  0  0  0  0  0  0  0  0  0
   -8.0785  -10.7994   -3.5590 N   0  0  0  0  0  0  0  0  0  0  0  0
   -5.4753   -7.2749   -2.4607 C   0  0  0  0  0  0  0  0  0  0  0  0
   -5.9416   -7.4419   -1.1551 C   0  0  0  0  0  0  0  0  0  0  0  0
   -5.3984   -6.5322   -0.2712 C   0  0  0  0  0  0  0  0  0  0  0  0
   -5.7089   -6.5060    1.0313 F   0  0  0  0  0  0  0  0  0  0  0  0
   -4.4965   -5.6398   -0.8457 C   0  0  0  0  0  0  0  0  0  0  0  0
   -4.3351   -5.9511   -2.5416 S   0  0  0  0  0  0  0  0  0  0  0  0
   -3.7805   -4.5905   -0.2144 C   0  0  0  0  0  0  0  0  0  0  0  0
   -2.8739   -3.7576   -0.8175 C   0  0  0  0  0  0  0  0  0  0  0  0
   -2.3309   -2.7893    0.0539 C   0  0  0  0  0  0  0  0  0  0  0  0
   -1.3770   -1.7965   -0.2430 C   0  0  0  0  0  0  0  0  0  0  0  0
   -0.7239   -1.7333   -1.5540 C   0  0  0  0  0  0  0  0  0  0  0  0
   -0.6239   -0.5373   -2.2585 C   0  0  0  0  0  0  0  0  0  0  0  0
    0.0069   -0.4791   -3.4863 C   0  0  0  0  0  0  0  0  0  0  0  0
    0.5664   -1.6176   -4.0554 C   0  0  0  0  0  0  0  0  0  0  0  0
    1.4225   -1.6927   -5.5901 S   0  0  0  0  0  0  0  0  0  0  0  0
    1.1338   -0.0605   -6.3554 C   0  0  0  0  0  0  0  0  0  0  0  0
   -0.2817    0.0891   -6.8803 C   0  0  0  0  0  0  0  0  0  0  0  0
    0.4667   -2.8096   -3.3323 C   0  0  0  0  0  0  0  0  0  0  0  0
    1.0130   -3.9301   -3.8436 F   0  0  0  0  0  0  0  0  0  0  0  0
   -0.1630   -2.8826   -2.1119 C   0  0  0  0  0  0  0  0  0  0  0  0
   -1.0767   -0.9066    0.7757 C   0  0  0  0  0  0  0  0  0  0  0  0
   -1.6328   -0.9971    2.0767 C   0  0  0  0  0  0  0  0  0  0  0  0
   -2.5366   -2.0260    2.3902 C   0  0  0  0  0  0  0  0  0  0  0  0
   -3.0627   -2.1970    3.7500 C   0  0  0  0  0  0  0  0  0  0  0  0
   -4.4285   -2.3343    3.9910 C   0  0  0  0  0  0  0  0  0  0  0  0
   -4.9003   -2.4960    5.2753 C   0  0  0  0  0  0  0  0  0  0  0  0
   -4.0369   -2.5474    6.3696 C   0  0  0  0  0  0  0  0  0  0  0  0
   -4.7741   -2.8140    7.9525 S   0  0  0  0  0  0  0  0  0  0  0  0
   -3.7370   -1.8604    9.1223 C   0  0  0  0  0  0  0  0  0  0  0  0
   -3.6701   -0.3910    8.7582 C   0  0  0  0  0  0  0  0  0  0  0  0
   -2.6736   -2.4418    6.1089 C   0  0  0  0  0  0  0  0  0  0  0  0
   -2.1886   -2.2512    4.8311 C   0  0  0  0  0  0  0  0  0  0  0  0
   -1.7630   -2.5267    7.1052 F   0  0  0  0  0  0  0  0  0  0  0  0
   -2.8858   -2.8830    1.3578 C   0  0  0  0  0  0  0  0  0  0  0  0
   -4.0077   -4.2096    1.4820 S   0  0  0  0  0  0  0  0  0  0  0  0
   -1.1814    0.0518    2.9178 C   0  0  0  0  0  0  0  0  0  0  0  0
   -0.2942    0.8979    2.3233 C   0  0  0  0  0  0  0  0  0  0  0  0
    0.0397    0.4257    0.6668 S   0  0  0  0  0  0  0  0  0  0  0  0
    0.3253    2.0880    2.8630 C   0  0  0  0  0  0  0  0  0  0  0  0
    1.4258    2.6554    2.2071 C   0  0  0  0  0  0  0  0  0  0  0  0
    1.9817    3.8162    2.6873 C   0  0  0  0  0  0  0  0  0  0  0  0
    3.1447    4.6132    2.1443 C   0  0  0  0  0  0  0  0  0  0  0  0
    2.7985    5.3150    0.8085 C   0  0  0  0  0  0  0  0  0  0  0  0
    2.4007    4.4023   -0.3433 C   0  0  0  0  0  0  0  0  0  0  0  0
    4.4199    3.7649    2.0258 C   0  0  0  0  0  0  0  0  0  0  0  0
    4.8478    3.1703    3.3628 C   0  0  0  0  0  0  0  0  0  0  0  0
    3.2728    5.7003    3.1884 C   0  0  0  0  0  0  0  0  0  0  0  0
    2.2661    5.5799    4.1635 C   0  0  0  0  0  0  0  0  0  0  0  0
    1.4742    4.4100    3.8571 C   0  0  0  0  0  0  0  0  0  0  0  0
    0.3931    3.8484    4.5219 C   0  0  0  0  0  0  0  0  0  0  0  0
   -0.1793    2.6989    4.0173 C   0  0  0  0  0  0  0  0  0  0  0  0
    2.1784    6.4953    5.2035 C   0  0  0  0  0  0  0  0  0  0  0  0
    3.0793    7.5383    5.2486 C   0  0  0  0  0  0  0  0  0  0  0  0
    4.0511    7.7026    4.2514 C   0  0  0  0  0  0  0  0  0  0  0  0
    4.1578    6.7462    3.2278 C   0  0  0  0  0  0  0  0  0  0  0  0
    4.9313    8.8369    4.3095 C   0  0  0  0  0  0  0  0  0  0  0  0
    5.5423    9.4843    3.2861 C   0  0  0  0  0  0  0  0  0  0  0  0
    6.6981   10.3795    3.5645 C   0  0  0  0  0  0  0  0  0  0  0  0
    7.0481   10.8051    4.6386 O   0  0  0  0  0  0  0  0  0  0  0  0
    7.3517   10.5818    2.2507 C   0  0  0  0  0  0  0  0  0  0  0  0
    8.5350   11.2368    1.9698 C   0  0  0  0  0  0  0  0  0  0  0  0
    8.9562   11.2682    0.6504 C   0  0  0  0  0  0  0  0  0  0  0  0
   10.0970   11.8898    0.3333 F   0  0  0  0  0  0  0  0  0  0  0  0
    8.2041   10.6545   -0.3533 C   0  0  0  0  0  0  0  0  0  0  0  0
    8.6432   10.6890   -1.6154 F   0  0  0  0  0  0  0  0  0  0  0  0
    7.0112   10.0052   -0.0746 C   0  0  0  0  0  0  0  0  0  0  0  0
    6.5826    9.9719    1.2432 C   0  0  0  0  0  0  0  0  0  0  0  0
    5.3723    9.4146    1.8456 C   0  0  0  0  0  0  0  0  0  0  0  0
    4.2180    9.1230    1.1721 C   0  0  0  0  0  0  0  0  0  0  0  0
    2.9770    8.8727    1.7976 C   0  0  0  0  0  0  0  0  0  0  0  0
    1.9234    8.7292    2.2281 N   0  0  0  0  0  0  0  0  0  0  0  0
    4.1105    9.0993   -0.2341 C   0  0  0  0  0  0  0  0  0  0  0  0
    3.9825    9.0245   -1.3720 N   0  0  0  0  0  0  0  0  0  0  0  0
   -6.6145   -8.8488   -3.2001 H   0  0  0  0  0  0  0  0  0  0  0  0
   -3.2671   -6.0091   -7.7306 H   0  0  0  0  0  0  0  0  0  0  0  0
   -6.2693   -9.8768   -8.6720 H   0  0  0  0  0  0  0  0  0  0  0  0
   -6.6508   -8.1991   -0.8734 H   0  0  0  0  0  0  0  0  0  0  0  0
   -2.6283   -3.8356   -1.8614 H   0  0  0  0  0  0  0  0  0  0  0  0
   -1.0641    0.3610   -1.8539 H   0  0  0  0  0  0  0  0  0  0  0  0
    0.0622    0.4700   -3.9933 H   0  0  0  0  0  0  0  0  0  0  0  0
    1.3991    0.7131   -5.6362 H   0  0  0  0  0  0  0  0  0  0  0  0
    1.8534   -0.0333   -7.1737 H   0  0  0  0  0  0  0  0  0  0  0  0
   -0.3989    1.0615   -7.3549 H   0  0  0  0  0  0  0  0  0  0  0  0
   -1.0105    0.0037   -6.0772 H   0  0  0  0  0  0  0  0  0  0  0  0
   -0.4916   -0.6839   -7.6156 H   0  0  0  0  0  0  0  0  0  0  0  0
   -0.1883   -3.8261   -1.5899 H   0  0  0  0  0  0  0  0  0  0  0  0
   -5.1262   -2.2850    3.1698 H   0  0  0  0  0  0  0  0  0  0  0  0
   -5.9592   -2.5882    5.4588 H   0  0  0  0  0  0  0  0  0  0  0  0
   -4.2465   -2.0050   10.0750 H   0  0  0  0  0  0  0  0  0  0  0  0
   -2.7500   -2.3142    9.1765 H   0  0  0  0  0  0  0  0  0  0  0  0
   -3.1587   -0.2488    7.8083 H   0  0  0  0  0  0  0  0  0  0  0  0
   -4.6707    0.0286    8.6785 H   0  0  0  0  0  0  0  0  0  0  0  0
   -3.1224    0.1514    9.5263 H   0  0  0  0  0  0  0  0  0  0  0  0
   -1.1207   -2.1880    4.6868 H   0  0  0  0  0  0  0  0  0  0  0  0
   -1.5205    0.1636    3.9313 H   0  0  0  0  0  0  0  0  0  0  0  0
    1.8282    2.1586    1.3372 H   0  0  0  0  0  0  0  0  0  0  0  0
    3.6706    5.9013    0.5079 H   0  0  0  0  0  0  0  0  0  0  0  0
    1.9823    6.0166    0.9996 H   0  0  0  0  0  0  0  0  0  0  0  0
    3.1715    3.6651   -0.5522 H   0  0  0  0  0  0  0  0  0  0  0  0
    2.2590    5.0044   -1.2379 H   0  0  0  0  0  0  0  0  0  0  0  0
    1.4672    3.8893   -0.1305 H   0  0  0  0  0  0  0  0  0  0  0  0
    4.2445    2.9557    1.3162 H   0  0  0  0  0  0  0  0  0  0  0  0
    5.2240    4.3896    1.6309 H   0  0  0  0  0  0  0  0  0  0  0  0
    4.0639    2.5340    3.7674 H   0  0  0  0  0  0  0  0  0  0  0  0
    5.7459    2.5707    3.2357 H   0  0  0  0  0  0  0  0  0  0  0  0
    5.0580    3.9555    4.0859 H   0  0  0  0  0  0  0  0  0  0  0  0
    0.0003    4.3051    5.4174 H   0  0  0  0  0  0  0  0  0  0  0  0
   -1.0357    2.2701    4.5137 H   0  0  0  0  0  0  0  0  0  0  0  0
    1.4166    6.3972    5.9615 H   0  0  0  0  0  0  0  0  0  0  0  0
    3.0163    8.2722    6.0382 H   0  0  0  0  0  0  0  0  0  0  0  0
    4.9542    6.8261    2.5019 H   0  0  0  0  0  0  0  0  0  0  0  0
    5.1844    9.2035    5.2996 H   0  0  0  0  0  0  0  0  0  0  0  0
    9.1148   11.7100    2.7462 H   0  0  0  0  0  0  0  0  0  0  0  0
    6.4655    9.5442   -0.8818 H   0  0  0  0  0  0  0  0  0  0  0  0
  1  2  2  0  0  0  0
  2  3  1  0  0  0  0
  3  4  2  0  0  0  0
  3  5  1  0  0  0  0
  5  6  2  0  0  0  0
  6  7  1  0  0  0  0
  7  8  1  0  0  0  0
  7  9  2  0  0  0  0
  9 10  1  0  0  0  0
  9 11  1  0  0  0  0
 11 12  2  0  0  0  0
 12 13  1  0  0  0  0
 13 14  2  0  0  0  0
 14 15  1  0  0  0  0
 15 16  3  0  0  0  0
 14 17  1  0  0  0  0
 17 18  3  0  0  0  0
  1 19  1  0  0  0  0
 19 20  2  0  0  0  0
 20 21  1  0  0  0  0
 21 22  1  0  0  0  0
 21 23  2  0  0  0  0
 23 24  1  0  0  0  0
 23 25  1  0  0  0  0
 25 26  2  0  0  0  0
 26 27  1  0  0  0  0
 27 28  2  0  0  0  0
 28 29  1  0  0  0  0
 29 30  2  0  0  0  0
 30 31  1  0  0  0  0
 31 32  2  0  0  0  0
 32 33  1  0  0  0  0
 33 34  1  0  0  0  0
 34 35  1  0  0  0  0
 32 36  1  0  0  0  0
 36 37  1  0  0  0  0
 36 38  2  0  0  0  0
 28 39  1  0  0  0  0
 39 40  2  0  0  0  0
 40 41  1  0  0  0  0
 41 42  1  0  0  0  0
 42 43  2  0  0  0  0
 43 44  1  0  0  0  0
 44 45  2  0  0  0  0
 45 46  1  0  0  0  0
 46 47  1  0  0  0  0
 47 48  1  0  0  0  0
 45 49  1  0  0  0  0
 49 50  2  0  0  0  0
 49 51  1  0  0  0  0
 41 52  2  0  0  0  0
 52 53  1  0  0  0  0
 40 54  1  0  0  0  0
 54 55  2  0  0  0  0
 55 56  1  0  0  0  0
 55 57  1  0  0  0  0
 57 58  2  0  0  0  0
 58 59  1  0  0  0  0
 59 60  1  0  0  0  0
 60 61  1  0  0  0  0
 61 62  1  0  0  0  0
 60 63  1  0  0  0  0
 63 64  1  0  0  0  0
 60 65  1  0  0  0  0
 65 66  2  0  0  0  0
 66 67  1  0  0  0  0
 67 68  1  0  0  0  0
 68 69  2  0  0  0  0
 66 70  1  0  0  0  0
 70 71  2  0  0  0  0
 71 72  1  0  0  0  0
 72 73  2  0  0  0  0
 72 74  1  0  0  0  0
 74 75  2  0  0  0  0
 75 76  1  0  0  0  0
 76 77  2  0  0  0  0
 76 78  1  0  0  0  0
 78 79  2  0  0  0  0
 79 80  1  0  0  0  0
 80 81  1  0  0  0  0
 80 82  2  0  0  0  0
 82 83  1  0  0  0  0
 82 84  1  0  0  0  0
 84 85  2  0  0  0  0
 85 86  1  0  0  0  0
 86 87  2  0  0  0  0
 87 88  1  0  0  0  0
 88 89  3  0  0  0  0
 87 90  1  0  0  0  0
 90 91  3  0  0  0  0
 13  2  1  0  0  0  0
 24 19  1  0  0  0  0
 53 25  1  0  0  0  0
 69 57  1  0  0  0  0
 86 75  1  0  0  0  0
 12  5  1  0  0  0  0
 52 27  1  0  0  0  0
 67 59  2  0  0  0  0
 85 78  1  0  0  0  0
 38 29  1  0  0  0  0
 56 39  1  0  0  0  0
 73 65  1  0  0  0  0
 50 42  1  0  0  0  0
  1 92  1  0  0  0  0
  6 93  1  0  0  0  0
 11 94  1  0  0  0  0
 20 95  1  0  0  0  0
 26 96  1  0  0  0  0
 30 97  1  0  0  0  0
 31 98  1  0  0  0  0
 34 99  1  0  0  0  0
 34100  1  0  0  0  0
 35101  1  0  0  0  0
 35102  1  0  0  0  0
 35103  1  0  0  0  0
 38104  1  0  0  0  0
 43105  1  0  0  0  0
 44106  1  0  0  0  0
 47107  1  0  0  0  0
 47108  1  0  0  0  0
 48109  1  0  0  0  0
 48110  1  0  0  0  0
 48111  1  0  0  0  0
 50112  1  0  0  0  0
 54113  1  0  0  0  0
 58114  1  0  0  0  0
 61115  1  0  0  0  0
 61116  1  0  0  0  0
 62117  1  0  0  0  0
 62118  1  0  0  0  0
 62119  1  0  0  0  0
 63120  1  0  0  0  0
 63121  1  0  0  0  0
 64122  1  0  0  0  0
 64123  1  0  0  0  0
 64124  1  0  0  0  0
 68125  1  0  0  0  0
 69126  1  0  0  0  0
 70127  1  0  0  0  0
 71128  1  0  0  0  0
 73129  1  0  0  0  0
 74130  1  0  0  0  0
 79131  1  0  0  0  0
 84132  1  0  0  0  0
M  END
