
  xtb     02032220133D
 energy: -234.620030504895 gnorm: 0.000636763457 xtb: 6.4.1 (unknown)
127139  0     0  0            999 V2000
    5.0203    7.7218    7.2917 C   0  0  0  0  0  0  0  0  0  0  0  0
    5.2673    6.8215    8.2849 C   0  0  0  0  0  0  0  0  0  0  0  0
    5.4282    7.2969    9.6843 C   0  0  0  0  0  0  0  0  0  0  0  0
    5.6457    8.4257   10.0534 O   0  0  0  0  0  0  0  0  0  0  0  0
    5.1914    6.0957   10.5205 C   0  0  0  0  0  0  0  0  0  0  0  0
    5.0998    6.0071   11.8959 C   0  0  0  0  0  0  0  0  0  0  0  0
    4.8376    4.7618   12.4449 C   0  0  0  0  0  0  0  0  0  0  0  0
    4.7371    4.6317   13.7725 F   0  0  0  0  0  0  0  0  0  0  0  0
    4.6735    3.6411   11.6288 C   0  0  0  0  0  0  0  0  0  0  0  0
    4.4076    2.4561   12.1880 F   0  0  0  0  0  0  0  0  0  0  0  0
    4.7770    3.7255   10.2485 C   0  0  0  0  0  0  0  0  0  0  0  0
    5.0385    4.9676    9.6940 C   0  0  0  0  0  0  0  0  0  0  0  0
    5.2516    5.3730    8.3062 C   0  0  0  0  0  0  0  0  0  0  0  0
    5.6480    4.5429    7.2919 C   0  0  0  0  0  0  0  0  0  0  0  0
    5.6185    3.1361    7.3642 C   0  0  0  0  0  0  0  0  0  0  0  0
    5.5688    1.9896    7.3584 N   0  0  0  0  0  0  0  0  0  0  0  0
    6.1951    5.0250    6.0824 C   0  0  0  0  0  0  0  0  0  0  0  0
    6.7054    5.3899    5.1219 N   0  0  0  0  0  0  0  0  0  0  0  0
    4.4190    7.5093    6.0319 C   0  0  0  0  0  0  0  0  0  0  0  0
    4.3657    8.4095    4.9800 C   0  0  0  0  0  0  0  0  0  0  0  0
    3.6636    7.9160    3.8871 C   0  0  0  0  0  0  0  0  0  0  0  0
    3.5132    8.6084    2.7510 F   0  0  0  0  0  0  0  0  0  0  0  0
    3.1308    6.6459    4.0594 C   0  0  0  0  0  0  0  0  0  0  0  0
    3.5110    6.0700    5.6425 S   0  0  0  0  0  0  0  0  0  0  0  0
    2.4253    5.8163    3.1492 C   0  0  0  0  0  0  0  0  0  0  0  0
    2.0037    6.0942    1.8767 C   0  0  0  0  0  0  0  0  0  0  0  0
    1.3911    4.9917    1.2378 C   0  0  0  0  0  0  0  0  0  0  0  0
    0.8505    4.9272   -0.0653 C   0  0  0  0  0  0  0  0  0  0  0  0
    0.7678    6.0856   -0.9286 C   0  0  0  0  0  0  0  0  0  0  0  0
    0.9479    6.1420   -2.2832 C   0  0  0  0  0  0  0  0  0  0  0  0
    0.7419    7.4381   -2.7904 C   0  0  0  0  0  0  0  0  0  0  0  0
    0.8798    7.7234   -4.0971 F   0  0  0  0  0  0  0  0  0  0  0  0
    0.3873    8.3795   -1.8689 C   0  0  0  0  0  0  0  0  0  0  0  0
    0.1336    9.8319   -2.0757 C   0  0  0  0  0  0  0  0  0  0  0  0
    1.2344   10.6840   -1.4412 C   0  0  0  0  0  0  0  0  0  0  0  0
    0.3190    7.6514   -0.3038 S   0  0  0  0  0  0  0  0  0  0  0  0
    0.3827    3.6832   -0.4787 C   0  0  0  0  0  0  0  0  0  0  0  0
    0.3926    2.5301    0.3442 C   0  0  0  0  0  0  0  0  0  0  0  0
    0.8862    2.6057    1.6612 C   0  0  0  0  0  0  0  0  0  0  0  0
    0.8670    1.4633    2.5530 C   0  0  0  0  0  0  0  0  0  0  0  0
    2.2295    1.1107    3.5819 S   0  0  0  0  0  0  0  0  0  0  0  0
    1.4412   -0.2631    4.2749 C   0  0  0  0  0  0  0  0  0  0  0  0
    2.0882   -1.0908    5.3306 C   0  0  0  0  0  0  0  0  0  0  0  0
    2.5329   -0.2425    6.5217 C   0  0  0  0  0  0  0  0  0  0  0  0
    0.2051   -0.4059    3.7169 C   0  0  0  0  0  0  0  0  0  0  0  0
   -0.1337    0.5522    2.7416 C   0  0  0  0  0  0  0  0  0  0  0  0
   -0.6412   -1.3932    4.0674 F   0  0  0  0  0  0  0  0  0  0  0  0
    1.3918    3.8360    2.0605 C   0  0  0  0  0  0  0  0  0  0  0  0
    2.0805    4.1669    3.6224 S   0  0  0  0  0  0  0  0  0  0  0  0
   -0.1108    1.3927   -0.3325 C   0  0  0  0  0  0  0  0  0  0  0  0
   -0.5263    1.6399   -1.6077 C   0  0  0  0  0  0  0  0  0  0  0  0
   -0.3041    3.3241   -2.0364 S   0  0  0  0  0  0  0  0  0  0  0  0
   -1.0615    0.7074   -2.5743 C   0  0  0  0  0  0  0  0  0  0  0  0
   -1.4051   -0.5971   -2.1917 C   0  0  0  0  0  0  0  0  0  0  0  0
   -1.8807   -1.4745   -3.1361 C   0  0  0  0  0  0  0  0  0  0  0  0
   -2.3042   -2.9196   -2.9488 C   0  0  0  0  0  0  0  0  0  0  0  0
   -1.0561   -3.6958   -2.4694 C   0  0  0  0  0  0  0  0  0  0  0  0
   -1.2367   -5.1755   -2.1627 C   0  0  0  0  0  0  0  0  0  0  0  0
   -3.4675   -2.9497   -1.9257 C   0  0  0  0  0  0  0  0  0  0  0  0
   -4.5160   -4.0412   -2.1030 C   0  0  0  0  0  0  0  0  0  0  0  0
   -2.7033   -3.2939   -4.3617 C   0  0  0  0  0  0  0  0  0  0  0  0
   -2.5367   -2.1953   -5.2280 C   0  0  0  0  0  0  0  0  0  0  0  0
   -2.0326   -1.0726   -4.4718 C   0  0  0  0  0  0  0  0  0  0  0  0
   -1.7116    0.2213   -4.8590 C   0  0  0  0  0  0  0  0  0  0  0  0
   -1.2301    1.0968   -3.9087 C   0  0  0  0  0  0  0  0  0  0  0  0
   -2.8550   -2.2895   -6.5773 C   0  0  0  0  0  0  0  0  0  0  0  0
   -3.3291   -3.4866   -7.0638 C   0  0  0  0  0  0  0  0  0  0  0  0
   -3.4511   -4.6101   -6.2293 C   0  0  0  0  0  0  0  0  0  0  0  0
   -3.1503   -4.4945   -4.8624 C   0  0  0  0  0  0  0  0  0  0  0  0
   -3.9521   -5.8246   -6.8128 C   0  0  0  0  0  0  0  0  0  0  0  0
   -3.6900   -7.1143   -6.4705 C   0  0  0  0  0  0  0  0  0  0  0  0
   -2.5747   -7.5963   -5.6130 C   0  0  0  0  0  0  0  0  0  0  0  0
   -1.7951   -6.9460   -4.9513 O   0  0  0  0  0  0  0  0  0  0  0  0
   -2.5414   -9.0603   -5.7952 C   0  0  0  0  0  0  0  0  0  0  0  0
   -1.6601   -9.9668   -5.2374 C   0  0  0  0  0  0  0  0  0  0  0  0
   -1.7883  -11.3173   -5.5382 C   0  0  0  0  0  0  0  0  0  0  0  0
   -0.8772  -12.3549   -4.9704 C   0  0  0  0  0  0  0  0  0  0  0  0
   -2.8169  -11.6888   -6.4083 C   0  0  0  0  0  0  0  0  0  0  0  0
   -2.9445  -12.9937   -6.7100 F   0  0  0  0  0  0  0  0  0  0  0  0
   -3.7117  -10.8010   -6.9815 C   0  0  0  0  0  0  0  0  0  0  0  0
   -3.5693   -9.4580   -6.6654 C   0  0  0  0  0  0  0  0  0  0  0  0
   -4.3234   -8.2796   -7.0753 C   0  0  0  0  0  0  0  0  0  0  0  0
   -5.4642   -8.2895   -7.8304 C   0  0  0  0  0  0  0  0  0  0  0  0
   -6.2458   -7.1581   -8.1510 C   0  0  0  0  0  0  0  0  0  0  0  0
   -6.9470   -6.2973   -8.4437 N   0  0  0  0  0  0  0  0  0  0  0  0
   -6.0385   -9.4583   -8.3759 C   0  0  0  0  0  0  0  0  0  0  0  0
   -6.5505  -10.3691   -8.8501 N   0  0  0  0  0  0  0  0  0  0  0  0
    5.2354    8.7566    7.5396 H   0  0  0  0  0  0  0  0  0  0  0  0
    5.2271    6.8722   12.5269 H   0  0  0  0  0  0  0  0  0  0  0  0
    4.6409    2.8362    9.6545 H   0  0  0  0  0  0  0  0  0  0  0  0
    4.8468    9.3704    4.9920 H   0  0  0  0  0  0  0  0  0  0  0  0
    2.1518    7.0516    1.4139 H   0  0  0  0  0  0  0  0  0  0  0  0
    1.2548    5.3162   -2.8967 H   0  0  0  0  0  0  0  0  0  0  0  0
   -0.8299   10.1020   -1.6357 H   0  0  0  0  0  0  0  0  0  0  0  0
    0.0883   10.0231   -3.1498 H   0  0  0  0  0  0  0  0  0  0  0  0
    1.2885   10.4965   -0.3710 H   0  0  0  0  0  0  0  0  0  0  0  0
    2.1994   10.4477   -1.8834 H   0  0  0  0  0  0  0  0  0  0  0  0
    1.0286   11.7390   -1.6007 H   0  0  0  0  0  0  0  0  0  0  0  0
    1.3726   -1.8502    5.6544 H   0  0  0  0  0  0  0  0  0  0  0  0
    2.9597   -1.6017    4.9107 H   0  0  0  0  0  0  0  0  0  0  0  0
    2.9711   -0.8764    7.2875 H   0  0  0  0  0  0  0  0  0  0  0  0
    1.6837    0.2850    6.9509 H   0  0  0  0  0  0  0  0  0  0  0  0
    3.2769    0.4890    6.2133 H   0  0  0  0  0  0  0  0  0  0  0  0
   -1.0906    0.5841    2.2543 H   0  0  0  0  0  0  0  0  0  0  0  0
   -0.1200    0.4171    0.1155 H   0  0  0  0  0  0  0  0  0  0  0  0
   -1.3050   -0.9024   -1.1623 H   0  0  0  0  0  0  0  0  0  0  0  0
   -0.6898   -3.1960   -1.5687 H   0  0  0  0  0  0  0  0  0  0  0  0
   -0.2865   -3.5882   -3.2384 H   0  0  0  0  0  0  0  0  0  0  0  0
   -1.9951   -5.3322   -1.4008 H   0  0  0  0  0  0  0  0  0  0  0  0
   -0.2965   -5.5715   -1.7831 H   0  0  0  0  0  0  0  0  0  0  0  0
   -1.4934   -5.7354   -3.0556 H   0  0  0  0  0  0  0  0  0  0  0  0
   -3.0332   -3.0276   -0.9269 H   0  0  0  0  0  0  0  0  0  0  0  0
   -3.9835   -1.9870   -1.9814 H   0  0  0  0  0  0  0  0  0  0  0  0
   -4.0818   -5.0345   -2.0504 H   0  0  0  0  0  0  0  0  0  0  0  0
   -5.0307   -3.9334   -3.0547 H   0  0  0  0  0  0  0  0  0  0  0  0
   -5.2548   -3.9535   -1.3082 H   0  0  0  0  0  0  0  0  0  0  0  0
   -1.8315    0.5386   -5.8835 H   0  0  0  0  0  0  0  0  0  0  0  0
   -0.9686    2.1056   -4.1934 H   0  0  0  0  0  0  0  0  0  0  0  0
   -2.7409   -1.4368   -7.2292 H   0  0  0  0  0  0  0  0  0  0  0  0
   -3.5870   -3.5799   -8.1088 H   0  0  0  0  0  0  0  0  0  0  0  0
   -3.3113   -5.3416   -4.2214 H   0  0  0  0  0  0  0  0  0  0  0  0
   -4.6011   -5.6668   -7.6671 H   0  0  0  0  0  0  0  0  0  0  0  0
   -0.8833   -9.6196   -4.5732 H   0  0  0  0  0  0  0  0  0  0  0  0
   -0.1359  -11.9036   -4.3175 H   0  0  0  0  0  0  0  0  0  0  0  0
   -1.4502  -13.0905   -4.4068 H   0  0  0  0  0  0  0  0  0  0  0  0
   -0.3693  -12.8882   -5.7734 H   0  0  0  0  0  0  0  0  0  0  0  0
   -4.4727  -11.1739   -7.6467 H   0  0  0  0  0  0  0  0  0  0  0  0
  1  2  2  0  0  0  0
  2  3  1  0  0  0  0
  3  4  2  0  0  0  0
  3  5  1  0  0  0  0
  5  6  2  0  0  0  0
  6  7  1  0  0  0  0
  7  8  1  0  0  0  0
  7  9  2  0  0  0  0
  9 10  1  0  0  0  0
  9 11  1  0  0  0  0
 11 12  2  0  0  0  0
 12 13  1  0  0  0  0
 13 14  2  0  0  0  0
 14 15  1  0  0  0  0
 15 16  3  0  0  0  0
 14 17  1  0  0  0  0
 17 18  3  0  0  0  0
  1 19  1  0  0  0  0
 19 20  2  0  0  0  0
 20 21  1  0  0  0  0
 21 22  1  0  0  0  0
 21 23  2  0  0  0  0
 23 24  1  0  0  0  0
 23 25  1  0  0  0  0
 25 26  2  0  0  0  0
 26 27  1  0  0  0  0
 27 28  2  0  0  0  0
 28 29  1  0  0  0  0
 29 30  2  0  0  0  0
 30 31  1  0  0  0  0
 31 32  1  0  0  0  0
 31 33  2  0  0  0  0
 33 34  1  0  0  0  0
 34 35  1  0  0  0  0
 33 36  1  0  0  0  0
 28 37  1  0  0  0  0
 37 38  2  0  0  0  0
 38 39  1  0  0  0  0
 39 40  1  0  0  0  0
 40 41  1  0  0  0  0
 41 42  1  0  0  0  0
 42 43  1  0  0  0  0
 43 44  1  0  0  0  0
 42 45  2  0  0  0  0
 45 46  1  0  0  0  0
 45 47  1  0  0  0  0
 39 48  2  0  0  0  0
 48 49  1  0  0  0  0
 38 50  1  0  0  0  0
 50 51  2  0  0  0  0
 51 52  1  0  0  0  0
 51 53  1  0  0  0  0
 53 54  2  0  0  0  0
 54 55  1  0  0  0  0
 55 56  1  0  0  0  0
 56 57  1  0  0  0  0
 57 58  1  0  0  0  0
 56 59  1  0  0  0  0
 59 60  1  0  0  0  0
 56 61  1  0  0  0  0
 61 62  2  0  0  0  0
 62 63  1  0  0  0  0
 63 64  1  0  0  0  0
 64 65  2  0  0  0  0
 62 66  1  0  0  0  0
 66 67  2  0  0  0  0
 67 68  1  0  0  0  0
 68 69  2  0  0  0  0
 68 70  1  0  0  0  0
 70 71  2  0  0  0  0
 71 72  1  0  0  0  0
 72 73  2  0  0  0  0
 72 74  1  0  0  0  0
 74 75  2  0  0  0  0
 75 76  1  0  0  0  0
 76 77  1  0  0  0  0
 76 78  2  0  0  0  0
 78 79  1  0  0  0  0
 78 80  1  0  0  0  0
 80 81  2  0  0  0  0
 81 82  1  0  0  0  0
 82 83  2  0  0  0  0
 83 84  1  0  0  0  0
 84 85  3  0  0  0  0
 83 86  1  0  0  0  0
 86 87  3  0  0  0  0
 13  2  1  0  0  0  0
 24 19  1  0  0  0  0
 49 25  1  0  0  0  0
 65 53  1  0  0  0  0
 82 71  1  0  0  0  0
 12  5  1  0  0  0  0
 48 27  1  0  0  0  0
 63 55  2  0  0  0  0
 81 74  1  0  0  0  0
 36 29  1  0  0  0  0
 52 37  1  0  0  0  0
 69 61  1  0  0  0  0
 46 40  2  0  0  0  0
  1 88  1  0  0  0  0
  6 89  1  0  0  0  0
 11 90  1  0  0  0  0
 20 91  1  0  0  0  0
 26 92  1  0  0  0  0
 30 93  1  0  0  0  0
 34 94  1  0  0  0  0
 34 95  1  0  0  0  0
 35 96  1  0  0  0  0
 35 97  1  0  0  0  0
 35 98  1  0  0  0  0
 43 99  1  0  0  0  0
 43100  1  0  0  0  0
 44101  1  0  0  0  0
 44102  1  0  0  0  0
 44103  1  0  0  0  0
 46104  1  0  0  0  0
 50105  1  0  0  0  0
 54106  1  0  0  0  0
 57107  1  0  0  0  0
 57108  1  0  0  0  0
 58109  1  0  0  0  0
 58110  1  0  0  0  0
 58111  1  0  0  0  0
 59112  1  0  0  0  0
 59113  1  0  0  0  0
 60114  1  0  0  0  0
 60115  1  0  0  0  0
 60116  1  0  0  0  0
 64117  1  0  0  0  0
 65118  1  0  0  0  0
 66119  1  0  0  0  0
 67120  1  0  0  0  0
 69121  1  0  0  0  0
 70122  1  0  0  0  0
 75123  1  0  0  0  0
 77124  1  0  0  0  0
 77125  1  0  0  0  0
 77126  1  0  0  0  0
 80127  1  0  0  0  0
M  END
