
  xtb     02112215183D
 energy: -357.215551850916 gnorm: 0.000441942120 xtb: 6.4.1 (unknown)
207225  0     0  0            999 V2000
    6.1292    0.8730   -5.1990 C   0  0  0  0  0  0  0  0  0  0  0  0
    6.7223    2.0452   -5.6338 C   0  0  0  0  0  0  0  0  0  0  0  0
    6.1147    3.3726   -5.6324 C   0  0  0  0  0  0  0  0  0  0  0  0
    5.0516    3.7222   -5.1498 O   0  0  0  0  0  0  0  0  0  0  0  0
    7.0475    4.2450   -6.3830 C   0  0  0  0  0  0  0  0  0  0  0  0
    6.9214    5.5868   -6.6763 C   0  0  0  0  0  0  0  0  0  0  0  0
    7.9391    6.1841   -7.4040 C   0  0  0  0  0  0  0  0  0  0  0  0
    7.8559    7.4863   -7.7137 F   0  0  0  0  0  0  0  0  0  0  0  0
    9.0452    5.4441   -7.8159 C   0  0  0  0  0  0  0  0  0  0  0  0
   10.0138    6.0459   -8.5192 F   0  0  0  0  0  0  0  0  0  0  0  0
    9.1727    4.0945   -7.5173 C   0  0  0  0  0  0  0  0  0  0  0  0
    8.1581    3.4902   -6.7937 C   0  0  0  0  0  0  0  0  0  0  0  0
    7.9928    2.1179   -6.3085 C   0  0  0  0  0  0  0  0  0  0  0  0
    8.9222    1.1151   -6.4554 C   0  0  0  0  0  0  0  0  0  0  0  0
    8.8446   -0.1622   -5.8700 C   0  0  0  0  0  0  0  0  0  0  0  0
    8.8806   -1.2134   -5.4054 N   0  0  0  0  0  0  0  0  0  0  0  0
   10.1112    1.2436   -7.1995 C   0  0  0  0  0  0  0  0  0  0  0  0
   11.0845    1.2736   -7.8088 N   0  0  0  0  0  0  0  0  0  0  0  0
    4.9365    0.6681   -4.5194 C   0  0  0  0  0  0  0  0  0  0  0  0
    4.4214   -0.6234   -4.2006 C   0  0  0  0  0  0  0  0  0  0  0  0
    4.9059   -1.8006   -4.7036 N   0  0  0  0  0  0  0  0  0  0  0  0
    5.3940   -1.8765   -6.0249 C   0  0  0  0  0  0  0  0  0  0  0  0
    6.5262   -2.6317   -6.3229 C   0  0  0  0  0  0  0  0  0  0  0  0
    7.0047   -2.6731   -7.6168 C   0  0  0  0  0  0  0  0  0  0  0  0
    6.3803   -1.9679   -8.6398 C   0  0  0  0  0  0  0  0  0  0  0  0
    6.9400   -1.9986  -10.0281 C   0  0  0  0  0  0  0  0  0  0  0  0
    5.2366   -1.2390   -8.3361 C   0  0  0  0  0  0  0  0  0  0  0  0
    4.7392   -1.1967   -7.0488 C   0  0  0  0  0  0  0  0  0  0  0  0
    4.9498   -2.9533   -3.8995 C   0  0  0  0  0  0  0  0  0  0  0  0
    4.7785   -4.2134   -4.4691 C   0  0  0  0  0  0  0  0  0  0  0  0
    4.9588   -5.3484   -3.7070 C   0  0  0  0  0  0  0  0  0  0  0  0
    5.2780   -5.2644   -2.3556 C   0  0  0  0  0  0  0  0  0  0  0  0
    5.5459   -6.5071   -1.5668 C   0  0  0  0  0  0  0  0  0  0  0  0
    5.3828   -4.0044   -1.7822 C   0  0  0  0  0  0  0  0  0  0  0  0
    5.2349   -2.8595   -2.5407 C   0  0  0  0  0  0  0  0  0  0  0  0
    3.3346   -0.5225   -3.3197 C   0  0  0  0  0  0  0  0  0  0  0  0
    2.2634   -1.6649   -2.5575 S   0  0  0  0  0  0  0  0  0  0  0  0
    1.3362   -0.3468   -1.8474 C   0  0  0  0  0  0  0  0  0  0  0  0
    1.9018    0.8943   -2.1237 C   0  0  0  0  0  0  0  0  0  0  0  0
    1.4922    2.0828   -1.5375 N   0  0  0  0  0  0  0  0  0  0  0  0
    1.3202    2.1402   -0.1491 C   0  0  0  0  0  0  0  0  0  0  0  0
    0.4270    3.0546    0.4024 C   0  0  0  0  0  0  0  0  0  0  0  0
    0.2122    3.0862    1.7641 C   0  0  0  0  0  0  0  0  0  0  0  0
    0.8810    2.2188    2.6202 C   0  0  0  0  0  0  0  0  0  0  0  0
    0.6038    2.2330    4.0918 C   0  0  0  0  0  0  0  0  0  0  0  0
    1.7966    1.3326    2.0665 C   0  0  0  0  0  0  0  0  0  0  0  0
    2.0144    1.2848    0.7026 C   0  0  0  0  0  0  0  0  0  0  0  0
    1.4911    3.2355   -2.3362 C   0  0  0  0  0  0  0  0  0  0  0  0
    1.0346    3.1510   -3.6486 C   0  0  0  0  0  0  0  0  0  0  0  0
    1.0977    4.2522   -4.4792 C   0  0  0  0  0  0  0  0  0  0  0  0
    1.5953    5.4647   -4.0218 C   0  0  0  0  0  0  0  0  0  0  0  0
    1.7136    6.6482   -4.9318 C   0  0  0  0  0  0  0  0  0  0  0  0
    2.0155    5.5487   -2.6994 C   0  0  0  0  0  0  0  0  0  0  0  0
    1.9739    4.4524   -1.8640 C   0  0  0  0  0  0  0  0  0  0  0  0
    3.0053    0.7895   -2.9922 C   0  0  0  0  0  0  0  0  0  0  0  0
    3.9756    1.9622   -3.7975 S   0  0  0  0  0  0  0  0  0  0  0  0
    0.0981   -0.5072   -1.1580 C   0  0  0  0  0  0  0  0  0  0  0  0
   -0.3508   -1.4646   -0.2655 C   0  0  0  0  0  0  0  0  0  0  0  0
    0.3572   -2.5482    0.2576 N   0  0  0  0  0  0  0  0  0  0  0  0
    0.8051   -3.5790   -0.5691 C   0  0  0  0  0  0  0  0  0  0  0  0
    1.7683   -4.4736   -0.1004 C   0  0  0  0  0  0  0  0  0  0  0  0
    2.1780   -5.5257   -0.8857 C   0  0  0  0  0  0  0  0  0  0  0  0
    1.6536   -5.7003   -2.1645 C   0  0  0  0  0  0  0  0  0  0  0  0
    2.2002   -7.1127   -3.0726 S   0  0  0  0  0  0  0  0  0  0  0  0
    1.7466   -6.7119   -4.7840 C   0  0  0  0  0  0  0  0  0  0  0  0
    0.7099   -4.8053   -2.6430 C   0  0  0  0  0  0  0  0  0  0  0  0
    0.2859   -3.7573   -1.8492 C   0  0  0  0  0  0  0  0  0  0  0  0
    0.0721   -2.7976    1.6189 C   0  0  0  0  0  0  0  0  0  0  0  0
    0.1234   -1.7255    2.5126 C   0  0  0  0  0  0  0  0  0  0  0  0
   -0.3828   -1.8539    3.7857 C   0  0  0  0  0  0  0  0  0  0  0  0
   -0.9351   -3.0623    4.2043 C   0  0  0  0  0  0  0  0  0  0  0  0
   -1.6914   -3.0691    5.8027 S   0  0  0  0  0  0  0  0  0  0  0  0
   -2.4454   -4.7159    5.9295 C   0  0  0  0  0  0  0  0  0  0  0  0
   -0.8949   -4.1597    3.3553 C   0  0  0  0  0  0  0  0  0  0  0  0
   -0.3991   -4.0267    2.0710 C   0  0  0  0  0  0  0  0  0  0  0  0
   -1.6486   -1.1485    0.2042 C   0  0  0  0  0  0  0  0  0  0  0  0
   -2.6781   -1.9205    1.3445 S   0  0  0  0  0  0  0  0  0  0  0  0
   -3.8442   -0.6096    1.2085 C   0  0  0  0  0  0  0  0  0  0  0  0
   -3.4835    0.3174    0.2414 C   0  0  0  0  0  0  0  0  0  0  0  0
   -4.2541    1.3893   -0.1517 N   0  0  0  0  0  0  0  0  0  0  0  0
   -5.6485    1.3898   -0.0914 C   0  0  0  0  0  0  0  0  0  0  0  0
   -6.3332    2.5949    0.0510 C   0  0  0  0  0  0  0  0  0  0  0  0
   -7.7133    2.6274    0.1054 C   0  0  0  0  0  0  0  0  0  0  0  0
   -8.4413    1.4503    0.0164 C   0  0  0  0  0  0  0  0  0  0  0  0
  -10.2034    1.3561    0.0877 S   0  0  0  0  0  0  0  0  0  0  0  0
  -10.7232    3.0737    0.3585 C   0  0  0  0  0  0  0  0  0  0  0  0
   -7.7627    0.2443   -0.1513 C   0  0  0  0  0  0  0  0  0  0  0  0
   -6.3889    0.2117   -0.2062 C   0  0  0  0  0  0  0  0  0  0  0  0
   -3.6043    2.5365   -0.6837 C   0  0  0  0  0  0  0  0  0  0  0  0
   -3.6466    2.7903   -2.0475 C   0  0  0  0  0  0  0  0  0  0  0  0
   -3.0294    3.9104   -2.5720 C   0  0  0  0  0  0  0  0  0  0  0  0
   -2.3898    4.8075   -1.7265 C   0  0  0  0  0  0  0  0  0  0  0  0
   -1.5734    6.2719   -2.2650 S   0  0  0  0  0  0  0  0  0  0  0  0
   -1.8487    6.2926   -4.0564 C   0  0  0  0  0  0  0  0  0  0  0  0
   -2.3714    4.5640   -0.3532 C   0  0  0  0  0  0  0  0  0  0  0  0
   -2.9563    3.4286    0.1638 C   0  0  0  0  0  0  0  0  0  0  0  0
   -2.2143    0.0016   -0.3149 C   0  0  0  0  0  0  0  0  0  0  0  0
   -1.1342    0.7386   -1.4478 S   0  0  0  0  0  0  0  0  0  0  0  0
   -4.7075   -0.4773    2.3624 C   0  0  0  0  0  0  0  0  0  0  0  0
   -4.7696    0.7646    3.0224 C   0  0  0  0  0  0  0  0  0  0  0  0
   -4.9524    0.8337    4.3795 C   0  0  0  0  0  0  0  0  0  0  0  0
   -5.1776   -0.3164    5.1509 C   0  0  0  0  0  0  0  0  0  0  0  0
   -5.4238   -1.5146    4.4684 C   0  0  0  0  0  0  0  0  0  0  0  0
   -5.5989   -2.8747    4.9329 C   0  0  0  0  0  0  0  0  0  0  0  0
   -6.0896   -3.4638    6.0473 C   0  0  0  0  0  0  0  0  0  0  0  0
   -6.8813   -2.9117    7.1065 C   0  0  0  0  0  0  0  0  0  0  0  0
   -7.0075   -3.5086    8.3964 C   0  0  0  0  0  0  0  0  0  0  0  0
   -7.9213   -2.8855    9.1755 C   0  0  0  0  0  0  0  0  0  0  0  0
   -8.6913   -1.5783    8.3609 S   0  0  0  0  0  0  0  0  0  0  0  0
   -7.7390   -1.8407    6.9717 C   0  0  0  0  0  0  0  0  0  0  0  0
   -5.3141   -3.7427    3.7605 C   0  0  0  0  0  0  0  0  0  0  0  0
   -5.2750   -4.9562    3.7221 O   0  0  0  0  0  0  0  0  0  0  0  0
   -5.1776   -2.9133    2.6716 N   0  0  0  0  0  0  0  0  0  0  0  0
   -5.4565   -3.4143    1.3440 C   0  0  0  0  0  0  0  0  0  0  0  0
   -6.9634   -3.4586    1.1011 C   0  0  0  0  0  0  0  0  0  0  0  0
   -5.1500   -1.5862    3.0840 C   0  0  0  0  0  0  0  0  0  0  0  0
   -4.9816   -0.3063    6.5814 C   0  0  0  0  0  0  0  0  0  0  0  0
   -3.8145    0.0502    7.1705 C   0  0  0  0  0  0  0  0  0  0  0  0
   -2.5320    0.3013    6.4568 C   0  0  0  0  0  0  0  0  0  0  0  0
   -2.3545    0.6043    5.3000 O   0  0  0  0  0  0  0  0  0  0  0  0
   -1.4808    0.0772    7.4763 C   0  0  0  0  0  0  0  0  0  0  0  0
   -0.1102    0.0761    7.3080 C   0  0  0  0  0  0  0  0  0  0  0  0
    0.6774   -0.1843    8.4169 C   0  0  0  0  0  0  0  0  0  0  0  0
    2.0100   -0.1947    8.2924 F   0  0  0  0  0  0  0  0  0  0  0  0
    0.0973   -0.4330    9.6614 C   0  0  0  0  0  0  0  0  0  0  0  0
    0.8832   -0.6872   10.7129 F   0  0  0  0  0  0  0  0  0  0  0  0
   -1.2777   -0.4219    9.8360 C   0  0  0  0  0  0  0  0  0  0  0  0
   -2.0714   -0.1634    8.7287 C   0  0  0  0  0  0  0  0  0  0  0  0
   -3.5189   -0.0759    8.5890 C   0  0  0  0  0  0  0  0  0  0  0  0
   -4.4323   -0.0451    9.6060 C   0  0  0  0  0  0  0  0  0  0  0  0
   -5.8034    0.2233    9.4190 C   0  0  0  0  0  0  0  0  0  0  0  0
   -6.9190    0.4843    9.3426 N   0  0  0  0  0  0  0  0  0  0  0  0
   -4.1081   -0.2052   10.9698 C   0  0  0  0  0  0  0  0  0  0  0  0
   -3.9027   -0.3469   12.0897 N   0  0  0  0  0  0  0  0  0  0  0  0
    6.6758   -0.0331   -5.4253 H   0  0  0  0  0  0  0  0  0  0  0  0
    6.0655    6.1567   -6.3522 H   0  0  0  0  0  0  0  0  0  0  0  0
   10.0486    3.5677   -7.8581 H   0  0  0  0  0  0  0  0  0  0  0  0
    7.0394   -3.1627   -5.5372 H   0  0  0  0  0  0  0  0  0  0  0  0
    7.8931   -3.2474   -7.8314 H   0  0  0  0  0  0  0  0  0  0  0  0
    7.9495   -1.5887  -10.0351 H   0  0  0  0  0  0  0  0  0  0  0  0
    6.3250   -1.4185  -10.7113 H   0  0  0  0  0  0  0  0  0  0  0  0
    6.9977   -3.0229  -10.3933 H   0  0  0  0  0  0  0  0  0  0  0  0
    4.7230   -0.6987   -9.1184 H   0  0  0  0  0  0  0  0  0  0  0  0
    3.8487   -0.6264   -6.8277 H   0  0  0  0  0  0  0  0  0  0  0  0
    4.5334   -4.2944   -5.5183 H   0  0  0  0  0  0  0  0  0  0  0  0
    4.8602   -6.3201   -4.1668 H   0  0  0  0  0  0  0  0  0  0  0  0
    5.5342   -6.3039   -0.4991 H   0  0  0  0  0  0  0  0  0  0  0  0
    4.8097   -7.2745   -1.7976 H   0  0  0  0  0  0  0  0  0  0  0  0
    6.5285   -6.9017   -1.8266 H   0  0  0  0  0  0  0  0  0  0  0  0
    5.6170   -3.9131   -0.7318 H   0  0  0  0  0  0  0  0  0  0  0  0
    5.3774   -1.8891   -2.0888 H   0  0  0  0  0  0  0  0  0  0  0  0
   -0.1000    3.7284   -0.2534 H   0  0  0  0  0  0  0  0  0  0  0  0
   -0.4904    3.7968    2.1743 H   0  0  0  0  0  0  0  0  0  0  0  0
   -0.3459    1.7350    4.2961 H   0  0  0  0  0  0  0  0  0  0  0  0
    1.3958    1.7228    4.6360 H   0  0  0  0  0  0  0  0  0  0  0  0
    0.5285    3.2542    4.4608 H   0  0  0  0  0  0  0  0  0  0  0  0
    2.3612    0.6743    2.7124 H   0  0  0  0  0  0  0  0  0  0  0  0
    2.7328    0.5860    0.2992 H   0  0  0  0  0  0  0  0  0  0  0  0
    0.6382    2.2132   -4.0118 H   0  0  0  0  0  0  0  0  0  0  0  0
    0.7626    4.1629   -5.5036 H   0  0  0  0  0  0  0  0  0  0  0  0
    2.7417    6.7325   -5.2840 H   0  0  0  0  0  0  0  0  0  0  0  0
    1.0676    6.5448   -5.8008 H   0  0  0  0  0  0  0  0  0  0  0  0
    1.4636    7.5682   -4.4071 H   0  0  0  0  0  0  0  0  0  0  0  0
    2.4003    6.4855   -2.3242 H   0  0  0  0  0  0  0  0  0  0  0  0
    2.3325    4.5275   -0.8483 H   0  0  0  0  0  0  0  0  0  0  0  0
    2.1812   -4.3385    0.8878 H   0  0  0  0  0  0  0  0  0  0  0  0
    2.9052   -6.2291   -0.5143 H   0  0  0  0  0  0  0  0  0  0  0  0
    2.2491   -7.4470   -5.4049 H   0  0  0  0  0  0  0  0  0  0  0  0
    2.1017   -5.7138   -5.0223 H   0  0  0  0  0  0  0  0  0  0  0  0
    0.6721   -6.7946   -4.9199 H   0  0  0  0  0  0  0  0  0  0  0  0
    0.2768   -4.9223   -3.6232 H   0  0  0  0  0  0  0  0  0  0  0  0
   -0.4740   -3.0840   -2.2180 H   0  0  0  0  0  0  0  0  0  0  0  0
    0.5023   -0.7722    2.1757 H   0  0  0  0  0  0  0  0  0  0  0  0
   -0.4067   -1.0055    4.4497 H   0  0  0  0  0  0  0  0  0  0  0  0
   -2.9693   -4.7207    6.8805 H   0  0  0  0  0  0  0  0  0  0  0  0
   -3.1506   -4.8706    5.1180 H   0  0  0  0  0  0  0  0  0  0  0  0
   -1.6712   -5.4776    5.9342 H   0  0  0  0  0  0  0  0  0  0  0  0
   -1.2897   -5.1150    3.6601 H   0  0  0  0  0  0  0  0  0  0  0  0
   -0.4289   -4.8721    1.4000 H   0  0  0  0  0  0  0  0  0  0  0  0
   -5.7799    3.5196    0.1210 H   0  0  0  0  0  0  0  0  0  0  0  0
   -8.2036    3.5804    0.2204 H   0  0  0  0  0  0  0  0  0  0  0  0
  -10.3006    3.4466    1.2869 H   0  0  0  0  0  0  0  0  0  0  0  0
  -10.4298    3.6897   -0.4865 H   0  0  0  0  0  0  0  0  0  0  0  0
  -11.8058    3.0423    0.4325 H   0  0  0  0  0  0  0  0  0  0  0  0
   -8.3348   -0.6657   -0.2516 H   0  0  0  0  0  0  0  0  0  0  0  0
   -5.8835   -0.7285   -0.3604 H   0  0  0  0  0  0  0  0  0  0  0  0
   -4.1608    2.1007   -2.7002 H   0  0  0  0  0  0  0  0  0  0  0  0
   -3.0570    4.0717   -3.6369 H   0  0  0  0  0  0  0  0  0  0  0  0
   -1.3669    5.4308   -4.5082 H   0  0  0  0  0  0  0  0  0  0  0  0
   -2.9137    6.3185   -4.2683 H   0  0  0  0  0  0  0  0  0  0  0  0
   -1.3801    7.2046   -4.4117 H   0  0  0  0  0  0  0  0  0  0  0  0
   -1.8938    5.2814    0.2970 H   0  0  0  0  0  0  0  0  0  0  0  0
   -2.9215    3.2292    1.2244 H   0  0  0  0  0  0  0  0  0  0  0  0
   -4.5177    1.6588    2.4757 H   0  0  0  0  0  0  0  0  0  0  0  0
   -4.8648    1.7839    4.8827 H   0  0  0  0  0  0  0  0  0  0  0  0
   -5.9583   -4.5411    6.0902 H   0  0  0  0  0  0  0  0  0  0  0  0
   -6.4215   -4.3528    8.7130 H   0  0  0  0  0  0  0  0  0  0  0  0
   -8.2029   -3.1168   10.1833 H   0  0  0  0  0  0  0  0  0  0  0  0
   -7.8958   -1.2460    6.0929 H   0  0  0  0  0  0  0  0  0  0  0  0
   -5.0349   -4.4209    1.2894 H   0  0  0  0  0  0  0  0  0  0  0  0
   -4.9745   -2.7856    0.5972 H   0  0  0  0  0  0  0  0  0  0  0  0
   -7.1673   -3.8097    0.0932 H   0  0  0  0  0  0  0  0  0  0  0  0
   -7.4371   -4.1355    1.8082 H   0  0  0  0  0  0  0  0  0  0  0  0
   -7.3939   -2.4666    1.2240 H   0  0  0  0  0  0  0  0  0  0  0  0
   -5.7647   -0.7309    7.1987 H   0  0  0  0  0  0  0  0  0  0  0  0
    0.3443    0.2707    6.3505 H   0  0  0  0  0  0  0  0  0  0  0  0
   -1.6827   -0.6200   10.8150 H   0  0  0  0  0  0  0  0  0  0  0  0
  1  2  2  0  0  0  0
  2  3  1  0  0  0  0
  3  4  2  0  0  0  0
  3  5  1  0  0  0  0
  5  6  2  0  0  0  0
  6  7  1  0  0  0  0
  7  8  1  0  0  0  0
  7  9  2  0  0  0  0
  9 10  1  0  0  0  0
  9 11  1  0  0  0  0
 11 12  2  0  0  0  0
 12 13  1  0  0  0  0
 13 14  2  0  0  0  0
 14 15  1  0  0  0  0
 15 16  3  0  0  0  0
 14 17  1  0  0  0  0
 17 18  3  0  0  0  0
  1 19  1  0  0  0  0
 19 20  2  0  0  0  0
 20 21  1  0  0  0  0
 21 22  1  0  0  0  0
 22 23  2  0  0  0  0
 23 24  1  0  0  0  0
 24 25  2  0  0  0  0
 25 26  1  0  0  0  0
 25 27  1  0  0  0  0
 27 28  2  0  0  0  0
 21 29  1  0  0  0  0
 29 30  2  0  0  0  0
 30 31  1  0  0  0  0
 31 32  2  0  0  0  0
 32 33  1  0  0  0  0
 32 34  1  0  0  0  0
 34 35  2  0  0  0  0
 20 36  1  0  0  0  0
 36 37  1  0  0  0  0
 37 38  1  0  0  0  0
 38 39  2  0  0  0  0
 39 40  1  0  0  0  0
 40 41  1  0  0  0  0
 41 42  2  0  0  0  0
 42 43  1  0  0  0  0
 43 44  2  0  0  0  0
 44 45  1  0  0  0  0
 44 46  1  0  0  0  0
 46 47  2  0  0  0  0
 40 48  1  0  0  0  0
 48 49  2  0  0  0  0
 49 50  1  0  0  0  0
 50 51  2  0  0  0  0
 51 52  1  0  0  0  0
 51 53  1  0  0  0  0
 53 54  2  0  0  0  0
 39 55  1  0  0  0  0
 55 56  1  0  0  0  0
 38 57  1  0  0  0  0
 57 58  2  0  0  0  0
 58 59  1  0  0  0  0
 59 60  1  0  0  0  0
 60 61  2  0  0  0  0
 61 62  1  0  0  0  0
 62 63  2  0  0  0  0
 63 64  1  0  0  0  0
 64 65  1  0  0  0  0
 63 66  1  0  0  0  0
 66 67  2  0  0  0  0
 59 68  1  0  0  0  0
 68 69  2  0  0  0  0
 69 70  1  0  0  0  0
 70 71  2  0  0  0  0
 71 72  1  0  0  0  0
 72 73  1  0  0  0  0
 71 74  1  0  0  0  0
 74 75  2  0  0  0  0
 58 76  1  0  0  0  0
 76 77  1  0  0  0  0
 77 78  1  0  0  0  0
 78 79  2  0  0  0  0
 79 80  1  0  0  0  0
 80 81  1  0  0  0  0
 81 82  2  0  0  0  0
 82 83  1  0  0  0  0
 83 84  2  0  0  0  0
 84 85  1  0  0  0  0
 85 86  1  0  0  0  0
 84 87  1  0  0  0  0
 87 88  2  0  0  0  0
 80 89  1  0  0  0  0
 89 90  2  0  0  0  0
 90 91  1  0  0  0  0
 91 92  2  0  0  0  0
 92 93  1  0  0  0  0
 93 94  1  0  0  0  0
 92 95  1  0  0  0  0
 95 96  2  0  0  0  0
 79 97  1  0  0  0  0
 97 98  1  0  0  0  0
 78 99  1  0  0  0  0
 99100  2  0  0  0  0
100101  1  0  0  0  0
101102  2  0  0  0  0
102103  1  0  0  0  0
103104  1  0  0  0  0
104105  2  0  0  0  0
105106  1  0  0  0  0
106107  1  0  0  0  0
107108  2  0  0  0  0
108109  1  0  0  0  0
109110  1  0  0  0  0
104111  1  0  0  0  0
111112  2  0  0  0  0
111113  1  0  0  0  0
113114  1  0  0  0  0
114115  1  0  0  0  0
113116  1  0  0  0  0
102117  1  0  0  0  0
117118  2  0  0  0  0
118119  1  0  0  0  0
119120  2  0  0  0  0
119121  1  0  0  0  0
121122  2  0  0  0  0
122123  1  0  0  0  0
123124  1  0  0  0  0
123125  2  0  0  0  0
125126  1  0  0  0  0
125127  1  0  0  0  0
127128  2  0  0  0  0
128129  1  0  0  0  0
129130  2  0  0  0  0
130131  1  0  0  0  0
131132  3  0  0  0  0
130133  1  0  0  0  0
133134  3  0  0  0  0
 13  2  1  0  0  0  0
 56 19  1  0  0  0  0
 98 57  1  0  0  0  0
116 99  1  0  0  0  0
129118  1  0  0  0  0
 12  5  1  0  0  0  0
 28 22  1  0  0  0  0
 35 29  1  0  0  0  0
 55 36  2  0  0  0  0
 67 60  1  0  0  0  0
 75 68  1  0  0  0  0
 97 76  2  0  0  0  0
116103  2  0  0  0  0
128121  1  0  0  0  0
 47 41  1  0  0  0  0
 54 48  1  0  0  0  0
 88 81  1  0  0  0  0
 96 89  1  0  0  0  0
110106  2  0  0  0  0
  1135  1  0  0  0  0
  6136  1  0  0  0  0
 11137  1  0  0  0  0
 23138  1  0  0  0  0
 24139  1  0  0  0  0
 26140  1  0  0  0  0
 26141  1  0  0  0  0
 26142  1  0  0  0  0
 27143  1  0  0  0  0
 28144  1  0  0  0  0
 30145  1  0  0  0  0
 31146  1  0  0  0  0
 33147  1  0  0  0  0
 33148  1  0  0  0  0
 33149  1  0  0  0  0
 34150  1  0  0  0  0
 35151  1  0  0  0  0
 42152  1  0  0  0  0
 43153  1  0  0  0  0
 45154  1  0  0  0  0
 45155  1  0  0  0  0
 45156  1  0  0  0  0
 46157  1  0  0  0  0
 47158  1  0  0  0  0
 49159  1  0  0  0  0
 50160  1  0  0  0  0
 52161  1  0  0  0  0
 52162  1  0  0  0  0
 52163  1  0  0  0  0
 53164  1  0  0  0  0
 54165  1  0  0  0  0
 61166  1  0  0  0  0
 62167  1  0  0  0  0
 65168  1  0  0  0  0
 65169  1  0  0  0  0
 65170  1  0  0  0  0
 66171  1  0  0  0  0
 67172  1  0  0  0  0
 69173  1  0  0  0  0
 70174  1  0  0  0  0
 73175  1  0  0  0  0
 73176  1  0  0  0  0
 73177  1  0  0  0  0
 74178  1  0  0  0  0
 75179  1  0  0  0  0
 82180  1  0  0  0  0
 83181  1  0  0  0  0
 86182  1  0  0  0  0
 86183  1  0  0  0  0
 86184  1  0  0  0  0
 87185  1  0  0  0  0
 88186  1  0  0  0  0
 90187  1  0  0  0  0
 91188  1  0  0  0  0
 94189  1  0  0  0  0
 94190  1  0  0  0  0
 94191  1  0  0  0  0
 95192  1  0  0  0  0
 96193  1  0  0  0  0
100194  1  0  0  0  0
101195  1  0  0  0  0
105196  1  0  0  0  0
107197  1  0  0  0  0
108198  1  0  0  0  0
110199  1  0  0  0  0
114200  1  0  0  0  0
114201  1  0  0  0  0
115202  1  0  0  0  0
115203  1  0  0  0  0
115204  1  0  0  0  0
117205  1  0  0  0  0
122206  1  0  0  0  0
127207  1  0  0  0  0
M  END
