
  xtb     02112206013D
 energy: -408.588648432604 gnorm: 0.000267836224 xtb: 6.4.1 (unknown)
244265  0     0  0            999 V2000
    6.3483   -6.2021    1.6243 C   0  0  0  0  0  0  0  0  0  0  0  0
    6.6860   -7.2693    2.4350 C   0  0  0  0  0  0  0  0  0  0  0  0
    6.0319   -7.6513    3.6840 C   0  0  0  0  0  0  0  0  0  0  0  0
    5.0225   -7.1895    4.1857 O   0  0  0  0  0  0  0  0  0  0  0  0
    6.8651   -8.7325    4.2604 C   0  0  0  0  0  0  0  0  0  0  0  0
    6.6806   -9.4245    5.4393 C   0  0  0  0  0  0  0  0  0  0  0  0
    7.6097  -10.4005    5.7648 C   0  0  0  0  0  0  0  0  0  0  0  0
    7.4688  -11.0965    6.9022 F   0  0  0  0  0  0  0  0  0  0  0  0
    8.6865  -10.6643    4.9210 C   0  0  0  0  0  0  0  0  0  0  0  0
    9.5701  -11.6125    5.2596 F   0  0  0  0  0  0  0  0  0  0  0  0
    8.8696   -9.9700    3.7333 C   0  0  0  0  0  0  0  0  0  0  0  0
    7.9465   -8.9917    3.4027 C   0  0  0  0  0  0  0  0  0  0  0  0
    7.8412   -8.1078    2.2393 C   0  0  0  0  0  0  0  0  0  0  0  0
    8.6985   -8.1187    1.1640 C   0  0  0  0  0  0  0  0  0  0  0  0
    9.8599   -8.9125    1.0883 C   0  0  0  0  0  0  0  0  0  0  0  0
   10.8310   -9.5145    0.9700 N   0  0  0  0  0  0  0  0  0  0  0  0
    8.5406   -7.3747   -0.0203 C   0  0  0  0  0  0  0  0  0  0  0  0
    8.4751   -6.8336   -1.0331 N   0  0  0  0  0  0  0  0  0  0  0  0
    5.2897   -5.3072    1.6974 C   0  0  0  0  0  0  0  0  0  0  0  0
    5.1345   -4.2096    0.8058 C   0  0  0  0  0  0  0  0  0  0  0  0
    6.0904   -3.7408   -0.0481 N   0  0  0  0  0  0  0  0  0  0  0  0
    7.4687   -3.7931    0.2507 C   0  0  0  0  0  0  0  0  0  0  0  0
    8.3893   -3.9891   -0.7751 C   0  0  0  0  0  0  0  0  0  0  0  0
    9.7404   -4.0220   -0.4917 C   0  0  0  0  0  0  0  0  0  0  0  0
   10.2063   -3.8713    0.8090 C   0  0  0  0  0  0  0  0  0  0  0  0
   11.6718   -3.9528    1.1033 C   0  0  0  0  0  0  0  0  0  0  0  0
    9.2782   -3.6593    1.8226 C   0  0  0  0  0  0  0  0  0  0  0  0
    7.9253   -3.6120    1.5539 C   0  0  0  0  0  0  0  0  0  0  0  0
    5.6982   -3.0216   -1.1968 C   0  0  0  0  0  0  0  0  0  0  0  0
    6.3260   -1.8222   -1.5221 C   0  0  0  0  0  0  0  0  0  0  0  0
    5.9353   -1.1188   -2.6422 C   0  0  0  0  0  0  0  0  0  0  0  0
    4.9145   -1.5851   -3.4643 C   0  0  0  0  0  0  0  0  0  0  0  0
    4.5148   -0.8148   -4.6830 C   0  0  0  0  0  0  0  0  0  0  0  0
    4.3020   -2.7886   -3.1394 C   0  0  0  0  0  0  0  0  0  0  0  0
    4.6881   -3.5058   -2.0230 C   0  0  0  0  0  0  0  0  0  0  0  0
    3.8649   -3.6271    0.9589 C   0  0  0  0  0  0  0  0  0  0  0  0
    3.0332   -2.3484    0.1475 S   0  0  0  0  0  0  0  0  0  0  0  0
    1.6817   -2.4994    1.2656 C   0  0  0  0  0  0  0  0  0  0  0  0
    1.8428   -3.5374    2.1682 C   0  0  0  0  0  0  0  0  0  0  0  0
    0.9071   -3.9514    3.0919 N   0  0  0  0  0  0  0  0  0  0  0  0
   -0.4672   -3.7593    2.8894 C   0  0  0  0  0  0  0  0  0  0  0  0
   -1.2884   -3.4641    3.9753 C   0  0  0  0  0  0  0  0  0  0  0  0
   -2.6355   -3.2313    3.7846 C   0  0  0  0  0  0  0  0  0  0  0  0
   -3.2005   -3.2610    2.5134 C   0  0  0  0  0  0  0  0  0  0  0  0
   -4.6429   -2.9063    2.3149 C   0  0  0  0  0  0  0  0  0  0  0  0
   -2.3856   -3.6081    1.4442 C   0  0  0  0  0  0  0  0  0  0  0  0
   -1.0422   -3.8761    1.6270 C   0  0  0  0  0  0  0  0  0  0  0  0
    1.3176   -4.7046    4.2127 C   0  0  0  0  0  0  0  0  0  0  0  0
    2.4092   -4.3056    4.9776 C   0  0  0  0  0  0  0  0  0  0  0  0
    2.8187   -5.0699    6.0517 C   0  0  0  0  0  0  0  0  0  0  0  0
    2.1549   -6.2414    6.3927 C   0  0  0  0  0  0  0  0  0  0  0  0
    2.6447   -7.0823    7.5299 C   0  0  0  0  0  0  0  0  0  0  0  0
    1.0518   -6.6189    5.6378 C   0  0  0  0  0  0  0  0  0  0  0  0
    0.6334   -5.8649    4.5592 C   0  0  0  0  0  0  0  0  0  0  0  0
    3.1043   -4.1695    1.9881 C   0  0  0  0  0  0  0  0  0  0  0  0
    3.9142   -5.4634    2.7951 S   0  0  0  0  0  0  0  0  0  0  0  0
    0.5781   -1.5999    1.0542 C   0  0  0  0  0  0  0  0  0  0  0  0
    0.1113   -0.5728    1.8525 C   0  0  0  0  0  0  0  0  0  0  0  0
    0.6627   -0.2207    3.0743 N   0  0  0  0  0  0  0  0  0  0  0  0
    2.0507   -0.3415    3.2461 C   0  0  0  0  0  0  0  0  0  0  0  0
    2.9177    0.0327    2.2238 C   0  0  0  0  0  0  0  0  0  0  0  0
    4.2807   -0.1530    2.3443 C   0  0  0  0  0  0  0  0  0  0  0  0
    4.8035   -0.7004    3.5066 C   0  0  0  0  0  0  0  0  0  0  0  0
    6.5177   -1.0485    3.7496 S   0  0  0  0  0  0  0  0  0  0  0  0
    7.3205   -0.2987    2.3056 C   0  0  0  0  0  0  0  0  0  0  0  0
    3.9455   -1.0231    4.5566 C   0  0  0  0  0  0  0  0  0  0  0  0
    2.5843   -0.8507    4.4292 C   0  0  0  0  0  0  0  0  0  0  0  0
   -0.1485    0.2537    4.1071 C   0  0  0  0  0  0  0  0  0  0  0  0
    0.3457    1.1699    5.0369 C   0  0  0  0  0  0  0  0  0  0  0  0
   -0.4445    1.5943    6.0825 C   0  0  0  0  0  0  0  0  0  0  0  0
   -1.7427    1.1146    6.2243 C   0  0  0  0  0  0  0  0  0  0  0  0
   -2.6907    1.6824    7.6082 S   0  0  0  0  0  0  0  0  0  0  0  0
   -3.7205    0.2278    7.9837 C   0  0  0  0  0  0  0  0  0  0  0  0
   -2.2523    0.2356    5.2803 C   0  0  0  0  0  0  0  0  0  0  0  0
   -1.4651   -0.1839    4.2289 C   0  0  0  0  0  0  0  0  0  0  0  0
   -0.9383    0.1333    1.2121 C   0  0  0  0  0  0  0  0  0  0  0  0
   -1.9013    1.5160    1.6185 S   0  0  0  0  0  0  0  0  0  0  0  0
   -2.6585    1.4806    0.0272 C   0  0  0  0  0  0  0  0  0  0  0  0
   -2.2461    0.3824   -0.7225 C   0  0  0  0  0  0  0  0  0  0  0  0
   -2.7742    0.0314   -1.9584 N   0  0  0  0  0  0  0  0  0  0  0  0
   -4.1625   -0.0920   -2.1034 C   0  0  0  0  0  0  0  0  0  0  0  0
   -4.7587    0.1370   -3.3416 C   0  0  0  0  0  0  0  0  0  0  0  0
   -6.1273    0.0410   -3.4950 C   0  0  0  0  0  0  0  0  0  0  0  0
   -6.9285   -0.2833   -2.4079 C   0  0  0  0  0  0  0  0  0  0  0  0
   -8.6860   -0.4360   -2.4727 S   0  0  0  0  0  0  0  0  0  0  0  0
   -9.0991   -0.0489   -4.1965 C   0  0  0  0  0  0  0  0  0  0  0  0
   -6.3350   -0.5137   -1.1680 C   0  0  0  0  0  0  0  0  0  0  0  0
   -4.9701   -0.4209   -1.0145 C   0  0  0  0  0  0  0  0  0  0  0  0
   -1.8995   -0.4793   -2.9234 C   0  0  0  0  0  0  0  0  0  0  0  0
   -0.6416    0.1019   -3.0914 C   0  0  0  0  0  0  0  0  0  0  0  0
    0.2529   -0.4230   -3.9958 C   0  0  0  0  0  0  0  0  0  0  0  0
   -0.0911   -1.5327   -4.7649 C   0  0  0  0  0  0  0  0  0  0  0  0
    1.1305   -2.1262   -5.8947 S   0  0  0  0  0  0  0  0  0  0  0  0
    0.2793   -3.4251   -6.8309 C   0  0  0  0  0  0  0  0  0  0  0  0
   -1.3462   -2.1053   -4.6132 C   0  0  0  0  0  0  0  0  0  0  0  0
   -2.2391   -1.5846   -3.6975 C   0  0  0  0  0  0  0  0  0  0  0  0
   -1.2404   -0.3433   -0.0538 C   0  0  0  0  0  0  0  0  0  0  0  0
   -0.2223   -1.6535   -0.5135 S   0  0  0  0  0  0  0  0  0  0  0  0
   -3.3662    2.5946   -0.4806 C   0  0  0  0  0  0  0  0  0  0  0  0
   -3.8059    3.7310    0.1976 C   0  0  0  0  0  0  0  0  0  0  0  0
   -3.9093    3.8521    1.5719 N   0  0  0  0  0  0  0  0  0  0  0  0
   -3.6263    5.1240    2.1129 C   0  0  0  0  0  0  0  0  0  0  0  0
   -4.5118    5.7607    2.9769 C   0  0  0  0  0  0  0  0  0  0  0  0
   -4.2168    7.0183    3.4622 C   0  0  0  0  0  0  0  0  0  0  0  0
   -3.0473    7.6758    3.0959 C   0  0  0  0  0  0  0  0  0  0  0  0
   -2.7588    9.0540    3.6055 C   0  0  0  0  0  0  0  0  0  0  0  0
   -2.1720    7.0335    2.2301 C   0  0  0  0  0  0  0  0  0  0  0  0
   -2.4513    5.7712    1.7443 C   0  0  0  0  0  0  0  0  0  0  0  0
   -4.5170    2.8651    2.3532 C   0  0  0  0  0  0  0  0  0  0  0  0
   -5.3708    1.9158    1.7946 C   0  0  0  0  0  0  0  0  0  0  0  0
   -5.9757    0.9662    2.5941 C   0  0  0  0  0  0  0  0  0  0  0  0
   -5.7779    0.9472    3.9684 C   0  0  0  0  0  0  0  0  0  0  0  0
   -6.4481   -0.0802    4.8314 C   0  0  0  0  0  0  0  0  0  0  0  0
   -4.9302    1.9020    4.5191 C   0  0  0  0  0  0  0  0  0  0  0  0
   -4.2890    2.8319    3.7286 C   0  0  0  0  0  0  0  0  0  0  0  0
   -4.1394    4.7605   -0.7082 C   0  0  0  0  0  0  0  0  0  0  0  0
   -4.7102    6.3772   -0.5187 S   0  0  0  0  0  0  0  0  0  0  0  0
   -4.6927    6.6150   -2.2774 C   0  0  0  0  0  0  0  0  0  0  0  0
   -4.3861    5.4141   -2.9661 C   0  0  0  0  0  0  0  0  0  0  0  0
   -4.5293    5.1810   -4.2998 N   0  0  0  0  0  0  0  0  0  0  0  0
   -5.3591    5.9512   -5.1299 C   0  0  0  0  0  0  0  0  0  0  0  0
   -6.6152    6.3825   -4.7059 C   0  0  0  0  0  0  0  0  0  0  0  0
   -7.3880    7.1754   -5.5273 C   0  0  0  0  0  0  0  0  0  0  0  0
   -6.9399    7.5619   -6.7892 C   0  0  0  0  0  0  0  0  0  0  0  0
   -7.7685    8.4709   -7.6404 C   0  0  0  0  0  0  0  0  0  0  0  0
   -5.7102    7.0859   -7.2229 C   0  0  0  0  0  0  0  0  0  0  0  0
   -4.9269    6.2867   -6.4109 C   0  0  0  0  0  0  0  0  0  0  0  0
   -3.8525    4.0940   -4.8996 C   0  0  0  0  0  0  0  0  0  0  0  0
   -2.4853    3.9175   -4.7186 C   0  0  0  0  0  0  0  0  0  0  0  0
   -1.8444    2.8479   -5.3156 C   0  0  0  0  0  0  0  0  0  0  0  0
   -2.5421    1.9455   -6.1074 C   0  0  0  0  0  0  0  0  0  0  0  0
   -1.8536    0.7915   -6.7678 C   0  0  0  0  0  0  0  0  0  0  0  0
   -3.9074    2.1428   -6.2932 C   0  0  0  0  0  0  0  0  0  0  0  0
   -4.5616    3.2025   -5.6984 C   0  0  0  0  0  0  0  0  0  0  0  0
   -4.0192    4.4095   -2.0483 C   0  0  0  0  0  0  0  0  0  0  0  0
   -3.4960    2.7706   -2.2258 S   0  0  0  0  0  0  0  0  0  0  0  0
   -4.9555    7.8968   -2.7431 C   0  0  0  0  0  0  0  0  0  0  0  0
   -4.5672    8.4072   -3.9727 C   0  0  0  0  0  0  0  0  0  0  0  0
   -3.3939    7.9352   -4.7124 C   0  0  0  0  0  0  0  0  0  0  0  0
   -2.6279    7.0380   -4.4111 O   0  0  0  0  0  0  0  0  0  0  0  0
   -3.2517    8.8656   -5.8601 C   0  0  0  0  0  0  0  0  0  0  0  0
   -2.3021    8.8599   -6.8581 C   0  0  0  0  0  0  0  0  0  0  0  0
   -2.3828    9.8328   -7.8491 C   0  0  0  0  0  0  0  0  0  0  0  0
   -1.2353    9.8701   -9.1336 Cl  0  0  0  0  0  0  0  0  0  0  0  0
   -3.4035   10.7799   -7.7986 C   0  0  0  0  0  0  0  0  0  0  0  0
   -3.4733   11.7168   -8.7559 F   0  0  0  0  0  0  0  0  0  0  0  0
   -4.3590   10.7945   -6.7920 C   0  0  0  0  0  0  0  0  0  0  0  0
   -4.2799    9.8209   -5.8125 C   0  0  0  0  0  0  0  0  0  0  0  0
   -5.1230    9.5383   -4.6513 C   0  0  0  0  0  0  0  0  0  0  0  0
   -6.3224   10.1469   -4.3633 C   0  0  0  0  0  0  0  0  0  0  0  0
   -7.1766    9.7419   -3.3199 C   0  0  0  0  0  0  0  0  0  0  0  0
   -7.9355    9.4422   -2.5109 N   0  0  0  0  0  0  0  0  0  0  0  0
   -6.8792   11.1871   -5.1275 C   0  0  0  0  0  0  0  0  0  0  0  0
   -7.3880   12.0256   -5.7266 N   0  0  0  0  0  0  0  0  0  0  0  0
    7.0202   -6.0232    0.7951 H   0  0  0  0  0  0  0  0  0  0  0  0
    5.8440   -9.2207    6.0880 H   0  0  0  0  0  0  0  0  0  0  0  0
    9.7180  -10.2135    3.1153 H   0  0  0  0  0  0  0  0  0  0  0  0
    8.0414   -4.1262   -1.7868 H   0  0  0  0  0  0  0  0  0  0  0  0
   10.4436   -4.1868   -1.2937 H   0  0  0  0  0  0  0  0  0  0  0  0
   12.2403   -3.3497    0.3980 H   0  0  0  0  0  0  0  0  0  0  0  0
   12.0132   -4.9837    1.0070 H   0  0  0  0  0  0  0  0  0  0  0  0
   11.8879   -3.6133    2.1132 H   0  0  0  0  0  0  0  0  0  0  0  0
    9.6161   -3.5207    2.8395 H   0  0  0  0  0  0  0  0  0  0  0  0
    7.2218   -3.4408    2.3549 H   0  0  0  0  0  0  0  0  0  0  0  0
    7.1225   -1.4474   -0.8952 H   0  0  0  0  0  0  0  0  0  0  0  0
    6.4278   -0.1873   -2.8817 H   0  0  0  0  0  0  0  0  0  0  0  0
    5.2500   -0.9631   -5.4741 H   0  0  0  0  0  0  0  0  0  0  0  0
    3.5481   -1.1451   -5.0529 H   0  0  0  0  0  0  0  0  0  0  0  0
    4.4711    0.2510   -4.4674 H   0  0  0  0  0  0  0  0  0  0  0  0
    3.5134   -3.1696   -3.7709 H   0  0  0  0  0  0  0  0  0  0  0  0
    4.2164   -4.4487   -1.7888 H   0  0  0  0  0  0  0  0  0  0  0  0
   -0.8593   -3.4047    4.9646 H   0  0  0  0  0  0  0  0  0  0  0  0
   -3.2569   -2.9962    4.6370 H   0  0  0  0  0  0  0  0  0  0  0  0
   -4.7895   -1.8367    2.4760 H   0  0  0  0  0  0  0  0  0  0  0  0
   -4.9694   -3.1496    1.3066 H   0  0  0  0  0  0  0  0  0  0  0  0
   -5.2729   -3.4387    3.0255 H   0  0  0  0  0  0  0  0  0  0  0  0
   -2.8056   -3.6754    0.4505 H   0  0  0  0  0  0  0  0  0  0  0  0
   -0.4338   -4.1822    0.7892 H   0  0  0  0  0  0  0  0  0  0  0  0
    2.9354   -3.4000    4.7191 H   0  0  0  0  0  0  0  0  0  0  0  0
    3.6751   -4.7558    6.6298 H   0  0  0  0  0  0  0  0  0  0  0  0
    2.8428   -6.4701    8.4079 H   0  0  0  0  0  0  0  0  0  0  0  0
    1.9219   -7.8512    7.7908 H   0  0  0  0  0  0  0  0  0  0  0  0
    3.5776   -7.5670    7.2439 H   0  0  0  0  0  0  0  0  0  0  0  0
    0.5191   -7.5257    5.8859 H   0  0  0  0  0  0  0  0  0  0  0  0
   -0.2184   -6.1768    3.9722 H   0  0  0  0  0  0  0  0  0  0  0  0
    2.5190    0.4593    1.3152 H   0  0  0  0  0  0  0  0  0  0  0  0
    4.9156    0.1265    1.5194 H   0  0  0  0  0  0  0  0  0  0  0  0
    6.9909   -0.7936    1.3969 H   0  0  0  0  0  0  0  0  0  0  0  0
    7.1065    0.7658    2.2774 H   0  0  0  0  0  0  0  0  0  0  0  0
    8.3849   -0.4616    2.4435 H   0  0  0  0  0  0  0  0  0  0  0  0
    4.3622   -1.4255    5.4677 H   0  0  0  0  0  0  0  0  0  0  0  0
    1.9231   -1.1200    5.2393 H   0  0  0  0  0  0  0  0  0  0  0  0
    1.3550    1.5406    4.9392 H   0  0  0  0  0  0  0  0  0  0  0  0
   -0.0603    2.2992    6.8036 H   0  0  0  0  0  0  0  0  0  0  0  0
   -3.1024   -0.6638    7.9483 H   0  0  0  0  0  0  0  0  0  0  0  0
   -4.0985    0.3810    8.9896 H   0  0  0  0  0  0  0  0  0  0  0  0
   -4.5511    0.1528    7.2883 H   0  0  0  0  0  0  0  0  0  0  0  0
   -3.2612   -0.1341    5.3554 H   0  0  0  0  0  0  0  0  0  0  0  0
   -1.8676   -0.8773    3.5087 H   0  0  0  0  0  0  0  0  0  0  0  0
   -4.1418    0.4116   -4.1836 H   0  0  0  0  0  0  0  0  0  0  0  0
   -6.5537    0.2330   -4.4661 H   0  0  0  0  0  0  0  0  0  0  0  0
   -8.6358   -0.7715   -4.8622 H   0  0  0  0  0  0  0  0  0  0  0  0
  -10.1798   -0.1291   -4.2618 H   0  0  0  0  0  0  0  0  0  0  0  0
   -8.7899    0.9648   -4.4342 H   0  0  0  0  0  0  0  0  0  0  0  0
   -6.9622   -0.7738   -0.3293 H   0  0  0  0  0  0  0  0  0  0  0  0
   -4.5222   -0.6073   -0.0498 H   0  0  0  0  0  0  0  0  0  0  0  0
   -0.3761    0.9682   -2.5047 H   0  0  0  0  0  0  0  0  0  0  0  0
    1.2293    0.0201   -4.1180 H   0  0  0  0  0  0  0  0  0  0  0  0
    0.9906   -3.7581   -7.5803 H   0  0  0  0  0  0  0  0  0  0  0  0
    0.0224   -4.2523   -6.1753 H   0  0  0  0  0  0  0  0  0  0  0  0
   -0.6015   -3.0135   -7.3151 H   0  0  0  0  0  0  0  0  0  0  0  0
   -1.6387   -2.9692   -5.1883 H   0  0  0  0  0  0  0  0  0  0  0  0
   -3.2045   -2.0513   -3.5705 H   0  0  0  0  0  0  0  0  0  0  0  0
   -5.4315    5.2692    3.2571 H   0  0  0  0  0  0  0  0  0  0  0  0
   -4.9130    7.5052    4.1293 H   0  0  0  0  0  0  0  0  0  0  0  0
   -1.7011    9.2892    3.5166 H   0  0  0  0  0  0  0  0  0  0  0  0
   -3.0565    9.1513    4.6473 H   0  0  0  0  0  0  0  0  0  0  0  0
   -3.3204    9.7885    3.0275 H   0  0  0  0  0  0  0  0  0  0  0  0
   -1.2569    7.5250    1.9330 H   0  0  0  0  0  0  0  0  0  0  0  0
   -1.7614    5.2772    1.0753 H   0  0  0  0  0  0  0  0  0  0  0  0
   -5.5774    1.9267    0.7344 H   0  0  0  0  0  0  0  0  0  0  0  0
   -6.6376    0.2425    2.1393 H   0  0  0  0  0  0  0  0  0  0  0  0
   -5.7650   -0.9050    5.0444 H   0  0  0  0  0  0  0  0  0  0  0  0
   -6.7581    0.3550    5.7798 H   0  0  0  0  0  0  0  0  0  0  0  0
   -7.3232   -0.4927    4.3348 H   0  0  0  0  0  0  0  0  0  0  0  0
   -4.7693    1.9314    5.5861 H   0  0  0  0  0  0  0  0  0  0  0  0
   -3.6148    3.5449    4.1777 H   0  0  0  0  0  0  0  0  0  0  0  0
   -6.9809    6.1013   -3.7297 H   0  0  0  0  0  0  0  0  0  0  0  0
   -8.3547    7.5108   -5.1811 H   0  0  0  0  0  0  0  0  0  0  0  0
   -8.7780    8.0786   -7.7504 H   0  0  0  0  0  0  0  0  0  0  0  0
   -7.8479    9.4545   -7.1770 H   0  0  0  0  0  0  0  0  0  0  0  0
   -7.3278    8.5912   -8.6264 H   0  0  0  0  0  0  0  0  0  0  0  0
   -5.3482    7.3553   -8.2044 H   0  0  0  0  0  0  0  0  0  0  0  0
   -3.9681    5.9310   -6.7571 H   0  0  0  0  0  0  0  0  0  0  0  0
   -1.9373    4.6406   -4.1352 H   0  0  0  0  0  0  0  0  0  0  0  0
   -0.7824    2.7170   -5.1711 H   0  0  0  0  0  0  0  0  0  0  0  0
   -2.3083   -0.1491   -6.4581 H   0  0  0  0  0  0  0  0  0  0  0  0
   -0.7993    0.7657   -6.5067 H   0  0  0  0  0  0  0  0  0  0  0  0
   -1.9446    0.8666   -7.8510 H   0  0  0  0  0  0  0  0  0  0  0  0
   -4.4634    1.4539   -6.9134 H   0  0  0  0  0  0  0  0  0  0  0  0
   -5.6219    3.3477   -5.8471 H   0  0  0  0  0  0  0  0  0  0  0  0
   -5.4609    8.5578   -2.0492 H   0  0  0  0  0  0  0  0  0  0  0  0
   -1.5208    8.1169   -6.8736 H   0  0  0  0  0  0  0  0  0  0  0  0
   -5.1194   11.5582   -6.8048 H   0  0  0  0  0  0  0  0  0  0  0  0
  1  2  2  0  0  0  0
  2  3  1  0  0  0  0
  3  4  2  0  0  0  0
  3  5  1  0  0  0  0
  5  6  2  0  0  0  0
  6  7  1  0  0  0  0
  7  8  1  0  0  0  0
  7  9  2  0  0  0  0
  9 10  1  0  0  0  0
  9 11  1  0  0  0  0
 11 12  2  0  0  0  0
 12 13  1  0  0  0  0
 13 14  2  0  0  0  0
 14 15  1  0  0  0  0
 15 16  3  0  0  0  0
 14 17  1  0  0  0  0
 17 18  3  0  0  0  0
  1 19  1  0  0  0  0
 19 20  2  0  0  0  0
 20 21  1  0  0  0  0
 21 22  1  0  0  0  0
 22 23  2  0  0  0  0
 23 24  1  0  0  0  0
 24 25  2  0  0  0  0
 25 26  1  0  0  0  0
 25 27  1  0  0  0  0
 27 28  2  0  0  0  0
 21 29  1  0  0  0  0
 29 30  2  0  0  0  0
 30 31  1  0  0  0  0
 31 32  2  0  0  0  0
 32 33  1  0  0  0  0
 32 34  1  0  0  0  0
 34 35  2  0  0  0  0
 20 36  1  0  0  0  0
 36 37  1  0  0  0  0
 37 38  1  0  0  0  0
 38 39  2  0  0  0  0
 39 40  1  0  0  0  0
 40 41  1  0  0  0  0
 41 42  2  0  0  0  0
 42 43  1  0  0  0  0
 43 44  2  0  0  0  0
 44 45  1  0  0  0  0
 44 46  1  0  0  0  0
 46 47  2  0  0  0  0
 40 48  1  0  0  0  0
 48 49  2  0  0  0  0
 49 50  1  0  0  0  0
 50 51  2  0  0  0  0
 51 52  1  0  0  0  0
 51 53  1  0  0  0  0
 53 54  2  0  0  0  0
 39 55  1  0  0  0  0
 55 56  1  0  0  0  0
 38 57  1  0  0  0  0
 57 58  2  0  0  0  0
 58 59  1  0  0  0  0
 59 60  1  0  0  0  0
 60 61  2  0  0  0  0
 61 62  1  0  0  0  0
 62 63  2  0  0  0  0
 63 64  1  0  0  0  0
 64 65  1  0  0  0  0
 63 66  1  0  0  0  0
 66 67  2  0  0  0  0
 59 68  1  0  0  0  0
 68 69  2  0  0  0  0
 69 70  1  0  0  0  0
 70 71  2  0  0  0  0
 71 72  1  0  0  0  0
 72 73  1  0  0  0  0
 71 74  1  0  0  0  0
 74 75  2  0  0  0  0
 58 76  1  0  0  0  0
 76 77  1  0  0  0  0
 77 78  1  0  0  0  0
 78 79  2  0  0  0  0
 79 80  1  0  0  0  0
 80 81  1  0  0  0  0
 81 82  2  0  0  0  0
 82 83  1  0  0  0  0
 83 84  2  0  0  0  0
 84 85  1  0  0  0  0
 85 86  1  0  0  0  0
 84 87  1  0  0  0  0
 87 88  2  0  0  0  0
 80 89  1  0  0  0  0
 89 90  2  0  0  0  0
 90 91  1  0  0  0  0
 91 92  2  0  0  0  0
 92 93  1  0  0  0  0
 93 94  1  0  0  0  0
 92 95  1  0  0  0  0
 95 96  2  0  0  0  0
 79 97  1  0  0  0  0
 97 98  1  0  0  0  0
 78 99  1  0  0  0  0
 99100  2  0  0  0  0
100101  1  0  0  0  0
101102  1  0  0  0  0
102103  2  0  0  0  0
103104  1  0  0  0  0
104105  2  0  0  0  0
105106  1  0  0  0  0
105107  1  0  0  0  0
107108  2  0  0  0  0
101109  1  0  0  0  0
109110  2  0  0  0  0
110111  1  0  0  0  0
111112  2  0  0  0  0
112113  1  0  0  0  0
112114  1  0  0  0  0
114115  2  0  0  0  0
100116  1  0  0  0  0
116117  1  0  0  0  0
117118  1  0  0  0  0
118119  2  0  0  0  0
119120  1  0  0  0  0
120121  1  0  0  0  0
121122  2  0  0  0  0
122123  1  0  0  0  0
123124  2  0  0  0  0
124125  1  0  0  0  0
124126  1  0  0  0  0
126127  2  0  0  0  0
120128  1  0  0  0  0
128129  2  0  0  0  0
129130  1  0  0  0  0
130131  2  0  0  0  0
131132  1  0  0  0  0
131133  1  0  0  0  0
133134  2  0  0  0  0
119135  1  0  0  0  0
135136  1  0  0  0  0
118137  1  0  0  0  0
137138  2  0  0  0  0
138139  1  0  0  0  0
139140  2  0  0  0  0
139141  1  0  0  0  0
141142  2  0  0  0  0
142143  1  0  0  0  0
143144  1  0  0  0  0
143145  2  0  0  0  0
145146  1  0  0  0  0
145147  1  0  0  0  0
147148  2  0  0  0  0
148149  1  0  0  0  0
149150  2  0  0  0  0
150151  1  0  0  0  0
151152  3  0  0  0  0
150153  1  0  0  0  0
153154  3  0  0  0  0
 13  2  1  0  0  0  0
 56 19  1  0  0  0  0
 98 57  1  0  0  0  0
136 99  1  0  0  0  0
149138  1  0  0  0  0
 12  5  1  0  0  0  0
 28 22  1  0  0  0  0
 35 29  1  0  0  0  0
 55 36  2  0  0  0  0
 67 60  1  0  0  0  0
 75 68  1  0  0  0  0
 97 76  2  0  0  0  0
108102  1  0  0  0  0
115109  1  0  0  0  0
135116  2  0  0  0  0
148141  1  0  0  0  0
 47 41  1  0  0  0  0
 54 48  1  0  0  0  0
 88 81  1  0  0  0  0
 96 89  1  0  0  0  0
127121  1  0  0  0  0
134128  1  0  0  0  0
  1155  1  0  0  0  0
  6156  1  0  0  0  0
 11157  1  0  0  0  0
 23158  1  0  0  0  0
 24159  1  0  0  0  0
 26160  1  0  0  0  0
 26161  1  0  0  0  0
 26162  1  0  0  0  0
 27163  1  0  0  0  0
 28164  1  0  0  0  0
 30165  1  0  0  0  0
 31166  1  0  0  0  0
 33167  1  0  0  0  0
 33168  1  0  0  0  0
 33169  1  0  0  0  0
 34170  1  0  0  0  0
 35171  1  0  0  0  0
 42172  1  0  0  0  0
 43173  1  0  0  0  0
 45174  1  0  0  0  0
 45175  1  0  0  0  0
 45176  1  0  0  0  0
 46177  1  0  0  0  0
 47178  1  0  0  0  0
 49179  1  0  0  0  0
 50180  1  0  0  0  0
 52181  1  0  0  0  0
 52182  1  0  0  0  0
 52183  1  0  0  0  0
 53184  1  0  0  0  0
 54185  1  0  0  0  0
 61186  1  0  0  0  0
 62187  1  0  0  0  0
 65188  1  0  0  0  0
 65189  1  0  0  0  0
 65190  1  0  0  0  0
 66191  1  0  0  0  0
 67192  1  0  0  0  0
 69193  1  0  0  0  0
 70194  1  0  0  0  0
 73195  1  0  0  0  0
 73196  1  0  0  0  0
 73197  1  0  0  0  0
 74198  1  0  0  0  0
 75199  1  0  0  0  0
 82200  1  0  0  0  0
 83201  1  0  0  0  0
 86202  1  0  0  0  0
 86203  1  0  0  0  0
 86204  1  0  0  0  0
 87205  1  0  0  0  0
 88206  1  0  0  0  0
 90207  1  0  0  0  0
 91208  1  0  0  0  0
 94209  1  0  0  0  0
 94210  1  0  0  0  0
 94211  1  0  0  0  0
 95212  1  0  0  0  0
 96213  1  0  0  0  0
103214  1  0  0  0  0
104215  1  0  0  0  0
106216  1  0  0  0  0
106217  1  0  0  0  0
106218  1  0  0  0  0
107219  1  0  0  0  0
108220  1  0  0  0  0
110221  1  0  0  0  0
111222  1  0  0  0  0
113223  1  0  0  0  0
113224  1  0  0  0  0
113225  1  0  0  0  0
114226  1  0  0  0  0
115227  1  0  0  0  0
122228  1  0  0  0  0
123229  1  0  0  0  0
125230  1  0  0  0  0
125231  1  0  0  0  0
125232  1  0  0  0  0
126233  1  0  0  0  0
127234  1  0  0  0  0
129235  1  0  0  0  0
130236  1  0  0  0  0
132237  1  0  0  0  0
132238  1  0  0  0  0
132239  1  0  0  0  0
133240  1  0  0  0  0
134241  1  0  0  0  0
137242  1  0  0  0  0
142243  1  0  0  0  0
147244  1  0  0  0  0
M  END
