
  xtb     02112216353D
 energy: -421.711754781231 gnorm: 0.000708500297 xtb: 6.4.1 (unknown)
248269  0     0  0            999 V2000
    3.3651   -8.6283    0.6507 C   0  0  0  0  0  0  0  0  0  0  0  0
    2.7566   -9.8690    0.6741 C   0  0  0  0  0  0  0  0  0  0  0  0
    1.4813  -10.2175    0.0530 C   0  0  0  0  0  0  0  0  0  0  0  0
    0.6881   -9.4853   -0.5115 O   0  0  0  0  0  0  0  0  0  0  0  0
    1.3358  -11.6814    0.2223 C   0  0  0  0  0  0  0  0  0  0  0  0
    0.3066  -12.4970   -0.2006 C   0  0  0  0  0  0  0  0  0  0  0  0
    0.4069  -13.8521    0.0742 C   0  0  0  0  0  0  0  0  0  0  0  0
   -0.5702  -14.6823   -0.3177 F   0  0  0  0  0  0  0  0  0  0  0  0
    1.5131  -14.3585    0.7536 C   0  0  0  0  0  0  0  0  0  0  0  0
    1.5860  -15.6725    1.0032 F   0  0  0  0  0  0  0  0  0  0  0  0
    2.5462  -13.5364    1.1814 C   0  0  0  0  0  0  0  0  0  0  0  0
    2.4533  -12.1811    0.9106 C   0  0  0  0  0  0  0  0  0  0  0  0
    3.3411  -11.0615    1.2338 C   0  0  0  0  0  0  0  0  0  0  0  0
    4.4956  -11.1628    1.9736 C   0  0  0  0  0  0  0  0  0  0  0  0
    5.2839  -10.0838    2.4155 C   0  0  0  0  0  0  0  0  0  0  0  0
    5.9650   -9.2643    2.8481 N   0  0  0  0  0  0  0  0  0  0  0  0
    5.0358  -12.3813    2.4309 C   0  0  0  0  0  0  0  0  0  0  0  0
    5.5390  -13.3384    2.8182 N   0  0  0  0  0  0  0  0  0  0  0  0
    2.9113   -7.4063    0.1713 C   0  0  0  0  0  0  0  0  0  0  0  0
    3.6841   -6.2139    0.2439 C   0  0  0  0  0  0  0  0  0  0  0  0
    4.9949   -6.1303    0.6313 N   0  0  0  0  0  0  0  0  0  0  0  0
    5.9565   -7.0710    0.2237 C   0  0  0  0  0  0  0  0  0  0  0  0
    5.8671   -7.6727   -1.0299 C   0  0  0  0  0  0  0  0  0  0  0  0
    6.8237   -8.5841   -1.4307 C   0  0  0  0  0  0  0  0  0  0  0  0
    7.8954   -8.9082   -0.6071 C   0  0  0  0  0  0  0  0  0  0  0  0
    8.9267   -9.9077   -1.0297 C   0  0  0  0  0  0  0  0  0  0  0  0
    7.9857   -8.2874    0.6338 C   0  0  0  0  0  0  0  0  0  0  0  0
    7.0311   -7.3834    1.0535 C   0  0  0  0  0  0  0  0  0  0  0  0
    5.4093   -4.9807    1.3343 C   0  0  0  0  0  0  0  0  0  0  0  0
    4.5926   -4.4427    2.3269 C   0  0  0  0  0  0  0  0  0  0  0  0
    4.9756   -3.2970    2.9919 C   0  0  0  0  0  0  0  0  0  0  0  0
    6.1789   -2.6636    2.6965 C   0  0  0  0  0  0  0  0  0  0  0  0
    6.5681   -1.4097    3.4165 C   0  0  0  0  0  0  0  0  0  0  0  0
    6.9992   -3.2252    1.7275 C   0  0  0  0  0  0  0  0  0  0  0  0
    6.6260   -4.3712    1.0533 C   0  0  0  0  0  0  0  0  0  0  0  0
    2.9109   -5.0976   -0.1089 C   0  0  0  0  0  0  0  0  0  0  0  0
    3.2548   -3.4054   -0.2560 S   0  0  0  0  0  0  0  0  0  0  0  0
    1.6143   -3.1068   -0.8116 C   0  0  0  0  0  0  0  0  0  0  0  0
    0.8639   -4.2696   -0.8864 C   0  0  0  0  0  0  0  0  0  0  0  0
   -0.4514   -4.3161   -1.3082 N   0  0  0  0  0  0  0  0  0  0  0  0
   -1.2933   -5.2903   -0.7443 C   0  0  0  0  0  0  0  0  0  0  0  0
   -2.1563   -6.0378   -1.5386 C   0  0  0  0  0  0  0  0  0  0  0  0
   -2.9373   -7.0246   -0.9709 C   0  0  0  0  0  0  0  0  0  0  0  0
   -2.8761   -7.2964    0.3899 C   0  0  0  0  0  0  0  0  0  0  0  0
   -3.6835   -8.4030    0.9953 C   0  0  0  0  0  0  0  0  0  0  0  0
   -2.0249   -6.5313    1.1782 C   0  0  0  0  0  0  0  0  0  0  0  0
   -1.2457   -5.5356    0.6255 C   0  0  0  0  0  0  0  0  0  0  0  0
   -0.8810   -3.5523   -2.4003 C   0  0  0  0  0  0  0  0  0  0  0  0
   -2.1785   -3.0460   -2.4281 C   0  0  0  0  0  0  0  0  0  0  0  0
   -2.6226   -2.3386   -3.5264 C   0  0  0  0  0  0  0  0  0  0  0  0
   -1.7957   -2.1154   -4.6227 C   0  0  0  0  0  0  0  0  0  0  0  0
   -2.3092   -1.3821   -5.8238 C   0  0  0  0  0  0  0  0  0  0  0  0
   -0.4962   -2.6037   -4.5765 C   0  0  0  0  0  0  0  0  0  0  0  0
   -0.0382   -3.3093   -3.4813 C   0  0  0  0  0  0  0  0  0  0  0  0
    1.6120   -5.4041   -0.4925 C   0  0  0  0  0  0  0  0  0  0  0  0
    1.2783   -7.0967   -0.4358 S   0  0  0  0  0  0  0  0  0  0  0  0
    1.0627   -1.7801   -0.8986 C   0  0  0  0  0  0  0  0  0  0  0  0
    1.3612   -0.6768   -1.6779 C   0  0  0  0  0  0  0  0  0  0  0  0
    2.2909   -0.6507   -2.7019 N   0  0  0  0  0  0  0  0  0  0  0  0
    2.0534    0.0175   -3.9028 C   0  0  0  0  0  0  0  0  0  0  0  0
    3.1300    0.3992   -4.7030 C   0  0  0  0  0  0  0  0  0  0  0  0
    2.9295    0.9839   -5.9357 C   0  0  0  0  0  0  0  0  0  0  0  0
    1.6407    1.2242   -6.3867 C   0  0  0  0  0  0  0  0  0  0  0  0
    1.2726    1.9288   -7.9680 S   0  0  0  0  0  0  0  0  0  0  0  0
    2.8665    1.8851   -8.8351 C   0  0  0  0  0  0  0  0  0  0  0  0
    0.5621    0.9004   -5.5708 C   0  0  0  0  0  0  0  0  0  0  0  0
    0.7607    0.2939   -4.3497 C   0  0  0  0  0  0  0  0  0  0  0  0
    3.5358   -1.2920   -2.5175 C   0  0  0  0  0  0  0  0  0  0  0  0
    4.3864   -0.8867   -1.4916 C   0  0  0  0  0  0  0  0  0  0  0  0
    5.6169   -1.4889   -1.3351 C   0  0  0  0  0  0  0  0  0  0  0  0
    6.0121   -2.5093   -2.1959 C   0  0  0  0  0  0  0  0  0  0  0  0
    7.6205   -3.1911   -1.9496 S   0  0  0  0  0  0  0  0  0  0  0  0
    7.5234   -4.8059   -2.7790 C   0  0  0  0  0  0  0  0  0  0  0  0
    5.1654   -2.9147   -3.2204 C   0  0  0  0  0  0  0  0  0  0  0  0
    3.9376   -2.3049   -3.3808 C   0  0  0  0  0  0  0  0  0  0  0  0
    0.5661    0.4392   -1.3022 C   0  0  0  0  0  0  0  0  0  0  0  0
    0.4894    2.0970   -1.8041 S   0  0  0  0  0  0  0  0  0  0  0  0
   -0.6638    2.4563   -0.5235 C   0  0  0  0  0  0  0  0  0  0  0  0
   -1.0197    1.3162    0.1869 C   0  0  0  0  0  0  0  0  0  0  0  0
   -1.9606    1.2744    1.2173 N   0  0  0  0  0  0  0  0  0  0  0  0
   -1.5769    0.6833    2.4237 C   0  0  0  0  0  0  0  0  0  0  0  0
   -2.5005    0.0667    3.2631 C   0  0  0  0  0  0  0  0  0  0  0  0
   -2.0913   -0.5521    4.4282 C   0  0  0  0  0  0  0  0  0  0  0  0
   -0.7458   -0.5878    4.7671 C   0  0  0  0  0  0  0  0  0  0  0  0
   -0.1106   -1.3995    6.2017 S   0  0  0  0  0  0  0  0  0  0  0  0
   -1.5588   -1.5221    7.2867 C   0  0  0  0  0  0  0  0  0  0  0  0
    0.1823    0.0224    3.9285 C   0  0  0  0  0  0  0  0  0  0  0  0
   -0.2277    0.6668    2.7844 C   0  0  0  0  0  0  0  0  0  0  0  0
   -3.2078    1.8666    1.0064 C   0  0  0  0  0  0  0  0  0  0  0  0
   -3.8751    2.5465    2.0279 C   0  0  0  0  0  0  0  0  0  0  0  0
   -5.0370    3.2354    1.7593 C   0  0  0  0  0  0  0  0  0  0  0  0
   -5.5708    3.2535    0.4734 C   0  0  0  0  0  0  0  0  0  0  0  0
   -6.9988    4.2629    0.2059 S   0  0  0  0  0  0  0  0  0  0  0  0
   -7.7389    3.5493   -1.2933 C   0  0  0  0  0  0  0  0  0  0  0  0
   -4.9413    2.5351   -0.5347 C   0  0  0  0  0  0  0  0  0  0  0  0
   -3.7717    1.8514   -0.2680 C   0  0  0  0  0  0  0  0  0  0  0  0
   -0.3080    0.1838   -0.2606 C   0  0  0  0  0  0  0  0  0  0  0  0
   -0.2146   -1.4485    0.2764 S   0  0  0  0  0  0  0  0  0  0  0  0
   -1.0859    3.7736   -0.1661 C   0  0  0  0  0  0  0  0  0  0  0  0
   -1.4195    4.8892   -0.9194 C   0  0  0  0  0  0  0  0  0  0  0  0
   -1.4750    4.9747   -2.3079 N   0  0  0  0  0  0  0  0  0  0  0  0
   -0.3483    4.7645   -3.1030 C   0  0  0  0  0  0  0  0  0  0  0  0
    0.9383    4.9307   -2.5899 C   0  0  0  0  0  0  0  0  0  0  0  0
    2.0378    4.7823   -3.4108 C   0  0  0  0  0  0  0  0  0  0  0  0
    1.8703    4.4805   -4.7549 C   0  0  0  0  0  0  0  0  0  0  0  0
    3.3078    4.3772   -5.7858 S   0  0  0  0  0  0  0  0  0  0  0  0
    2.7276    5.2651   -7.2689 C   0  0  0  0  0  0  0  0  0  0  0  0
    0.5946    4.2745   -5.2633 C   0  0  0  0  0  0  0  0  0  0  0  0
   -0.5034    4.4093   -4.4427 C   0  0  0  0  0  0  0  0  0  0  0  0
   -2.6072    5.6378   -2.8212 C   0  0  0  0  0  0  0  0  0  0  0  0
   -2.5156    6.5984   -3.8273 C   0  0  0  0  0  0  0  0  0  0  0  0
   -3.6321    7.3102   -4.2085 C   0  0  0  0  0  0  0  0  0  0  0  0
   -4.8579    7.1017   -3.5806 C   0  0  0  0  0  0  0  0  0  0  0  0
   -6.2152    8.1132   -4.0781 S   0  0  0  0  0  0  0  0  0  0  0  0
   -7.3043    8.0856   -2.6235 C   0  0  0  0  0  0  0  0  0  0  0  0
   -4.9627    6.1176   -2.6070 C   0  0  0  0  0  0  0  0  0  0  0  0
   -3.8510    5.3857   -2.2447 C   0  0  0  0  0  0  0  0  0  0  0  0
   -1.8904    5.9389   -0.0900 C   0  0  0  0  0  0  0  0  0  0  0  0
   -2.5452    7.4965   -0.4291 S   0  0  0  0  0  0  0  0  0  0  0  0
   -2.9694    7.7185    1.2748 C   0  0  0  0  0  0  0  0  0  0  0  0
   -2.6605    6.5716    2.0472 C   0  0  0  0  0  0  0  0  0  0  0  0
   -3.1587    6.2954    3.2859 N   0  0  0  0  0  0  0  0  0  0  0  0
   -2.5488    5.3394    4.1119 C   0  0  0  0  0  0  0  0  0  0  0  0
   -3.3400    4.4403    4.8292 C   0  0  0  0  0  0  0  0  0  0  0  0
   -2.7519    3.4841    5.6236 C   0  0  0  0  0  0  0  0  0  0  0  0
   -1.3631    3.4055    5.7266 C   0  0  0  0  0  0  0  0  0  0  0  0
   -0.7389    2.1406    6.7756 S   0  0  0  0  0  0  0  0  0  0  0  0
    1.0566    2.2196    6.5517 C   0  0  0  0  0  0  0  0  0  0  0  0
   -0.5749    4.3193    5.0382 C   0  0  0  0  0  0  0  0  0  0  0  0
   -1.1645    5.2798    4.2386 C   0  0  0  0  0  0  0  0  0  0  0  0
   -4.3834    6.8438    3.7059 C   0  0  0  0  0  0  0  0  0  0  0  0
   -5.4664    6.9246    2.8336 C   0  0  0  0  0  0  0  0  0  0  0  0
   -6.6444    7.5230    3.2283 C   0  0  0  0  0  0  0  0  0  0  0  0
   -6.7589    8.0617    4.5070 C   0  0  0  0  0  0  0  0  0  0  0  0
   -8.1648    8.9430    5.0864 S   0  0  0  0  0  0  0  0  0  0  0  0
   -9.2556    9.0419    3.6407 C   0  0  0  0  0  0  0  0  0  0  0  0
   -5.7023    7.9139    5.4059 C   0  0  0  0  0  0  0  0  0  0  0  0
   -4.5295    7.3068    5.0147 C   0  0  0  0  0  0  0  0  0  0  0  0
   -1.9587    5.6302    1.2605 C   0  0  0  0  0  0  0  0  0  0  0  0
   -1.2824    4.0720    1.5642 S   0  0  0  0  0  0  0  0  0  0  0  0
   -3.5894    8.9166    1.6024 C   0  0  0  0  0  0  0  0  0  0  0  0
   -3.7177    9.4660    2.8670 C   0  0  0  0  0  0  0  0  0  0  0  0
   -2.7929    9.2195    3.9755 C   0  0  0  0  0  0  0  0  0  0  0  0
   -1.8339    8.4700    3.9989 O   0  0  0  0  0  0  0  0  0  0  0  0
   -3.2051   10.1661    5.0434 C   0  0  0  0  0  0  0  0  0  0  0  0
   -2.6506   10.3526    6.2914 C   0  0  0  0  0  0  0  0  0  0  0  0
   -3.2308   11.3034    7.1186 C   0  0  0  0  0  0  0  0  0  0  0  0
   -2.7247   11.5094    8.3433 F   0  0  0  0  0  0  0  0  0  0  0  0
   -4.3327   12.0410    6.6933 C   0  0  0  0  0  0  0  0  0  0  0  0
   -4.8687   12.9550    7.5127 F   0  0  0  0  0  0  0  0  0  0  0  0
   -4.8905   11.8551    5.4354 C   0  0  0  0  0  0  0  0  0  0  0  0
   -4.3153   10.9084    4.6070 C   0  0  0  0  0  0  0  0  0  0  0  0
   -4.6693   10.4597    3.2611 C   0  0  0  0  0  0  0  0  0  0  0  0
   -5.8090   10.7961    2.5690 C   0  0  0  0  0  0  0  0  0  0  0  0
   -6.2072   10.1711    1.3722 C   0  0  0  0  0  0  0  0  0  0  0  0
   -6.6304    9.6672    0.4290 N   0  0  0  0  0  0  0  0  0  0  0  0
   -6.7622   11.7297    3.0160 C   0  0  0  0  0  0  0  0  0  0  0  0
   -7.5814   12.4733    3.3248 N   0  0  0  0  0  0  0  0  0  0  0  0
    4.3599   -8.5905    1.0765 H   0  0  0  0  0  0  0  0  0  0  0  0
   -0.5470  -12.1002   -0.7265 H   0  0  0  0  0  0  0  0  0  0  0  0
    3.3789  -13.9780    1.7035 H   0  0  0  0  0  0  0  0  0  0  0  0
    5.0410   -7.4289   -1.6833 H   0  0  0  0  0  0  0  0  0  0  0  0
    6.7386   -9.0444   -2.4046 H   0  0  0  0  0  0  0  0  0  0  0  0
    8.8475  -10.8064   -0.4182 H   0  0  0  0  0  0  0  0  0  0  0  0
    8.7973  -10.1881   -2.0720 H   0  0  0  0  0  0  0  0  0  0  0  0
    9.9289   -9.5046   -0.8950 H   0  0  0  0  0  0  0  0  0  0  0  0
    8.8077   -8.5288    1.2903 H   0  0  0  0  0  0  0  0  0  0  0  0
    7.1063   -6.9240    2.0258 H   0  0  0  0  0  0  0  0  0  0  0  0
    3.6609   -4.9295    2.5751 H   0  0  0  0  0  0  0  0  0  0  0  0
    4.3317   -2.8884    3.7571 H   0  0  0  0  0  0  0  0  0  0  0  0
    5.8459   -0.6194    3.2139 H   0  0  0  0  0  0  0  0  0  0  0  0
    7.5519   -1.0698    3.1039 H   0  0  0  0  0  0  0  0  0  0  0  0
    6.5821   -1.5773    4.4925 H   0  0  0  0  0  0  0  0  0  0  0  0
    7.9426   -2.7594    1.4831 H   0  0  0  0  0  0  0  0  0  0  0  0
    7.2757   -4.7891    0.3013 H   0  0  0  0  0  0  0  0  0  0  0  0
   -2.2004   -5.8510   -2.6015 H   0  0  0  0  0  0  0  0  0  0  0  0
   -3.5942   -7.6058   -1.6017 H   0  0  0  0  0  0  0  0  0  0  0  0
   -4.5039   -8.6909    0.3424 H   0  0  0  0  0  0  0  0  0  0  0  0
   -3.0497   -9.2768    1.1518 H   0  0  0  0  0  0  0  0  0  0  0  0
   -4.0874   -8.1060    1.9616 H   0  0  0  0  0  0  0  0  0  0  0  0
   -1.9714   -6.7187    2.2411 H   0  0  0  0  0  0  0  0  0  0  0  0
   -0.5941   -4.9410    1.2500 H   0  0  0  0  0  0  0  0  0  0  0  0
   -2.8319   -3.2213   -1.5861 H   0  0  0  0  0  0  0  0  0  0  0  0
   -3.6331   -1.9550   -3.5377 H   0  0  0  0  0  0  0  0  0  0  0  0
   -3.0727   -1.9754   -6.3273 H   0  0  0  0  0  0  0  0  0  0  0  0
   -2.7647   -0.4366   -5.5327 H   0  0  0  0  0  0  0  0  0  0  0  0
   -1.5071   -1.1833   -6.5296 H   0  0  0  0  0  0  0  0  0  0  0  0
    0.1650   -2.4373   -5.4148 H   0  0  0  0  0  0  0  0  0  0  0  0
    0.9705   -3.6960   -3.4662 H   0  0  0  0  0  0  0  0  0  0  0  0
    4.1398    0.2326   -4.3607 H   0  0  0  0  0  0  0  0  0  0  0  0
    3.7899    1.2585   -6.5225 H   0  0  0  0  0  0  0  0  0  0  0  0
    3.5742    2.5525   -8.3518 H   0  0  0  0  0  0  0  0  0  0  0  0
    3.2395    0.8655   -8.8578 H   0  0  0  0  0  0  0  0  0  0  0  0
    2.6628    2.2287   -9.8447 H   0  0  0  0  0  0  0  0  0  0  0  0
   -0.4392    1.1113   -5.9127 H   0  0  0  0  0  0  0  0  0  0  0  0
   -0.0927    0.0037   -3.7580 H   0  0  0  0  0  0  0  0  0  0  0  0
    4.0745   -0.0982   -0.8234 H   0  0  0  0  0  0  0  0  0  0  0  0
    6.2827   -1.1792   -0.5452 H   0  0  0  0  0  0  0  0  0  0  0  0
    7.5518   -4.6826   -3.8577 H   0  0  0  0  0  0  0  0  0  0  0  0
    8.3976   -5.3615   -2.4534 H   0  0  0  0  0  0  0  0  0  0  0  0
    6.6222   -5.3227   -2.4629 H   0  0  0  0  0  0  0  0  0  0  0  0
    5.4568   -3.6972   -3.9028 H   0  0  0  0  0  0  0  0  0  0  0  0
    3.2824   -2.6056   -4.1851 H   0  0  0  0  0  0  0  0  0  0  0  0
   -3.5457    0.0547    2.9932 H   0  0  0  0  0  0  0  0  0  0  0  0
   -2.8319   -1.0229    5.0545 H   0  0  0  0  0  0  0  0  0  0  0  0
   -2.2500   -2.2719    6.9126 H   0  0  0  0  0  0  0  0  0  0  0  0
   -2.0278   -0.5457    7.3614 H   0  0  0  0  0  0  0  0  0  0  0  0
   -1.1775   -1.8273    8.2561 H   0  0  0  0  0  0  0  0  0  0  0  0
    1.2295   -0.0154    4.1884 H   0  0  0  0  0  0  0  0  0  0  0  0
    0.4992    1.1642    2.1598 H   0  0  0  0  0  0  0  0  0  0  0  0
   -3.4578    2.5594    3.0228 H   0  0  0  0  0  0  0  0  0  0  0  0
   -5.5379    3.7844    2.5421 H   0  0  0  0  0  0  0  0  0  0  0  0
   -8.7217    4.0023   -1.3814 H   0  0  0  0  0  0  0  0  0  0  0  0
   -7.8356    2.4750   -1.1698 H   0  0  0  0  0  0  0  0  0  0  0  0
   -7.1426    3.7904   -2.1691 H   0  0  0  0  0  0  0  0  0  0  0  0
   -5.3459    2.5079   -1.5342 H   0  0  0  0  0  0  0  0  0  0  0  0
   -3.2791    1.3104   -1.0627 H   0  0  0  0  0  0  0  0  0  0  0  0
    1.0707    5.2039   -1.5534 H   0  0  0  0  0  0  0  0  0  0  0  0
    3.0332    4.9251   -3.0193 H   0  0  0  0  0  0  0  0  0  0  0  0
    2.0307    4.6532   -7.8332 H   0  0  0  0  0  0  0  0  0  0  0  0
    2.2612    6.1956   -6.9614 H   0  0  0  0  0  0  0  0  0  0  0  0
    3.6110    5.4705   -7.8651 H   0  0  0  0  0  0  0  0  0  0  0  0
    0.4514    4.0064   -6.2976 H   0  0  0  0  0  0  0  0  0  0  0  0
   -1.4946    4.2486   -4.8390 H   0  0  0  0  0  0  0  0  0  0  0  0
   -1.5609    6.8102   -4.2842 H   0  0  0  0  0  0  0  0  0  0  0  0
   -3.5578    8.0663   -4.9747 H   0  0  0  0  0  0  0  0  0  0  0  0
   -8.0401    8.8645   -2.7971 H   0  0  0  0  0  0  0  0  0  0  0  0
   -7.8046    7.1251   -2.5394 H   0  0  0  0  0  0  0  0  0  0  0  0
   -6.7320    8.3155   -1.7301 H   0  0  0  0  0  0  0  0  0  0  0  0
   -5.9009    5.9300   -2.1109 H   0  0  0  0  0  0  0  0  0  0  0  0
   -3.9348    4.6299   -1.4769 H   0  0  0  0  0  0  0  0  0  0  0  0
   -4.4156    4.4919    4.7525 H   0  0  0  0  0  0  0  0  0  0  0  0
   -3.3596    2.7804    6.1718 H   0  0  0  0  0  0  0  0  0  0  0  0
    1.2910    2.1443    5.4945 H   0  0  0  0  0  0  0  0  0  0  0  0
    1.4464    3.1363    6.9848 H   0  0  0  0  0  0  0  0  0  0  0  0
    1.4538    1.3587    7.0807 H   0  0  0  0  0  0  0  0  0  0  0  0
    0.4990    4.3035    5.1259 H   0  0  0  0  0  0  0  0  0  0  0  0
   -0.5575    6.0164    3.7362 H   0  0  0  0  0  0  0  0  0  0  0  0
   -5.3914    6.5165    1.8368 H   0  0  0  0  0  0  0  0  0  0  0  0
   -7.4618    7.5650    2.5279 H   0  0  0  0  0  0  0  0  0  0  0  0
   -8.7406    9.5218    2.8138 H   0  0  0  0  0  0  0  0  0  0  0  0
  -10.0928    9.6574    3.9547 H   0  0  0  0  0  0  0  0  0  0  0  0
   -9.6052    8.0503    3.3683 H   0  0  0  0  0  0  0  0  0  0  0  0
   -5.8100    8.2981    6.4084 H   0  0  0  0  0  0  0  0  0  0  0  0
   -3.7126    7.1986    5.7117 H   0  0  0  0  0  0  0  0  0  0  0  0
   -3.9717    9.4856    0.7630 H   0  0  0  0  0  0  0  0  0  0  0  0
   -1.7980    9.7817    6.6231 H   0  0  0  0  0  0  0  0  0  0  0  0
   -5.7418   12.4497    5.1469 H   0  0  0  0  0  0  0  0  0  0  0  0
  1  2  2  0  0  0  0
  2  3  1  0  0  0  0
  3  4  2  0  0  0  0
  3  5  1  0  0  0  0
  5  6  2  0  0  0  0
  6  7  1  0  0  0  0
  7  8  1  0  0  0  0
  7  9  2  0  0  0  0
  9 10  1  0  0  0  0
  9 11  1  0  0  0  0
 11 12  2  0  0  0  0
 12 13  1  0  0  0  0
 13 14  2  0  0  0  0
 14 15  1  0  0  0  0
 15 16  3  0  0  0  0
 14 17  1  0  0  0  0
 17 18  3  0  0  0  0
  1 19  1  0  0  0  0
 19 20  2  0  0  0  0
 20 21  1  0  0  0  0
 21 22  1  0  0  0  0
 22 23  2  0  0  0  0
 23 24  1  0  0  0  0
 24 25  2  0  0  0  0
 25 26  1  0  0  0  0
 25 27  1  0  0  0  0
 27 28  2  0  0  0  0
 21 29  1  0  0  0  0
 29 30  2  0  0  0  0
 30 31  1  0  0  0  0
 31 32  2  0  0  0  0
 32 33  1  0  0  0  0
 32 34  1  0  0  0  0
 34 35  2  0  0  0  0
 20 36  1  0  0  0  0
 36 37  1  0  0  0  0
 37 38  1  0  0  0  0
 38 39  2  0  0  0  0
 39 40  1  0  0  0  0
 40 41  1  0  0  0  0
 41 42  2  0  0  0  0
 42 43  1  0  0  0  0
 43 44  2  0  0  0  0
 44 45  1  0  0  0  0
 44 46  1  0  0  0  0
 46 47  2  0  0  0  0
 40 48  1  0  0  0  0
 48 49  2  0  0  0  0
 49 50  1  0  0  0  0
 50 51  2  0  0  0  0
 51 52  1  0  0  0  0
 51 53  1  0  0  0  0
 53 54  2  0  0  0  0
 39 55  1  0  0  0  0
 55 56  1  0  0  0  0
 38 57  1  0  0  0  0
 57 58  2  0  0  0  0
 58 59  1  0  0  0  0
 59 60  1  0  0  0  0
 60 61  2  0  0  0  0
 61 62  1  0  0  0  0
 62 63  2  0  0  0  0
 63 64  1  0  0  0  0
 64 65  1  0  0  0  0
 63 66  1  0  0  0  0
 66 67  2  0  0  0  0
 59 68  1  0  0  0  0
 68 69  2  0  0  0  0
 69 70  1  0  0  0  0
 70 71  2  0  0  0  0
 71 72  1  0  0  0  0
 72 73  1  0  0  0  0
 71 74  1  0  0  0  0
 74 75  2  0  0  0  0
 58 76  1  0  0  0  0
 76 77  1  0  0  0  0
 77 78  1  0  0  0  0
 78 79  2  0  0  0  0
 79 80  1  0  0  0  0
 80 81  1  0  0  0  0
 81 82  2  0  0  0  0
 82 83  1  0  0  0  0
 83 84  2  0  0  0  0
 84 85  1  0  0  0  0
 85 86  1  0  0  0  0
 84 87  1  0  0  0  0
 87 88  2  0  0  0  0
 80 89  1  0  0  0  0
 89 90  2  0  0  0  0
 90 91  1  0  0  0  0
 91 92  2  0  0  0  0
 92 93  1  0  0  0  0
 93 94  1  0  0  0  0
 92 95  1  0  0  0  0
 95 96  2  0  0  0  0
 79 97  1  0  0  0  0
 97 98  1  0  0  0  0
 78 99  1  0  0  0  0
 99100  2  0  0  0  0
100101  1  0  0  0  0
101102  1  0  0  0  0
102103  2  0  0  0  0
103104  1  0  0  0  0
104105  2  0  0  0  0
105106  1  0  0  0  0
106107  1  0  0  0  0
105108  1  0  0  0  0
108109  2  0  0  0  0
101110  1  0  0  0  0
110111  2  0  0  0  0
111112  1  0  0  0  0
112113  2  0  0  0  0
113114  1  0  0  0  0
114115  1  0  0  0  0
113116  1  0  0  0  0
116117  2  0  0  0  0
100118  1  0  0  0  0
118119  1  0  0  0  0
119120  1  0  0  0  0
120121  2  0  0  0  0
121122  1  0  0  0  0
122123  1  0  0  0  0
123124  2  0  0  0  0
124125  1  0  0  0  0
125126  2  0  0  0  0
126127  1  0  0  0  0
127128  1  0  0  0  0
126129  1  0  0  0  0
129130  2  0  0  0  0
122131  1  0  0  0  0
131132  2  0  0  0  0
132133  1  0  0  0  0
133134  2  0  0  0  0
134135  1  0  0  0  0
135136  1  0  0  0  0
134137  1  0  0  0  0
137138  2  0  0  0  0
121139  1  0  0  0  0
139140  1  0  0  0  0
120141  1  0  0  0  0
141142  2  0  0  0  0
142143  1  0  0  0  0
143144  2  0  0  0  0
143145  1  0  0  0  0
145146  2  0  0  0  0
146147  1  0  0  0  0
147148  1  0  0  0  0
147149  2  0  0  0  0
149150  1  0  0  0  0
149151  1  0  0  0  0
151152  2  0  0  0  0
152153  1  0  0  0  0
153154  2  0  0  0  0
154155  1  0  0  0  0
155156  3  0  0  0  0
154157  1  0  0  0  0
157158  3  0  0  0  0
 13  2  1  0  0  0  0
 56 19  1  0  0  0  0
 98 57  1  0  0  0  0
140 99  1  0  0  0  0
153142  1  0  0  0  0
 12  5  1  0  0  0  0
 28 22  1  0  0  0  0
 35 29  1  0  0  0  0
 55 36  2  0  0  0  0
 67 60  1  0  0  0  0
 75 68  1  0  0  0  0
 97 76  2  0  0  0  0
109102  1  0  0  0  0
117110  1  0  0  0  0
139118  2  0  0  0  0
152145  1  0  0  0  0
 47 41  1  0  0  0  0
 54 48  1  0  0  0  0
 88 81  1  0  0  0  0
 96 89  1  0  0  0  0
130123  1  0  0  0  0
138131  1  0  0  0  0
  1159  1  0  0  0  0
  6160  1  0  0  0  0
 11161  1  0  0  0  0
 23162  1  0  0  0  0
 24163  1  0  0  0  0
 26164  1  0  0  0  0
 26165  1  0  0  0  0
 26166  1  0  0  0  0
 27167  1  0  0  0  0
 28168  1  0  0  0  0
 30169  1  0  0  0  0
 31170  1  0  0  0  0
 33171  1  0  0  0  0
 33172  1  0  0  0  0
 33173  1  0  0  0  0
 34174  1  0  0  0  0
 35175  1  0  0  0  0
 42176  1  0  0  0  0
 43177  1  0  0  0  0
 45178  1  0  0  0  0
 45179  1  0  0  0  0
 45180  1  0  0  0  0
 46181  1  0  0  0  0
 47182  1  0  0  0  0
 49183  1  0  0  0  0
 50184  1  0  0  0  0
 52185  1  0  0  0  0
 52186  1  0  0  0  0
 52187  1  0  0  0  0
 53188  1  0  0  0  0
 54189  1  0  0  0  0
 61190  1  0  0  0  0
 62191  1  0  0  0  0
 65192  1  0  0  0  0
 65193  1  0  0  0  0
 65194  1  0  0  0  0
 66195  1  0  0  0  0
 67196  1  0  0  0  0
 69197  1  0  0  0  0
 70198  1  0  0  0  0
 73199  1  0  0  0  0
 73200  1  0  0  0  0
 73201  1  0  0  0  0
 74202  1  0  0  0  0
 75203  1  0  0  0  0
 82204  1  0  0  0  0
 83205  1  0  0  0  0
 86206  1  0  0  0  0
 86207  1  0  0  0  0
 86208  1  0  0  0  0
 87209  1  0  0  0  0
 88210  1  0  0  0  0
 90211  1  0  0  0  0
 91212  1  0  0  0  0
 94213  1  0  0  0  0
 94214  1  0  0  0  0
 94215  1  0  0  0  0
 95216  1  0  0  0  0
 96217  1  0  0  0  0
103218  1  0  0  0  0
104219  1  0  0  0  0
107220  1  0  0  0  0
107221  1  0  0  0  0
107222  1  0  0  0  0
108223  1  0  0  0  0
109224  1  0  0  0  0
111225  1  0  0  0  0
112226  1  0  0  0  0
115227  1  0  0  0  0
115228  1  0  0  0  0
115229  1  0  0  0  0
116230  1  0  0  0  0
117231  1  0  0  0  0
124232  1  0  0  0  0
125233  1  0  0  0  0
128234  1  0  0  0  0
128235  1  0  0  0  0
128236  1  0  0  0  0
129237  1  0  0  0  0
130238  1  0  0  0  0
132239  1  0  0  0  0
133240  1  0  0  0  0
136241  1  0  0  0  0
136242  1  0  0  0  0
136243  1  0  0  0  0
137244  1  0  0  0  0
138245  1  0  0  0  0
141246  1  0  0  0  0
146247  1  0  0  0  0
151248  1  0  0  0  0
M  END
