202

C         -6.02770       -0.13810       -7.93260
C         -7.03120        0.52950       -8.60070
C         -7.69720       -0.11280       -9.75020
O         -7.38750       -1.14330      -10.30580
C         -8.87700        0.74180      -10.03700
C         -9.88790        0.53790      -10.95280
C        -10.89780        1.48530      -11.01810
F        -11.91250        1.31510      -11.87910
C        -10.87230        2.61000      -10.19640
F        -11.86610        3.50630      -10.27700
C         -9.84910        2.82220       -9.28400
C         -8.85180        1.86680       -9.19690
C         -7.66220        1.78920       -8.34830
C         -7.12220        2.82720       -7.61870
C         -7.79990        4.02340       -7.32950
N         -8.33430        4.99230       -7.01940
C         -5.80090        2.80600       -7.14530
N         -4.71140        2.83640       -6.77940
C         -5.58530       -0.02970       -6.61240
C         -6.16810        0.51370       -5.44410
N         -7.44680        0.99190       -5.31120
C         -7.73610        1.85900       -4.22480
C         -8.78570        1.56710       -3.36070
C         -9.08470        2.42510       -2.32040
C         -8.34990        3.58580       -2.11530
C         -8.67900        4.52870       -1.00080
C         -7.29770        3.86360       -2.98090
C         -6.98770        3.01480       -4.02380
C         -8.54280        0.47530       -6.02050
C         -9.65130        1.29060       -6.25280
C        -10.74090        0.80730       -6.94810
C        -10.75520       -0.48810       -7.45120
C        -11.92320       -1.00200       -8.23180
C         -9.66030       -1.30470       -7.18990
C         -8.57380       -0.84070       -6.47640
C         -5.26960        0.42620       -4.35860
S         -5.36950        0.84510       -2.67710
C         -3.75710        0.21620       -2.40590
C         -3.20160       -0.35570       -3.54430
N         -2.01130       -1.06170       -3.57650
C         -1.16730       -0.94550       -4.68930
C         -0.41160       -2.03410       -5.11530
C          0.42230       -1.91370       -6.20930
C          0.51750       -0.71930       -6.91280
C          1.40470       -0.59600       -8.11340
C         -0.24750        0.35970       -6.48510
C         -1.07540        0.25750       -5.38560
C         -1.65920       -1.88420       -2.49360
C         -0.34720       -1.91670       -2.02450
C         -0.03090       -2.64250       -0.89440
C         -0.99930       -3.36510       -0.20770
C         -0.66050       -4.09250        1.05700
C         -2.29520       -3.36640       -0.70950
C         -2.62760       -2.63530       -1.83310
C         -4.06780       -0.20710       -4.65060
S         -3.99560       -0.73450       -6.28470
C         -3.14390        0.26080       -1.11730
S         -1.45660        0.68890       -0.98010
C         -1.45150        0.18720        0.66780
C         -0.32620        0.00060        1.49360
C         -0.49740       -0.67830        2.69530
O         -1.68770       -1.09190        3.16110
C         -2.91360       -0.65370        2.53480
C         -3.84190       -1.88700        2.54300
C         -4.00140       -2.53060        3.91560
C         -3.50640        0.49730        3.37690
C         -2.65490        1.76140        3.36310
C         -2.70530       -0.19570        1.11180
C         -3.66490       -0.12760        0.09520
C          0.71330       -0.94420        3.33870
C          1.81170       -0.46740        2.64270
S          1.33560        0.32100        1.16080
C          3.15030       -0.48290        3.09530
C          4.30860       -0.00350        2.48140
N          4.42860        0.43020        1.17300
C          3.98950       -0.35860        0.09620
C          3.70880        0.25740       -1.12160
C          3.33350       -0.49800       -2.21420
C          3.23040       -1.88110       -2.12860
C          2.87130       -2.70990       -3.32340
C          3.49400       -2.48540       -0.90370
C          3.86610       -1.74140        0.19870
C          5.45410        1.37330        0.92910
C          6.47930        1.10730        0.02710
C          7.52120        2.00200       -0.11960
C          7.56790        3.17530        0.62280
C          8.71500        4.12890        0.49140
C          6.52170        3.44830        1.49770
C          5.47410        2.56260        1.65270
C          5.39610       -0.03420        3.38080
S          7.04440        0.44170        3.23010
C          7.39350       -0.15820        4.85290
C          6.25180       -0.73360        5.45380
N          6.24640       -1.35800        6.66480
C          5.05720       -1.40420        7.41640
C          4.27650       -0.25940        7.55780
C          3.11250       -0.30370        8.29770
C          2.70210       -1.47760        8.91940
C          1.42580       -1.51730        9.70090
C          3.49590       -2.61040        8.78320
C          4.66030       -2.58180        8.04170
C          7.37570       -2.05900        7.14260
C          7.69780       -2.00610        8.49470
C          8.79370       -2.69930        8.97000
C          9.58940       -3.45440        8.11670
C         10.79660       -4.17300        8.63340
C          9.24940       -3.50740        6.76930
C          8.15310       -2.82640        6.28040
C          5.12450       -0.60770        4.61480
S          3.46190       -1.08490        4.72320
C          8.60460        0.13310        5.48320
C          9.72110        0.71660        4.93110
C         10.63890        1.50020        5.77800
O         10.70370        1.51160        6.98810
C         11.42780        2.32430        4.82450
C         12.34800        3.31550        5.09310
C         12.92820        3.98580        4.02120
Cl        14.07740        5.23950        4.29180
C         12.57150        3.63830        2.71830
F         13.12220        4.30100        1.69110
C         11.66090        2.63010        2.43870
C         11.08280        1.96910        3.50800
C         10.13050        0.86190        3.56010
C          9.90020       -0.03570        2.54300
C          9.28310       -1.28170        2.76960
N          8.84730       -2.32960        2.94910
C         10.31780        0.15980        1.21600
N         10.60940        0.29960        0.11360
H         -5.54460       -0.91710       -8.51560
H         -9.90000       -0.32600      -11.59780
H         -9.87080        3.70550       -8.66660
H         -9.36340        0.66610       -3.50720
H         -9.90190        2.18410       -1.65640
H         -9.07730        5.45890       -1.40500
H         -7.78440        4.77160       -0.43030
H         -9.41890        4.09950       -0.33040
H         -6.71520        4.76170       -2.84110
H         -6.16580        3.24710       -4.68260
H         -9.64950        2.30910       -5.89300
H        -11.58770        1.45580       -7.11720
H        -12.58950       -1.56810       -7.58020
H        -11.59100       -1.66550       -9.02700
H        -12.49170       -0.18340       -8.66600
H         -9.65720       -2.32280       -7.54960
H         -7.74840       -1.50400       -6.26810
H         -0.48380       -2.97270       -4.58630
H          1.00270       -2.76830       -6.52710
H          0.80980       -0.66060       -9.02470
H          2.14580       -1.39140       -8.13430
H          1.91660        0.36420       -8.11810
H         -0.18880        1.29820       -7.01630
H         -1.64690        1.11330       -5.05810
H          0.41320       -1.33740       -2.52480
H          0.98450       -2.62380       -0.52680
H          0.38990       -4.37310        1.07340
H         -0.84750       -3.44830        1.91750
H         -1.26960       -4.98700        1.16840
H         -3.06070       -3.94620       -0.21320
H         -3.64420       -2.63650       -2.19870
H         -3.41450       -2.61670        1.85240
H         -4.81900       -1.59090        2.16180
H         -3.02720       -2.72630        4.35410
H         -4.56620       -1.89070        4.58800
H         -4.53490       -3.47290        3.81680
H         -4.50150        0.72140        2.98890
H         -3.60290        0.14740        4.40490
H         -3.12070        2.52500        3.98140
H         -2.55280        2.15350        2.35350
H         -1.66190        1.56130        3.75940
H         -4.69720       -0.40570        0.20350
H          0.79230       -1.46560        4.27500
H          3.79560        1.33030       -1.20160
H          3.12120       -0.00450       -3.15170
H          2.13710       -3.46920       -3.06030
H          3.75820       -3.21940       -3.70140
H          2.46670       -2.09150       -4.12110
H          3.42680       -3.56090       -0.81750
H          4.08530       -2.23430        1.13490
H          6.47090        0.18590       -0.53600
H          8.32460        1.76740       -0.80180
H          9.13770        4.35460        1.46980
H          8.37970        5.06730        0.05040
H          9.49420        3.71130       -0.14040
H          6.53460        4.36320        2.07250
H          4.67260        2.77420        2.34600
H          4.59490        0.66380        7.09600
H          2.51590        0.59080        8.40170
H          0.57840       -1.61970        9.02240
H          1.29020       -0.59810       10.26660
H          1.41470       -2.36000       10.38740
H          3.19630       -3.53180        9.26060
H          5.26580       -3.46980        7.93840
H          7.09150       -1.41510        9.16540
H          9.03910       -2.64540       10.02050
H         11.04070       -5.02530        8.00420
H         11.65350       -3.49860        8.63620
H         10.63790       -4.51700        9.65290
H          9.84650       -4.09580        6.08870
H          7.90800       -2.88310        5.23070
H          8.63100        0.02250        6.56170
H         12.60880        3.56490        6.10920
H         11.42450        2.40060        1.41260
