248

C          3.36510       -8.62830        0.65070
C          2.75660       -9.86900        0.67410
C          1.48130      -10.21750        0.05300
O          0.68810       -9.48530       -0.51150
C          1.33580      -11.68140        0.22230
C          0.30660      -12.49700       -0.20060
C          0.40690      -13.85210        0.07420
F         -0.57020      -14.68230       -0.31770
C          1.51310      -14.35850        0.75360
F          1.58600      -15.67250        1.00320
C          2.54620      -13.53640        1.18140
C          2.45330      -12.18110        0.91060
C          3.34110      -11.06150        1.23380
C          4.49560      -11.16280        1.97360
C          5.28390      -10.08380        2.41550
N          5.96500       -9.26430        2.84810
C          5.03580      -12.38130        2.43090
N          5.53900      -13.33840        2.81820
C          2.91130       -7.40630        0.17130
C          3.68410       -6.21390        0.24390
N          4.99490       -6.13030        0.63130
C          5.95650       -7.07100        0.22370
C          5.86710       -7.67270       -1.02990
C          6.82370       -8.58410       -1.43070
C          7.89540       -8.90820       -0.60710
C          8.92670       -9.90770       -1.02970
C          7.98570       -8.28740        0.63380
C          7.03110       -7.38340        1.05350
C          5.40930       -4.98070        1.33430
C          4.59260       -4.44270        2.32690
C          4.97560       -3.29700        2.99190
C          6.17890       -2.66360        2.69650
C          6.56810       -1.40970        3.41650
C          6.99920       -3.22520        1.72750
C          6.62600       -4.37120        1.05330
C          2.91090       -5.09760       -0.10890
S          3.25480       -3.40540       -0.25600
C          1.61430       -3.10680       -0.81160
C          0.86390       -4.26960       -0.88640
N         -0.45140       -4.31610       -1.30820
C         -1.29330       -5.29030       -0.74430
C         -2.15630       -6.03780       -1.53860
C         -2.93730       -7.02460       -0.97090
C         -2.87610       -7.29640        0.38990
C         -3.68350       -8.40300        0.99530
C         -2.02490       -6.53130        1.17820
C         -1.24570       -5.53560        0.62550
C         -0.88100       -3.55230       -2.40030
C         -2.17850       -3.04600       -2.42810
C         -2.62260       -2.33860       -3.52640
C         -1.79570       -2.11540       -4.62270
C         -2.30920       -1.38210       -5.82380
C         -0.49620       -2.60370       -4.57650
C         -0.03820       -3.30930       -3.48130
C          1.61200       -5.40410       -0.49250
S          1.27830       -7.09670       -0.43580
C          1.06270       -1.78010       -0.89860
C          1.36120       -0.67680       -1.67790
N          2.29090       -0.65070       -2.70190
C          2.05340        0.01750       -3.90280
C          3.13000        0.39920       -4.70300
C          2.92950        0.98390       -5.93570
C          1.64070        1.22420       -6.38670
S          1.27260        1.92880       -7.96800
C          2.86650        1.88510       -8.83510
C          0.56210        0.90040       -5.57080
C          0.76070        0.29390       -4.34970
C          3.53580       -1.29200       -2.51750
C          4.38640       -0.88670       -1.49160
C          5.61690       -1.48890       -1.33510
C          6.01210       -2.50930       -2.19590
S          7.62050       -3.19110       -1.94960
C          7.52340       -4.80590       -2.77900
C          5.16540       -2.91470       -3.22040
C          3.93760       -2.30490       -3.38080
C          0.56610        0.43920       -1.30220
S          0.48940        2.09700       -1.80410
C         -0.66380        2.45630       -0.52350
C         -1.01970        1.31620        0.18690
N         -1.96060        1.27440        1.21730
C         -1.57690        0.68330        2.42370
C         -2.50050        0.06670        3.26310
C         -2.09130       -0.55210        4.42820
C         -0.74580       -0.58780        4.76710
S         -0.11060       -1.39950        6.20170
C         -1.55880       -1.52210        7.28670
C          0.18230        0.02240        3.92850
C         -0.22770        0.66680        2.78440
C         -3.20780        1.86660        1.00640
C         -3.87510        2.54650        2.02790
C         -5.03700        3.23540        1.75930
C         -5.57080        3.25350        0.47340
S         -6.99880        4.26290        0.20590
C         -7.73890        3.54930       -1.29330
C         -4.94130        2.53510       -0.53470
C         -3.77170        1.85140       -0.26800
C         -0.30800        0.18380       -0.26060
S         -0.21460       -1.44850        0.27640
C         -1.08590        3.77360       -0.16610
C         -1.41950        4.88920       -0.91940
N         -1.47500        4.97470       -2.30790
C         -0.34830        4.76450       -3.10300
C          0.93830        4.93070       -2.58990
C          2.03780        4.78230       -3.41080
C          1.87030        4.48050       -4.75490
S          3.30780        4.37720       -5.78580
C          2.72760        5.26510       -7.26890
C          0.59460        4.27450       -5.26330
C         -0.50340        4.40930       -4.44270
C         -2.60720        5.63780       -2.82120
C         -2.51560        6.59840       -3.82730
C         -3.63210        7.31020       -4.20850
C         -4.85790        7.10170       -3.58060
S         -6.21520        8.11320       -4.07810
C         -7.30430        8.08560       -2.62350
C         -4.96270        6.11760       -2.60700
C         -3.85100        5.38570       -2.24470
C         -1.89040        5.93890       -0.09000
S         -2.54520        7.49650       -0.42910
C         -2.96940        7.71850        1.27480
C         -2.66050        6.57160        2.04720
N         -3.15870        6.29540        3.28590
C         -2.54880        5.33940        4.11190
C         -3.34000        4.44030        4.82920
C         -2.75190        3.48410        5.62360
C         -1.36310        3.40550        5.72660
S         -0.73890        2.14060        6.77560
C          1.05660        2.21960        6.55170
C         -0.57490        4.31930        5.03820
C         -1.16450        5.27980        4.23860
C         -4.38340        6.84380        3.70590
C         -5.46640        6.92460        2.83360
C         -6.64440        7.52300        3.22830
C         -6.75890        8.06170        4.50700
S         -8.16480        8.94300        5.08640
C         -9.25560        9.04190        3.64070
C         -5.70230        7.91390        5.40590
C         -4.52950        7.30680        5.01470
C         -1.95870        5.63020        1.26050
S         -1.28240        4.07200        1.56420
C         -3.58940        8.91660        1.60240
C         -3.71770        9.46600        2.86700
C         -2.79290        9.21950        3.97550
O         -1.83390        8.47000        3.99890
C         -3.20510       10.16610        5.04340
C         -2.65060       10.35260        6.29140
C         -3.23080       11.30340        7.11860
F         -2.72470       11.50940        8.34330
C         -4.33270       12.04100        6.69330
F         -4.86870       12.95500        7.51270
C         -4.89050       11.85510        5.43540
C         -4.31530       10.90840        4.60700
C         -4.66930       10.45970        3.26110
C         -5.80900       10.79610        2.56900
C         -6.20720       10.17110        1.37220
N         -6.63040        9.66720        0.42900
C         -6.76220       11.72970        3.01600
N         -7.58140       12.47330        3.32480
H          4.35990       -8.59050        1.07650
H         -0.54700      -12.10020       -0.72650
H          3.37890      -13.97800        1.70350
H          5.04100       -7.42890       -1.68330
H          6.73860       -9.04440       -2.40460
H          8.84750      -10.80640       -0.41820
H          8.79730      -10.18810       -2.07200
H          9.92890       -9.50460       -0.89500
H          8.80770       -8.52880        1.29030
H          7.10630       -6.92400        2.02580
H          3.66090       -4.92950        2.57510
H          4.33170       -2.88840        3.75710
H          5.84590       -0.61940        3.21390
H          7.55190       -1.06980        3.10390
H          6.58210       -1.57730        4.49250
H          7.94260       -2.75940        1.48310
H          7.27570       -4.78910        0.30130
H         -2.20040       -5.85100       -2.60150
H         -3.59420       -7.60580       -1.60170
H         -4.50390       -8.69090        0.34240
H         -3.04970       -9.27680        1.15180
H         -4.08740       -8.10600        1.96160
H         -1.97140       -6.71870        2.24110
H         -0.59410       -4.94100        1.25000
H         -2.83190       -3.22130       -1.58610
H         -3.63310       -1.95500       -3.53770
H         -3.07270       -1.97540       -6.32730
H         -2.76470       -0.43660       -5.53270
H         -1.50710       -1.18330       -6.52960
H          0.16500       -2.43730       -5.41480
H          0.97050       -3.69600       -3.46620
H          4.13980        0.23260       -4.36070
H          3.78990        1.25850       -6.52250
H          3.57420        2.55250       -8.35180
H          3.23950        0.86550       -8.85780
H          2.66280        2.22870       -9.84470
H         -0.43920        1.11130       -5.91270
H         -0.09270        0.00370       -3.75800
H          4.07450       -0.09820       -0.82340
H          6.28270       -1.17920       -0.54520
H          7.55180       -4.68260       -3.85770
H          8.39760       -5.36150       -2.45340
H          6.62220       -5.32270       -2.46290
H          5.45680       -3.69720       -3.90280
H          3.28240       -2.60560       -4.18510
H         -3.54570        0.05470        2.99320
H         -2.83190       -1.02290        5.05450
H         -2.25000       -2.27190        6.91260
H         -2.02780       -0.54570        7.36140
H         -1.17750       -1.82730        8.25610
H          1.22950       -0.01540        4.18840
H          0.49920        1.16420        2.15980
H         -3.45780        2.55940        3.02280
H         -5.53790        3.78440        2.54210
H         -8.72170        4.00230       -1.38140
H         -7.83560        2.47500       -1.16980
H         -7.14260        3.79040       -2.16910
H         -5.34590        2.50790       -1.53420
H         -3.27910        1.31040       -1.06270
H          1.07070        5.20390       -1.55340
H          3.03320        4.92510       -3.01930
H          2.03070        4.65320       -7.83320
H          2.26120        6.19560       -6.96140
H          3.61100        5.47050       -7.86510
H          0.45140        4.00640       -6.29760
H         -1.49460        4.24860       -4.83900
H         -1.56090        6.81020       -4.28420
H         -3.55780        8.06630       -4.97470
H         -8.04010        8.86450       -2.79710
H         -7.80460        7.12510       -2.53940
H         -6.73200        8.31550       -1.73010
H         -5.90090        5.93000       -2.11090
H         -3.93480        4.62990       -1.47690
H         -4.41560        4.49190        4.75250
H         -3.35960        2.78040        6.17180
H          1.29100        2.14430        5.49450
H          1.44640        3.13630        6.98480
H          1.45380        1.35870        7.08070
H          0.49900        4.30350        5.12590
H         -0.55750        6.01640        3.73620
H         -5.39140        6.51650        1.83680
H         -7.46180        7.56500        2.52790
H         -8.74060        9.52180        2.81380
H        -10.09280        9.65740        3.95470
H         -9.60520        8.05030        3.36830
H         -5.81000        8.29810        6.40840
H         -3.71260        7.19860        5.71170
H         -3.97170        9.48560        0.76300
H         -1.79800        9.78170        6.62310
H         -5.74180       12.44970        5.14690
