244

C          6.34830       -6.20210        1.62430
C          6.68600       -7.26930        2.43500
C          6.03190       -7.65130        3.68400
O          5.02250       -7.18950        4.18570
C          6.86510       -8.73250        4.26040
C          6.68060       -9.42450        5.43930
C          7.60970      -10.40050        5.76480
F          7.46880      -11.09650        6.90220
C          8.68650      -10.66430        4.92100
F          9.57010      -11.61250        5.25960
C          8.86960       -9.97000        3.73330
C          7.94650       -8.99170        3.40270
C          7.84120       -8.10780        2.23930
C          8.69850       -8.11870        1.16400
C          9.85990       -8.91250        1.08830
N         10.83100       -9.51450        0.97000
C          8.54060       -7.37470       -0.02030
N          8.47510       -6.83360       -1.03310
C          5.28970       -5.30720        1.69740
C          5.13450       -4.20960        0.80580
N          6.09040       -3.74080       -0.04810
C          7.46870       -3.79310        0.25070
C          8.38930       -3.98910       -0.77510
C          9.74040       -4.02200       -0.49170
C         10.20630       -3.87130        0.80900
C         11.67180       -3.95280        1.10330
C          9.27820       -3.65930        1.82260
C          7.92530       -3.61200        1.55390
C          5.69820       -3.02160       -1.19680
C          6.32600       -1.82220       -1.52210
C          5.93530       -1.11880       -2.64220
C          4.91450       -1.58510       -3.46430
C          4.51480       -0.81480       -4.68300
C          4.30200       -2.78860       -3.13940
C          4.68810       -3.50580       -2.02300
C          3.86490       -3.62710        0.95890
S          3.03320       -2.34840        0.14750
C          1.68170       -2.49940        1.26560
C          1.84280       -3.53740        2.16820
N          0.90710       -3.95140        3.09190
C         -0.46720       -3.75930        2.88940
C         -1.28840       -3.46410        3.97530
C         -2.63550       -3.23130        3.78460
C         -3.20050       -3.26100        2.51340
C         -4.64290       -2.90630        2.31490
C         -2.38560       -3.60810        1.44420
C         -1.04220       -3.87610        1.62700
C          1.31760       -4.70460        4.21270
C          2.40920       -4.30560        4.97760
C          2.81870       -5.06990        6.05170
C          2.15490       -6.24140        6.39270
C          2.64470       -7.08230        7.52990
C          1.05180       -6.61890        5.63780
C          0.63340       -5.86490        4.55920
C          3.10430       -4.16950        1.98810
S          3.91420       -5.46340        2.79510
C          0.57810       -1.59990        1.05420
C          0.11130       -0.57280        1.85250
N          0.66270       -0.22070        3.07430
C          2.05070       -0.34150        3.24610
C          2.91770        0.03270        2.22380
C          4.28070       -0.15300        2.34430
C          4.80350       -0.70040        3.50660
S          6.51770       -1.04850        3.74960
C          7.32050       -0.29870        2.30560
C          3.94550       -1.02310        4.55660
C          2.58430       -0.85070        4.42920
C         -0.14850        0.25370        4.10710
C          0.34570        1.16990        5.03690
C         -0.44450        1.59430        6.08250
C         -1.74270        1.11460        6.22430
S         -2.69070        1.68240        7.60820
C         -3.72050        0.22780        7.98370
C         -2.25230        0.23560        5.28030
C         -1.46510       -0.18390        4.22890
C         -0.93830        0.13330        1.21210
S         -1.90130        1.51600        1.61850
C         -2.65850        1.48060        0.02720
C         -2.24610        0.38240       -0.72250
N         -2.77420        0.03140       -1.95840
C         -4.16250       -0.09200       -2.10340
C         -4.75870        0.13700       -3.34160
C         -6.12730        0.04100       -3.49500
C         -6.92850       -0.28330       -2.40790
S         -8.68600       -0.43600       -2.47270
C         -9.09910       -0.04890       -4.19650
C         -6.33500       -0.51370       -1.16800
C         -4.97010       -0.42090       -1.01450
C         -1.89950       -0.47930       -2.92340
C         -0.64160        0.10190       -3.09140
C          0.25290       -0.42300       -3.99580
C         -0.09110       -1.53270       -4.76490
S          1.13050       -2.12620       -5.89470
C          0.27930       -3.42510       -6.83090
C         -1.34620       -2.10530       -4.61320
C         -2.23910       -1.58460       -3.69750
C         -1.24040       -0.34330       -0.05380
S         -0.22230       -1.65350       -0.51350
C         -3.36620        2.59460       -0.48060
C         -3.80590        3.73100        0.19760
N         -3.90930        3.85210        1.57190
C         -3.62630        5.12400        2.11290
C         -4.51180        5.76070        2.97690
C         -4.21680        7.01830        3.46220
C         -3.04730        7.67580        3.09590
C         -2.75880        9.05400        3.60550
C         -2.17200        7.03350        2.23010
C         -2.45130        5.77120        1.74430
C         -4.51700        2.86510        2.35320
C         -5.37080        1.91580        1.79460
C         -5.97570        0.96620        2.59410
C         -5.77790        0.94720        3.96840
C         -6.44810       -0.08020        4.83140
C         -4.93020        1.90200        4.51910
C         -4.28900        2.83190        3.72860
C         -4.13940        4.76050       -0.70820
S         -4.71020        6.37720       -0.51870
C         -4.69270        6.61500       -2.27740
C         -4.38610        5.41410       -2.96610
N         -4.52930        5.18100       -4.29980
C         -5.35910        5.95120       -5.12990
C         -6.61520        6.38250       -4.70590
C         -7.38800        7.17540       -5.52730
C         -6.93990        7.56190       -6.78920
C         -7.76850        8.47090       -7.64040
C         -5.71020        7.08590       -7.22290
C         -4.92690        6.28670       -6.41090
C         -3.85250        4.09400       -4.89960
C         -2.48530        3.91750       -4.71860
C         -1.84440        2.84790       -5.31560
C         -2.54210        1.94550       -6.10740
C         -1.85360        0.79150       -6.76780
C         -3.90740        2.14280       -6.29320
C         -4.56160        3.20250       -5.69840
C         -4.01920        4.40950       -2.04830
S         -3.49600        2.77060       -2.22580
C         -4.95550        7.89680       -2.74310
C         -4.56720        8.40720       -3.97270
C         -3.39390        7.93520       -4.71240
O         -2.62790        7.03800       -4.41110
C         -3.25170        8.86560       -5.86010
C         -2.30210        8.85990       -6.85810
C         -2.38280        9.83280       -7.84910
Cl        -1.23530        9.87010       -9.13360
C         -3.40350       10.77990       -7.79860
F         -3.47330       11.71680       -8.75590
C         -4.35900       10.79450       -6.79200
C         -4.27990        9.82090       -5.81250
C         -5.12300        9.53830       -4.65130
C         -6.32240       10.14690       -4.36330
C         -7.17660        9.74190       -3.31990
N         -7.93550        9.44220       -2.51090
C         -6.87920       11.18710       -5.12750
N         -7.38800       12.02560       -5.72660
H          7.02020       -6.02320        0.79510
H          5.84400       -9.22070        6.08800
H          9.71800      -10.21350        3.11530
H          8.04140       -4.12620       -1.78680
H         10.44360       -4.18680       -1.29370
H         12.24030       -3.34970        0.39800
H         12.01320       -4.98370        1.00700
H         11.88790       -3.61330        2.11320
H          9.61610       -3.52070        2.83950
H          7.22180       -3.44080        2.35490
H          7.12250       -1.44740       -0.89520
H          6.42780       -0.18730       -2.88170
H          5.25000       -0.96310       -5.47410
H          3.54810       -1.14510       -5.05290
H          4.47110        0.25100       -4.46740
H          3.51340       -3.16960       -3.77090
H          4.21640       -4.44870       -1.78880
H         -0.85930       -3.40470        4.96460
H         -3.25690       -2.99620        4.63700
H         -4.78950       -1.83670        2.47600
H         -4.96940       -3.14960        1.30660
H         -5.27290       -3.43870        3.02550
H         -2.80560       -3.67540        0.45050
H         -0.43380       -4.18220        0.78920
H          2.93540       -3.40000        4.71910
H          3.67510       -4.75580        6.62980
H          2.84280       -6.47010        8.40790
H          1.92190       -7.85120        7.79080
H          3.57760       -7.56700        7.24390
H          0.51910       -7.52570        5.88590
H         -0.21840       -6.17680        3.97220
H          2.51900        0.45930        1.31520
H          4.91560        0.12650        1.51940
H          6.99090       -0.79360        1.39690
H          7.10650        0.76580        2.27740
H          8.38490       -0.46160        2.44350
H          4.36220       -1.42550        5.46770
H          1.92310       -1.12000        5.23930
H          1.35500        1.54060        4.93920
H         -0.06030        2.29920        6.80360
H         -3.10240       -0.66380        7.94830
H         -4.09850        0.38100        8.98960
H         -4.55110        0.15280        7.28830
H         -3.26120       -0.13410        5.35540
H         -1.86760       -0.87730        3.50870
H         -4.14180        0.41160       -4.18360
H         -6.55370        0.23300       -4.46610
H         -8.63580       -0.77150       -4.86220
H        -10.17980       -0.12910       -4.26180
H         -8.78990        0.96480       -4.43420
H         -6.96220       -0.77380       -0.32930
H         -4.52220       -0.60730       -0.04980
H         -0.37610        0.96820       -2.50470
H          1.22930        0.02010       -4.11800
H          0.99060       -3.75810       -7.58030
H          0.02240       -4.25230       -6.17530
H         -0.60150       -3.01350       -7.31510
H         -1.63870       -2.96920       -5.18830
H         -3.20450       -2.05130       -3.57050
H         -5.43150        5.26920        3.25710
H         -4.91300        7.50520        4.12930
H         -1.70110        9.28920        3.51660
H         -3.05650        9.15130        4.64730
H         -3.32040        9.78850        3.02750
H         -1.25690        7.52500        1.93300
H         -1.76140        5.27720        1.07530
H         -5.57740        1.92670        0.73440
H         -6.63760        0.24250        2.13930
H         -5.76500       -0.90500        5.04440
H         -6.75810        0.35500        5.77980
H         -7.32320       -0.49270        4.33480
H         -4.76930        1.93140        5.58610
H         -3.61480        3.54490        4.17770
H         -6.98090        6.10130       -3.72970
H         -8.35470        7.51080       -5.18110
H         -8.77800        8.07860       -7.75040
H         -7.84790        9.45450       -7.17700
H         -7.32780        8.59120       -8.62640
H         -5.34820        7.35530       -8.20440
H         -3.96810        5.93100       -6.75710
H         -1.93730        4.64060       -4.13520
H         -0.78240        2.71700       -5.17110
H         -2.30830       -0.14910       -6.45810
H         -0.79930        0.76570       -6.50670
H         -1.94460        0.86660       -7.85100
H         -4.46340        1.45390       -6.91340
H         -5.62190        3.34770       -5.84710
H         -5.46090        8.55780       -2.04920
H         -1.52080        8.11690       -6.87360
H         -5.11940       11.55820       -6.80480
