
  xtb     02102219293D
 energy: -316.135498984737 gnorm: 0.000880220063 xtb: 6.4.1 (unknown)
169186  0     0  0            999 V2000
    2.3521   -7.3182    7.2354 C   0  0  0  0  0  0  0  0  0  0  0  0
    2.9906   -7.0711    8.4112 C   0  0  0  0  0  0  0  0  0  0  0  0
    3.4203   -8.1957    9.2822 C   0  0  0  0  0  0  0  0  0  0  0  0
    3.0457   -9.3429    9.2376 O   0  0  0  0  0  0  0  0  0  0  0  0
    4.4582   -7.6117   10.1656 C   0  0  0  0  0  0  0  0  0  0  0  0
    5.2704   -8.2526   11.0806 C   0  0  0  0  0  0  0  0  0  0  0  0
    6.1962   -7.4850   11.7691 C   0  0  0  0  0  0  0  0  0  0  0  0
    7.0060   -8.0670   12.6618 F   0  0  0  0  0  0  0  0  0  0  0  0
    6.2970   -6.1117   11.5402 C   0  0  0  0  0  0  0  0  0  0  0  0
    7.2104   -5.4006   12.2103 F   0  0  0  0  0  0  0  0  0  0  0  0
    5.4741   -5.4635   10.6316 C   0  0  0  0  0  0  0  0  0  0  0  0
    4.5469   -6.2255    9.9396 C   0  0  0  0  0  0  0  0  0  0  0  0
    3.5239   -5.8444    8.9697 C   0  0  0  0  0  0  0  0  0  0  0  0
    2.9866   -4.5935    8.8254 C   0  0  0  0  0  0  0  0  0  0  0  0
    1.7639   -4.3602    8.1565 C   0  0  0  0  0  0  0  0  0  0  0  0
    0.7349   -4.1548    7.6924 N   0  0  0  0  0  0  0  0  0  0  0  0
    3.5508   -3.4264    9.3747 C   0  0  0  0  0  0  0  0  0  0  0  0
    4.0052   -2.4453    9.7602 N   0  0  0  0  0  0  0  0  0  0  0  0
    2.2406   -6.4671    6.1072 C   0  0  0  0  0  0  0  0  0  0  0  0
    1.3469   -6.5997    5.0732 C   0  0  0  0  0  0  0  0  0  0  0  0
    1.4660   -5.5989    4.0877 C   0  0  0  0  0  0  0  0  0  0  0  0
    0.6873   -5.4135    2.9265 C   0  0  0  0  0  0  0  0  0  0  0  0
   -0.3842   -6.3316    2.5788 C   0  0  0  0  0  0  0  0  0  0  0  0
   -0.0958   -8.0427    2.4441 S   0  0  0  0  0  0  0  0  0  0  0  0
   -1.7421   -8.3696    2.0266 C   0  0  0  0  0  0  0  0  0  0  0  0
   -2.2051   -9.7487    1.7104 C   0  0  0  0  0  0  0  0  0  0  0  0
   -2.1183  -10.0245    0.2071 C   0  0  0  0  0  0  0  0  0  0  0  0
   -2.4604   -7.2116    1.9907 C   0  0  0  0  0  0  0  0  0  0  0  0
   -4.1325   -7.1438    1.6209 Cl  0  0  0  0  0  0  0  0  0  0  0  0
   -1.6957   -6.0566    2.3043 C   0  0  0  0  0  0  0  0  0  0  0  0
   -2.3927   -4.4996    2.4165 Cl  0  0  0  0  0  0  0  0  0  0  0  0
    0.9884   -4.3109    2.1430 C   0  0  0  0  0  0  0  0  0  0  0  0
    1.9991   -3.3660    2.4664 C   0  0  0  0  0  0  0  0  0  0  0  0
    2.7877   -3.5573    3.6195 C   0  0  0  0  0  0  0  0  0  0  0  0
    3.8347   -2.6306    3.9963 C   0  0  0  0  0  0  0  0  0  0  0  0
    4.7844   -2.0540    3.2033 C   0  0  0  0  0  0  0  0  0  0  0  0
    5.6613   -1.2105    3.9129 C   0  0  0  0  0  0  0  0  0  0  0  0
    5.3796   -1.1275    5.2426 C   0  0  0  0  0  0  0  0  0  0  0  0
    6.0762   -0.3325    6.2920 C   0  0  0  0  0  0  0  0  0  0  0  0
    6.5060   -1.1973    7.4763 C   0  0  0  0  0  0  0  0  0  0  0  0
    4.0168   -2.1159    5.6529 S   0  0  0  0  0  0  0  0  0  0  0  0
    2.4965   -4.6747    4.3899 C   0  0  0  0  0  0  0  0  0  0  0  0
    3.3341   -5.1206    5.8444 S   0  0  0  0  0  0  0  0  0  0  0  0
    2.0276   -2.2853    1.5554 C   0  0  0  0  0  0  0  0  0  0  0  0
    1.1113   -2.3979    0.5420 C   0  0  0  0  0  0  0  0  0  0  0  0
    0.1862   -3.8843    0.6618 S   0  0  0  0  0  0  0  0  0  0  0  0
    0.7368   -1.4818   -0.4768 C   0  0  0  0  0  0  0  0  0  0  0  0
    1.3204   -0.2898   -0.9077 C   0  0  0  0  0  0  0  0  0  0  0  0
    2.5634    0.2119   -0.5682 N   0  0  0  0  0  0  0  0  0  0  0  0
    3.7151   -0.5712   -0.4618 C   0  0  0  0  0  0  0  0  0  0  0  0
    4.8348   -0.0377    0.1845 C   0  0  0  0  0  0  0  0  0  0  0  0
    5.9984   -0.7641    0.2772 C   0  0  0  0  0  0  0  0  0  0  0  0
    6.0746   -2.0554   -0.2461 C   0  0  0  0  0  0  0  0  0  0  0  0
    7.6097   -2.8975   -0.0276 S   0  0  0  0  0  0  0  0  0  0  0  0
    7.3507   -4.5017   -0.8344 C   0  0  0  0  0  0  0  0  0  0  0  0
    4.9637   -2.5927   -0.8814 C   0  0  0  0  0  0  0  0  0  0  0  0
    3.8007   -1.8544   -0.9951 C   0  0  0  0  0  0  0  0  0  0  0  0
    2.7138    1.6125   -0.7232 C   0  0  0  0  0  0  0  0  0  0  0  0
    3.6246    2.1374   -1.6389 C   0  0  0  0  0  0  0  0  0  0  0  0
    3.6267    3.4870   -1.9093 C   0  0  0  0  0  0  0  0  0  0  0  0
    2.7233    4.3332   -1.2708 C   0  0  0  0  0  0  0  0  0  0  0  0
    2.6924    6.0206   -1.7881 S   0  0  0  0  0  0  0  0  0  0  0  0
    0.9825    6.5092   -1.4124 C   0  0  0  0  0  0  0  0  0  0  0  0
    1.8844    3.8281   -0.2866 C   0  0  0  0  0  0  0  0  0  0  0  0
    1.8793    2.4728   -0.0178 C   0  0  0  0  0  0  0  0  0  0  0  0
    0.4486    0.3958   -1.7901 C   0  0  0  0  0  0  0  0  0  0  0  0
    0.5561    1.9031   -2.6389 S   0  0  0  0  0  0  0  0  0  0  0  0
   -1.0676    1.6843   -3.2728 C   0  0  0  0  0  0  0  0  0  0  0  0
   -1.5745    0.3975   -3.0016 C   0  0  0  0  0  0  0  0  0  0  0  0
   -2.6384   -0.2078   -3.6139 N   0  0  0  0  0  0  0  0  0  0  0  0
   -3.3054   -1.2461   -2.9377 C   0  0  0  0  0  0  0  0  0  0  0  0
   -3.6845   -1.0867   -1.6084 C   0  0  0  0  0  0  0  0  0  0  0  0
   -4.3127   -2.1121   -0.9294 C   0  0  0  0  0  0  0  0  0  0  0  0
   -4.5742   -3.3145   -1.5753 C   0  0  0  0  0  0  0  0  0  0  0  0
   -5.3546   -4.6958   -0.8195 S   0  0  0  0  0  0  0  0  0  0  0  0
   -5.7959   -4.1044    0.8373 C   0  0  0  0  0  0  0  0  0  0  0  0
   -4.2084   -3.4682   -2.9143 C   0  0  0  0  0  0  0  0  0  0  0  0
   -3.5824   -2.4473   -3.5903 C   0  0  0  0  0  0  0  0  0  0  0  0
   -3.0661    0.1677   -4.8894 C   0  0  0  0  0  0  0  0  0  0  0  0
   -2.1678    0.6732   -5.8293 C   0  0  0  0  0  0  0  0  0  0  0  0
   -2.6170    1.2159   -7.0135 C   0  0  0  0  0  0  0  0  0  0  0  0
   -3.9790    1.2366   -7.3004 C   0  0  0  0  0  0  0  0  0  0  0  0
   -4.6600    2.0349   -8.7098 S   0  0  0  0  0  0  0  0  0  0  0  0
   -3.3398    3.1706   -9.2165 C   0  0  0  0  0  0  0  0  0  0  0  0
   -4.8632    0.5997   -6.4283 C   0  0  0  0  0  0  0  0  0  0  0  0
   -4.4151    0.0700   -5.2403 C   0  0  0  0  0  0  0  0  0  0  0  0
   -0.7250   -0.2771   -2.0916 C   0  0  0  0  0  0  0  0  0  0  0  0
   -0.8037   -1.7964   -1.2723 S   0  0  0  0  0  0  0  0  0  0  0  0
   -1.6555    2.8038   -3.9007 C   0  0  0  0  0  0  0  0  0  0  0  0
   -3.0409    3.0411   -4.0559 C   0  0  0  0  0  0  0  0  0  0  0  0
   -3.5570    4.1942   -4.7650 C   0  0  0  0  0  0  0  0  0  0  0  0
   -4.8863    4.1784   -4.8204 N   0  0  0  0  0  0  0  0  0  0  0  0
   -5.4370    2.9257   -3.9870 S   0  0  0  0  0  4  0  0  0  0  0  0
   -4.0241    2.2850   -3.5640 N   0  0  0  0  0  0  0  0  0  0  0  0
   -2.7213    5.1765   -5.3459 C   0  0  0  0  0  0  0  0  0  0  0  0
   -1.3395    4.9702   -5.1377 C   0  0  0  0  0  0  0  0  0  0  0  0
   -0.3581    5.7923   -5.5127 N   0  0  0  0  0  0  0  0  0  0  0  0
    1.0487    5.2248   -4.9778 S   0  0  0  0  0  0  0  0  0  0  0  0
    0.4914    3.9012   -4.2483 N   0  0  0  0  0  0  0  0  0  0  0  0
   -0.8323    3.8478   -4.3883 C   0  0  0  0  0  0  0  0  0  0  0  0
   -3.2028    6.2659   -6.1079 C   0  0  0  0  0  0  0  0  0  0  0  0
   -4.3854    6.9210   -5.8840 C   0  0  0  0  0  0  0  0  0  0  0  0
   -5.0544    6.9998   -4.5655 C   0  0  0  0  0  0  0  0  0  0  0  0
   -4.7381    6.4573   -3.5275 O   0  0  0  0  0  0  0  0  0  0  0  0
   -6.1069    8.0284   -4.7268 C   0  0  0  0  0  0  0  0  0  0  0  0
   -7.0040    8.4924   -3.7861 C   0  0  0  0  0  0  0  0  0  0  0  0
   -7.9028    9.4957   -4.1334 C   0  0  0  0  0  0  0  0  0  0  0  0
   -8.9076   10.0372   -3.1692 C   0  0  0  0  0  0  0  0  0  0  0  0
   -7.8409    9.9955   -5.4349 C   0  0  0  0  0  0  0  0  0  0  0  0
   -8.7007   10.9759   -5.7756 F   0  0  0  0  0  0  0  0  0  0  0  0
   -6.9494    9.5504   -6.3979 C   0  0  0  0  0  0  0  0  0  0  0  0
   -6.0683    8.5461   -6.0322 C   0  0  0  0  0  0  0  0  0  0  0  0
   -5.0326    7.8436   -6.7826 C   0  0  0  0  0  0  0  0  0  0  0  0
   -4.8006    7.9420   -8.1322 C   0  0  0  0  0  0  0  0  0  0  0  0
   -5.4575    8.8529   -8.9823 C   0  0  0  0  0  0  0  0  0  0  0  0
   -5.9527    9.5847   -9.7160 N   0  0  0  0  0  0  0  0  0  0  0  0
   -3.9245    7.0938   -8.8369 C   0  0  0  0  0  0  0  0  0  0  0  0
   -3.2712    6.3993   -9.4784 N   0  0  0  0  0  0  0  0  0  0  0  0
    1.9460   -8.3178    7.1189 H   0  0  0  0  0  0  0  0  0  0  0  0
    5.1922   -9.3134   11.2580 H   0  0  0  0  0  0  0  0  0  0  0  0
    5.5865   -4.4017   10.4834 H   0  0  0  0  0  0  0  0  0  0  0  0
    0.5978   -7.3706    5.0544 H   0  0  0  0  0  0  0  0  0  0  0  0
   -1.5899  -10.4698    2.2507 H   0  0  0  0  0  0  0  0  0  0  0  0
   -3.2410   -9.8553    2.0393 H   0  0  0  0  0  0  0  0  0  0  0  0
   -2.7362   -9.3188   -0.3421 H   0  0  0  0  0  0  0  0  0  0  0  0
   -1.0911   -9.9287   -0.1365 H   0  0  0  0  0  0  0  0  0  0  0  0
   -2.4654  -11.0317   -0.0065 H   0  0  0  0  0  0  0  0  0  0  0  0
    4.8770   -2.2621    2.1533 H   0  0  0  0  0  0  0  0  0  0  0  0
    6.4774   -0.6866    3.4486 H   0  0  0  0  0  0  0  0  0  0  0  0
    5.4095    0.4559    6.6540 H   0  0  0  0  0  0  0  0  0  0  0  0
    6.9485    0.1449    5.8398 H   0  0  0  0  0  0  0  0  0  0  0  0
    7.0638   -0.6002    8.1928 H   0  0  0  0  0  0  0  0  0  0  0  0
    5.6351   -1.6119    7.9798 H   0  0  0  0  0  0  0  0  0  0  0  0
    7.1377   -2.0162    7.1384 H   0  0  0  0  0  0  0  0  0  0  0  0
    2.6629   -1.4303    1.6869 H   0  0  0  0  0  0  0  0  0  0  0  0
    4.7835    0.9532    0.6093 H   0  0  0  0  0  0  0  0  0  0  0  0
    6.8645   -0.3461    0.7661 H   0  0  0  0  0  0  0  0  0  0  0  0
    7.1363   -4.3573   -1.8893 H   0  0  0  0  0  0  0  0  0  0  0  0
    6.5518   -5.0443   -0.3371 H   0  0  0  0  0  0  0  0  0  0  0  0
    8.2870   -5.0391   -0.7195 H   0  0  0  0  0  0  0  0  0  0  0  0
    4.9885   -3.5838   -1.3046 H   0  0  0  0  0  0  0  0  0  0  0  0
    2.9610   -2.2787   -1.5228 H   0  0  0  0  0  0  0  0  0  0  0  0
    4.2934    1.4744   -2.1668 H   0  0  0  0  0  0  0  0  0  0  0  0
    4.2980    3.8960   -2.6479 H   0  0  0  0  0  0  0  0  0  0  0  0
    0.7941    7.4103   -1.9879 H   0  0  0  0  0  0  0  0  0  0  0  0
    0.3089    5.7171   -1.7258 H   0  0  0  0  0  0  0  0  0  0  0  0
    0.8694    6.7229   -0.3536 H   0  0  0  0  0  0  0  0  0  0  0  0
    1.2182    4.4761    0.2598 H   0  0  0  0  0  0  0  0  0  0  0  0
    1.1992    2.0687    0.7177 H   0  0  0  0  0  0  0  0  0  0  0  0
   -3.4935   -0.1465   -1.1132 H   0  0  0  0  0  0  0  0  0  0  0  0
   -4.5908   -1.9612    0.1006 H   0  0  0  0  0  0  0  0  0  0  0  0
   -6.4480   -3.2394    0.7594 H   0  0  0  0  0  0  0  0  0  0  0  0
   -4.8971   -3.8793    1.4031 H   0  0  0  0  0  0  0  0  0  0  0  0
   -6.3283   -4.9255    1.3075 H   0  0  0  0  0  0  0  0  0  0  0  0
   -4.4176   -4.4039   -3.4091 H   0  0  0  0  0  0  0  0  0  0  0  0
   -3.2943   -2.5719   -4.6234 H   0  0  0  0  0  0  0  0  0  0  0  0
   -1.1081    0.6616   -5.6234 H   0  0  0  0  0  0  0  0  0  0  0  0
   -1.9000    1.6230   -7.7079 H   0  0  0  0  0  0  0  0  0  0  0  0
   -2.9824    3.7198   -8.3504 H   0  0  0  0  0  0  0  0  0  0  0  0
   -3.7890    3.8644   -9.9199 H   0  0  0  0  0  0  0  0  0  0  0  0
   -2.5355    2.6258   -9.7021 H   0  0  0  0  0  0  0  0  0  0  0  0
   -5.9118    0.5654   -6.6796 H   0  0  0  0  0  0  0  0  0  0  0  0
   -5.1163   -0.3620   -4.5434 H   0  0  0  0  0  0  0  0  0  0  0  0
   -2.5414    6.6176   -6.8915 H   0  0  0  0  0  0  0  0  0  0  0  0
   -7.0049    8.0719   -2.7919 H   0  0  0  0  0  0  0  0  0  0  0  0
   -9.9168    9.8616   -3.5409 H   0  0  0  0  0  0  0  0  0  0  0  0
   -8.7849   11.1144   -3.0626 H   0  0  0  0  0  0  0  0  0  0  0  0
   -8.8008    9.5676   -2.1957 H   0  0  0  0  0  0  0  0  0  0  0  0
   -6.9623    9.9942   -7.3799 H   0  0  0  0  0  0  0  0  0  0  0  0
  1  2  2  0  0  0  0
  2  3  1  0  0  0  0
  3  4  2  0  0  0  0
  3  5  1  0  0  0  0
  5  6  2  0  0  0  0
  6  7  1  0  0  0  0
  7  8  1  0  0  0  0
  7  9  2  0  0  0  0
  9 10  1  0  0  0  0
  9 11  1  0  0  0  0
 11 12  2  0  0  0  0
 12 13  1  0  0  0  0
 13 14  2  0  0  0  0
 14 15  1  0  0  0  0
 15 16  3  0  0  0  0
 14 17  1  0  0  0  0
 17 18  3  0  0  0  0
  1 19  1  0  0  0  0
 19 20  2  0  0  0  0
 20 21  1  0  0  0  0
 21 22  2  0  0  0  0
 22 23  1  0  0  0  0
 23 24  1  0  0  0  0
 24 25  1  0  0  0  0
 25 26  1  0  0  0  0
 26 27  1  0  0  0  0
 25 28  2  0  0  0  0
 28 29  1  0  0  0  0
 28 30  1  0  0  0  0
 30 31  1  0  0  0  0
 22 32  1  0  0  0  0
 32 33  2  0  0  0  0
 33 34  1  0  0  0  0
 34 35  1  0  0  0  0
 35 36  2  0  0  0  0
 36 37  1  0  0  0  0
 37 38  2  0  0  0  0
 38 39  1  0  0  0  0
 39 40  1  0  0  0  0
 38 41  1  0  0  0  0
 34 42  2  0  0  0  0
 42 43  1  0  0  0  0
 33 44  1  0  0  0  0
 44 45  2  0  0  0  0
 45 46  1  0  0  0  0
 45 47  1  0  0  0  0
 47 48  2  0  0  0  0
 48 49  1  0  0  0  0
 49 50  1  0  0  0  0
 50 51  2  0  0  0  0
 51 52  1  0  0  0  0
 52 53  2  0  0  0  0
 53 54  1  0  0  0  0
 54 55  1  0  0  0  0
 53 56  1  0  0  0  0
 56 57  2  0  0  0  0
 49 58  1  0  0  0  0
 58 59  2  0  0  0  0
 59 60  1  0  0  0  0
 60 61  2  0  0  0  0
 61 62  1  0  0  0  0
 62 63  1  0  0  0  0
 61 64  1  0  0  0  0
 64 65  2  0  0  0  0
 48 66  1  0  0  0  0
 66 67  1  0  0  0  0
 67 68  1  0  0  0  0
 68 69  2  0  0  0  0
 69 70  1  0  0  0  0
 70 71  1  0  0  0  0
 71 72  2  0  0  0  0
 72 73  1  0  0  0  0
 73 74  2  0  0  0  0
 74 75  1  0  0  0  0
 75 76  1  0  0  0  0
 74 77  1  0  0  0  0
 77 78  2  0  0  0  0
 70 79  1  0  0  0  0
 79 80  2  0  0  0  0
 80 81  1  0  0  0  0
 81 82  2  0  0  0  0
 82 83  1  0  0  0  0
 83 84  1  0  0  0  0
 82 85  1  0  0  0  0
 85 86  2  0  0  0  0
 69 87  1  0  0  0  0
 87 88  1  0  0  0  0
 68 89  1  0  0  0  0
 89 90  2  0  0  0  0
 90 91  1  0  0  0  0
 91 92  1  0  0  0  0
 92 93  2  0  0  0  0
 93 94  2  0  0  0  0
 91 95  2  0  0  0  0
 95 96  1  0  0  0  0
 96 97  2  0  0  0  0
 97 98  1  0  0  0  0
 98 99  1  0  0  0  0
 99100  2  0  0  0  0
 95101  1  0  0  0  0
101102  2  0  0  0  0
102103  1  0  0  0  0
103104  2  0  0  0  0
103105  1  0  0  0  0
105106  2  0  0  0  0
106107  1  0  0  0  0
107108  1  0  0  0  0
107109  2  0  0  0  0
109110  1  0  0  0  0
109111  1  0  0  0  0
111112  2  0  0  0  0
112113  1  0  0  0  0
113114  2  0  0  0  0
114115  1  0  0  0  0
115116  3  0  0  0  0
114117  1  0  0  0  0
117118  3  0  0  0  0
 13  2  1  0  0  0  0
 43 19  1  0  0  0  0
 88 47  1  0  0  0  0
100 89  1  0  0  0  0
113102  1  0  0  0  0
 12  5  1  0  0  0  0
 42 21  1  0  0  0  0
 57 50  1  0  0  0  0
 65 58  1  0  0  0  0
 87 66  2  0  0  0  0
 94 90  1  0  0  0  0
100 96  1  0  0  0  0
112105  1  0  0  0  0
 30 23  2  0  0  0  0
 46 32  1  0  0  0  0
 78 71  1  0  0  0  0
 86 79  1  0  0  0  0
 41 35  1  0  0  0  0
  1119  1  0  0  0  0
  6120  1  0  0  0  0
 11121  1  0  0  0  0
 20122  1  0  0  0  0
 26123  1  0  0  0  0
 26124  1  0  0  0  0
 27125  1  0  0  0  0
 27126  1  0  0  0  0
 27127  1  0  0  0  0
 36128  1  0  0  0  0
 37129  1  0  0  0  0
 39130  1  0  0  0  0
 39131  1  0  0  0  0
 40132  1  0  0  0  0
 40133  1  0  0  0  0
 40134  1  0  0  0  0
 44135  1  0  0  0  0
 51136  1  0  0  0  0
 52137  1  0  0  0  0
 55138  1  0  0  0  0
 55139  1  0  0  0  0
 55140  1  0  0  0  0
 56141  1  0  0  0  0
 57142  1  0  0  0  0
 59143  1  0  0  0  0
 60144  1  0  0  0  0
 63145  1  0  0  0  0
 63146  1  0  0  0  0
 63147  1  0  0  0  0
 64148  1  0  0  0  0
 65149  1  0  0  0  0
 72150  1  0  0  0  0
 73151  1  0  0  0  0
 76152  1  0  0  0  0
 76153  1  0  0  0  0
 76154  1  0  0  0  0
 77155  1  0  0  0  0
 78156  1  0  0  0  0
 80157  1  0  0  0  0
 81158  1  0  0  0  0
 84159  1  0  0  0  0
 84160  1  0  0  0  0
 84161  1  0  0  0  0
 85162  1  0  0  0  0
 86163  1  0  0  0  0
101164  1  0  0  0  0
106165  1  0  0  0  0
108166  1  0  0  0  0
108167  1  0  0  0  0
108168  1  0  0  0  0
111169  1  0  0  0  0
M  END
