150

C          1.10100        5.48900       -6.78770
C          1.98790        5.40460       -7.83380
C          3.19920        4.55690       -7.85040
O          3.50030        3.66160       -7.09230
C          4.04470        5.11460       -8.93420
C          5.30570        4.71330       -9.32620
C          5.90800        5.40840      -10.36380
F          7.12970        5.05060      -10.77850
C          5.25580        6.47610      -10.98050
F          5.86590        7.13110      -11.97480
C          3.98780        6.87990      -10.58750
C          3.38090        6.18840       -9.55220
C          2.07270        6.34380       -8.92470
C          1.03490        7.12400       -9.37230
C         -0.27220        7.00700       -8.86080
N         -1.36560        6.88040       -8.53200
C          1.13320        8.03110      -10.44480
N          1.17360        8.78740      -11.30740
C          0.81780        4.53380       -5.79230
C          0.46820        4.82260       -4.46910
C          0.22560        3.61120       -3.79560
C          0.40730        2.52960       -4.73380
O          0.28750        1.32420       -4.62090
N          0.76800        3.16490       -5.93020
C          0.88020        2.40930       -7.14720
C          0.04160        3.88700       -2.43410
N          0.21510        5.23750       -2.26600
C          0.08240        5.97060       -1.03800
C          0.44730        5.89490       -3.49440
O          0.57590        7.09400       -3.59420
C         -0.25060        2.94890       -1.42840
C         -0.93920        1.73600       -1.62800
N         -1.77220        1.48800       -2.67800
C         -2.41110        2.54950       -3.34810
C         -2.55200        2.53630       -4.73130
C         -3.12270        3.60820       -5.39240
C         -3.58280        4.70630       -4.67620
S         -4.31800        6.13360       -5.38710
C         -4.16870        5.88260       -7.17590
C         -3.49290        4.69410       -3.28190
C         -2.91710        3.63290       -2.62700
C         -2.09600        0.16820       -3.03020
C         -3.40880       -0.16330       -3.35130
C         -3.74490       -1.46120       -3.68220
C         -2.76790       -2.44880       -3.69770
S         -3.07370       -4.13970       -4.08470
C         -4.85210       -4.19840       -4.44710
C         -1.44790       -2.11270       -3.39540
C         -1.11220       -0.82040       -3.06450
C         -0.78880        0.89370       -0.49890
S         -1.34010       -0.69440       -0.09810
C         -0.55120       -0.59830        1.46380
C          0.03060        0.64020        1.69820
N          0.59680        1.06460        2.88610
C          1.63450        2.01180        2.85450
C          2.63520        1.94550        1.88470
C          3.62990        2.89690        1.85050
C          3.65620        3.92810        2.78790
S          4.96880        5.09480        2.62950
C          4.73400        6.21780        4.03620
C          2.67370        3.98320        3.76870
C          1.67190        3.03360        3.79790
C          0.19780        0.52080        4.11660
C         -1.13950        0.22680        4.36930
C         -1.50730       -0.45740        5.51060
C         -0.54110       -0.84550        6.42910
S         -0.87450       -1.83280        7.85450
C         -2.56750       -2.42590        7.57250
C          0.78250       -0.45710        6.23360
C          1.14980        0.21670        5.09140
C         -0.09500        1.47050        0.55490
S          0.39400        3.09170        0.20650
C         -0.58430       -1.73590        2.35660
C          0.54820       -2.04540        3.12950
C          0.44060       -3.01910        4.08990
C          1.44570       -3.44740        5.09780
O          2.57070       -3.03730        5.24220
C          0.73740       -4.48010        5.90240
C         -0.56800       -4.65120        5.39940
C         -0.75580       -3.73900        4.28020
C         -1.83830       -3.50410        3.45350
C         -1.74160       -2.50190        2.49920
C         -1.42160       -5.56420        5.99210
C         -0.94660       -6.33180        7.04240
C          0.35600       -6.18380        7.53100
C          1.19590       -5.20750        6.97160
C          0.85130       -6.99550        8.61580
C          0.59510       -8.29660        8.88050
C          0.93130       -8.85620       10.22210
O          1.61600       -8.34020       11.07070
C          0.20050      -10.14060       10.29660
C          0.08730      -11.00240       11.36960
C         -0.67730      -12.15250       11.21550
Cl        -0.85820      -13.26820       12.50990
C         -1.30530      -12.39870        9.99040
F         -2.05160      -13.49960        9.85450
C         -1.18880      -11.54470        8.90580
C         -0.42150      -10.40020        9.06130
C         -0.07000       -9.34220        8.11810
C         -0.14280       -9.44450        6.75650
C          0.44510       -8.53570        5.84950
N          0.94390       -7.88030        5.05110
C         -0.75030      -10.52680        6.08350
N         -1.25500      -11.36860        5.48980
H          0.59040        6.43440       -6.63670
H          5.81010        3.88890       -8.84790
H          3.52300        7.71380      -11.08810
H          0.47670        2.97910       -7.98440
H          0.31430        1.48690       -7.01110
H          1.92100        2.15100       -7.34890
H         -0.85480        5.72340       -0.53720
H          0.09030        7.02880       -1.30040
H          0.91620        5.76350       -0.36350
H         -2.19650        1.68340       -5.28870
H         -3.19620        3.57960       -6.46750
H         -4.62980        6.75580       -7.62680
H         -4.70800        4.98820       -7.47390
H         -3.12180        5.84240       -7.45990
H         -3.88650        5.53180       -2.72700
H         -2.85900        3.63270       -1.54830
H         -4.17340        0.59970       -3.33370
H         -4.77190       -1.68720       -3.91930
H         -5.42140       -3.90730       -3.56920
H         -5.08030       -3.56200       -5.29690
H         -5.06390       -5.23360       -4.69580
H         -0.69070       -2.88030       -3.43250
H         -0.08560       -0.55330       -2.87510
H          2.63300        1.14130        1.16390
H          4.40370        2.84990        1.10010
H          3.78590        6.73970        3.94400
H          5.55170        6.92940        3.97870
H          4.79340        5.66320        4.96800
H          2.66980        4.76460        4.51090
H          0.90580        3.08310        4.55760
H         -1.89560        0.51140        3.65260
H         -2.54880       -0.68750        5.66620
H         -2.74630       -3.17440        8.33800
H         -3.27650       -1.61070        7.68440
H         -2.63420       -2.87790        6.58760
H          1.52550       -0.72680        6.96750
H          2.18560        0.47130        4.92770
H          1.48450       -1.53410        2.97240
H         -2.75370       -4.06750        3.55650
H         -2.59080       -2.27920        1.86900
H         -2.43430       -5.69350        5.64010
H         -1.60540       -7.04510        7.51790
H          2.19840       -5.06440        7.34450
H          1.48790       -6.49340        9.33810
H          0.58300      -10.78570       12.30230
H         -1.69900      -11.79090        7.98860
