224

C          1.22670        9.95920       -6.37970
C          1.45990       10.29560       -7.68960
C          2.01270        9.41690       -8.72930
O          2.35810        8.25530       -8.63480
C          2.06100       10.23100       -9.96230
C          2.50850        9.85820      -11.21390
C          2.45170       10.80420      -12.22410
F          2.87450       10.48680      -13.45440
C          1.95700       12.08370      -11.97050
F          1.91110       12.97710      -12.96490
C          1.51040       12.45780      -10.71160
C          1.56480       11.51710       -9.69450
C          1.18790       11.59140       -8.28210
C          0.68810       12.70790       -7.66250
C          0.45270       13.93560       -8.31770
N          0.23710       14.95980       -8.78870
C          0.34310       12.81840       -6.29890
N          0.04340       13.00340       -5.20530
C          1.47150        8.76480       -5.68320
C          1.17210        8.62430       -4.33690
C          1.50380        7.37340       -3.80300
C          1.31560        6.91750       -2.47830
C          0.82240        7.79910       -1.41570
C          1.45000        9.04640       -1.19840
C          1.04750        9.85920       -0.17970
C         -0.00710        9.48050        0.67850
C         -0.43430       10.29060        1.74990
C         -1.45570        9.88660        2.56490
C         -2.09970        8.65910        2.34180
C         -1.71150        7.85340        1.30840
C         -0.65410        8.23620        0.45620
C         -0.21460        7.41530       -0.59900
C          1.63340        5.59590       -2.23930
C          2.19350        4.73120       -3.21740
C          2.45070        5.20840       -4.51780
C          3.09100        4.37400       -5.50990
C          4.14090        3.51080       -5.35050
C          4.56230        2.90130       -6.54420
C          3.82590        3.29070       -7.62790
S          4.03670        2.70860       -9.25780
C          3.04370        3.89540      -10.23370
C          3.67560        5.26990      -10.32470
S          2.58650        4.41700       -7.17740
C          2.05670        6.51430       -4.79060
S          2.18120        7.30160       -6.33650
C          2.34050        3.41410       -2.73270
C          1.90280        3.25060       -1.44850
S          1.38950        4.76180       -0.72520
C          1.68170        2.03040       -0.74920
C          1.18190        0.84030       -1.26680
N          0.72950        0.65960       -2.56170
C          0.10600        1.73260       -3.22670
C         -0.71880        2.61830       -2.53140
C         -1.19770        3.74920       -3.15050
C         -0.88400        4.01390       -4.48360
S         -1.44930        5.55710       -5.12280
C         -1.03030        5.49250       -6.88620
C         -0.14380        3.08720       -5.20440
C          0.35070        1.95880       -4.57710
C          0.63510       -0.63850       -3.07900
C          1.65470       -1.56550       -2.85520
C          1.52190       -2.86340       -3.29630
C          0.37530       -3.26740       -3.97720
S          0.29640       -4.96080       -4.45770
C         -1.31660       -5.10710       -5.27420
C         -0.61930       -2.33530       -4.24380
C         -0.48720       -1.03440       -3.80090
C          1.01520       -0.11350       -0.23360
S          0.45520       -1.73900       -0.18180
C          0.40350       -1.70350        1.58460
C          0.92430       -0.52080        2.08770
N          0.99520       -0.12490        3.42160
C          0.57920        1.20580        3.63490
C          1.39040        2.15620        4.24720
C          1.00140        3.48150        4.28610
C         -0.19910        3.87660        3.70980
S         -0.73840        5.55940        3.64270
C          0.82670        6.47550        3.58640
C         -1.03830        2.91780        3.14950
C         -0.65340        1.59720        3.11190
C          1.77310       -0.80500        4.35210
C          2.74180       -1.72220        3.94940
C          3.52200       -2.37940        4.88080
C          3.35420       -2.12250        6.23230
S          4.34260       -2.86350        7.49480
C          5.03410       -4.32830        6.67530
C          2.38900       -1.20520        6.64060
C          1.59930       -0.56300        5.71620
C          1.26390        0.37000        1.03850
S          1.82720        2.00310        1.00100
C         -0.17960       -2.84380        2.20590
C         -1.17490       -3.61690        1.60860
N         -1.87290       -3.27890        0.45650
C         -2.41100       -1.99980        0.29280
C         -2.51610       -1.43800       -0.97910
C         -2.96840       -0.14290       -1.13390
C         -3.34090        0.62530       -0.03860
C         -3.79990        2.04290       -0.19650
C         -3.27230        0.04440        1.22340
C         -2.80730       -1.24420        1.39460
C         -2.09650       -4.29860       -0.48360
C         -3.32970       -4.44440       -1.10980
C         -3.54110       -5.49820       -1.97660
C         -2.54230       -6.42950       -2.23520
C         -2.80260       -7.61350       -3.11450
C         -1.30450       -6.25740       -1.62830
C         -1.07780       -5.20390       -0.76730
C         -1.42520       -4.79580        2.33740
S         -2.39730       -6.18090        2.01410
C         -1.86440       -6.90670        3.53320
C         -0.88170       -6.10940        4.19210
N         -0.20070       -6.48980        5.31550
C          0.17170       -7.83650        5.51440
C          0.11280       -8.40850        6.78310
C          0.46860       -9.73050        6.95870
C          0.88410      -10.51410        5.88770
C          1.23990      -11.95310        6.09810
C          0.95940       -9.92680        4.63020
C          0.61680       -8.60280        4.44040
C          0.17100       -5.53740        6.28040
C          1.35890       -5.68580        6.99340
C          1.66150       -4.82020        8.02320
C          0.81430       -3.76650        8.34960
C          1.12430       -2.88360        9.51690
C         -0.33900       -3.59230        7.59620
C         -0.66930       -4.46990        6.58210
C         -0.67730       -4.90320        3.50600
S          0.35200       -3.51870        3.74130
C         -2.42400       -8.04670        4.09300
C         -3.34100       -8.94280        3.57200
C         -3.81650       -8.98650        2.19260
O         -3.59070       -8.20470        1.28510
C         -4.62970      -10.21920        2.08350
C         -5.29150      -10.71660        0.98020
C         -5.99240      -11.90290        1.13240
F         -6.65000      -12.42310        0.08580
C         -6.01960      -12.55800        2.36160
F         -6.70350      -13.70370        2.48070
C         -5.35560      -12.05480        3.47190
C         -4.65170      -10.87080        3.32720
C         -3.87570      -10.07600        4.28250
C         -3.73680      -10.37060        5.61850
C         -3.11380       -9.55030        6.57720
N         -2.65330       -8.93100        7.42970
C         -4.23380      -11.54120        6.22450
N         -4.59460      -12.48200        6.77580
H          0.78860       10.72600       -5.75250
H          2.89250        8.86840      -11.40230
H          1.13940       13.45950      -10.57060
H          0.70920        9.41140       -3.76760
H          2.27580        9.33300       -1.83340
H          1.53840       10.80720       -0.01220
H          0.06170       11.23640        1.91560
H         -1.77530       10.51040        3.38670
H         -2.90120        8.35370        2.99720
H         -2.19960        6.90580        1.13720
H         -0.72440        6.47900       -0.77230
H          4.63710        3.36280       -4.40800
H          5.38460        2.21350       -6.61520
H          2.04960        3.93530       -9.78800
H          2.97830        3.42760      -11.21610
H          4.69420        5.19670      -10.69930
H          3.68790        5.76620       -9.35740
H          3.09400        5.88440      -11.00840
H          2.72090        2.60110       -3.32200
H         -0.96110        2.42200       -1.49770
H         -1.81410        4.45090       -2.60940
H          0.04740        5.46610       -7.01860
H         -1.50900        4.63340       -7.34670
H         -1.42740        6.40880       -7.31230
H          0.08270        3.24590       -6.24580
H          0.95720        1.25870       -5.13330
H          2.54910       -1.25970       -2.33300
H          2.30510       -3.58310       -3.11550
H         -2.10740       -4.88080       -4.56470
H         -1.35470       -4.45610       -6.14270
H         -1.39110       -6.14260       -5.59020
H         -1.51210       -2.61100       -4.78130
H         -1.27170       -0.31940       -3.99900
H          2.34130        1.86120        4.66510
H          1.65290        4.20580        4.74870
H          0.57230        7.47530        3.24820
H          1.49000        5.99810        2.87180
H          1.27700        6.52340        4.57360
H         -1.98350        3.22650        2.73070
H         -1.28440        0.85770        2.64220
H          2.90000       -1.90750        2.89730
H          4.27000       -3.07390        4.53370
H          5.46500       -4.93650        7.46450
H          4.23410       -4.86940        6.17890
H          5.81160       -4.03820        5.97420
H          2.26890       -1.00100        7.69190
H          0.84280        0.13510        6.04070
H         -2.21130       -2.01600       -1.83850
H         -3.02240        0.28370       -2.12550
H         -3.10660        2.72260        0.30000
H         -3.86020        2.31800       -1.24670
H         -4.78000        2.18090        0.25810
H         -3.59570        0.61180        2.08500
H         -2.75230       -1.67360        2.38470
H         -4.12290       -3.74240       -0.89820
H         -4.50890       -5.61130       -2.44450
H         -3.55840       -7.39080       -3.86480
H         -3.16680       -8.44090       -2.50490
H         -1.89030       -7.93890       -3.60940
H         -0.50790       -6.95700       -1.83370
H         -0.11010       -5.07480       -0.30440
H         -0.22910       -7.82190        7.62070
H          0.40440      -10.16680        7.94400
H          1.53600      -12.42370        5.16410
H          2.06060      -12.04160        6.80880
H          0.38890      -12.49570        6.50780
H          1.29680      -10.51060        3.78610
H          0.68420       -8.15930        3.45760
H          2.02740       -6.49930        6.75110
H          2.56770       -4.96480        8.59170
H          0.82940       -3.38170       10.44120
H          2.19200       -2.68280        9.57390
H          0.58130       -1.94400        9.45250
H         -1.00770       -2.77530        7.82420
H         -1.59780       -4.35050        6.04360
H         -2.08560       -8.26190        5.09800
H         -5.27070      -10.20350        0.03210
H         -5.40960      -12.59940        4.40000
