
  xtb     02062218133D
 energy: -367.064904060085 gnorm: 0.000499820296 xtb: 6.4.1 (unknown)
222242  0     0  0            999 V2000
   -6.0820    0.8045    5.1038 C   0  0  0  0  0  0  0  0  0  0  0  0
   -5.3565   -0.0200    5.9121 C   0  0  0  0  0  0  0  0  0  0  0  0
   -4.0305   -0.5964    5.6010 C   0  0  0  0  0  0  0  0  0  0  0  0
   -3.3515   -0.4053    4.6070 O   0  0  0  0  0  0  0  0  0  0  0  0
   -3.7450   -1.5604    6.6773 C   0  0  0  0  0  0  0  0  0  0  0  0
   -4.8320   -1.6258    7.5456 C   0  0  0  0  0  0  0  0  0  0  0  0
   -4.8204   -2.5203    8.6247 C   0  0  0  0  0  0  0  0  0  0  0  0
   -3.7185   -3.3136    8.8131 C   0  0  0  0  0  0  0  0  0  0  0  0
   -2.5906   -3.2486    7.9660 C   0  0  0  0  0  0  0  0  0  0  0  0
   -1.4509   -4.0495    8.1830 C   0  0  0  0  0  0  0  0  0  0  0  0
   -0.3659   -3.9585    7.3549 C   0  0  0  0  0  0  0  0  0  0  0  0
   -0.3673   -3.0620    6.2746 C   0  0  0  0  0  0  0  0  0  0  0  0
   -1.4564   -2.2728    6.0283 C   0  0  0  0  0  0  0  0  0  0  0  0
   -2.5923   -2.3493    6.8607 C   0  0  0  0  0  0  0  0  0  0  0  0
   -5.8404   -0.6578    7.1231 C   0  0  0  0  0  0  0  0  0  0  0  0
   -6.9903   -0.3523    7.8010 C   0  0  0  0  0  0  0  0  0  0  0  0
   -7.8990    0.6683    7.4461 C   0  0  0  0  0  0  0  0  0  0  0  0
   -8.6738    1.4939    7.2543 N   0  0  0  0  0  0  0  0  0  0  0  0
   -7.4131   -0.9910    8.9856 C   0  0  0  0  0  0  0  0  0  0  0  0
   -7.8161   -1.4667    9.9500 N   0  0  0  0  0  0  0  0  0  0  0  0
   -5.6368    1.5017    3.9410 C   0  0  0  0  0  0  0  0  0  0  0  0
   -4.3528    2.0672    3.7781 C   0  0  0  0  0  0  0  0  0  0  0  0
   -3.3022    2.1842    4.7284 C   0  0  0  0  0  0  0  0  0  0  0  0
   -2.1396    2.6475    4.2086 C   0  0  0  0  0  0  0  0  0  0  0  0
   -0.8215    2.7735    4.8891 C   0  0  0  0  0  0  0  0  0  0  0  0
   -0.0529    4.0238    4.4724 C   0  0  0  0  0  0  0  0  0  0  0  0
   -2.2854    3.0309    2.5160 S   0  0  0  0  0  0  0  0  0  0  0  0
   -3.9654    2.5746    2.5210 C   0  0  0  0  0  0  0  0  0  0  0  0
   -4.8058    2.5865    1.4072 C   0  0  0  0  0  0  0  0  0  0  0  0
   -6.1304    2.1554    1.6055 C   0  0  0  0  0  0  0  0  0  0  0  0
   -6.5158    1.6377    2.8542 C   0  0  0  0  0  0  0  0  0  0  0  0
   -8.1636    1.0976    2.8176 S   0  0  0  0  0  0  0  0  0  0  0  0
   -8.3468    1.6271    1.1615 C   0  0  0  0  0  0  0  0  0  0  0  0
   -9.6656    1.4796    0.4870 C   0  0  0  0  0  0  0  0  0  0  0  0
  -10.7119    2.4128    1.0985 C   0  0  0  0  0  0  0  0  0  0  0  0
   -7.2012    2.1462    0.6669 C   0  0  0  0  0  0  0  0  0  0  0  0
   -4.2886    2.8996    0.1118 C   0  0  0  0  0  0  0  0  0  0  0  0
   -4.1389    2.1648   -1.0403 C   0  0  0  0  0  0  0  0  0  0  0  0
   -4.6463    0.9504   -1.4142 N   0  0  0  0  0  0  0  0  0  0  0  0
   -4.9762    0.0491   -0.3705 C   0  0  0  0  0  0  0  0  0  0  0  0
   -4.0592   -0.1771    0.6513 C   0  0  0  0  0  0  0  0  0  0  0  0
   -4.3893   -0.9731    1.7272 C   0  0  0  0  0  0  0  0  0  0  0  0
   -5.6451   -1.5621    1.7867 C   0  0  0  0  0  0  0  0  0  0  0  0
   -6.1595   -2.5295    3.1782 S   0  0  0  0  0  0  0  0  0  0  0  0
   -4.6346   -3.4266    3.6017 C   0  0  0  0  0  0  0  0  0  0  0  0
   -6.5524   -1.3675    0.7504 C   0  0  0  0  0  0  0  0  0  0  0  0
   -6.2216   -0.5662   -0.3246 C   0  0  0  0  0  0  0  0  0  0  0  0
   -4.5550    0.5145   -2.7379 C   0  0  0  0  0  0  0  0  0  0  0  0
   -4.5837    1.4301   -3.7883 C   0  0  0  0  0  0  0  0  0  0  0  0
   -4.4117    1.0132   -5.0946 C   0  0  0  0  0  0  0  0  0  0  0  0
   -4.2159   -0.3312   -5.3744 C   0  0  0  0  0  0  0  0  0  0  0  0
   -3.9343   -0.9801   -6.9919 S   0  0  0  0  0  0  0  0  0  0  0  0
   -4.1017    0.4596   -8.0878 C   0  0  0  0  0  0  0  0  0  0  0  0
   -4.2253   -1.2561   -4.3319 C   0  0  0  0  0  0  0  0  0  0  0  0
   -4.3974   -0.8426   -3.0314 C   0  0  0  0  0  0  0  0  0  0  0  0
   -2.9709    2.8690   -1.5506 C   0  0  0  0  0  0  0  0  0  0  0  0
   -1.6025    0.9145   -3.0752 S   0  0  0  0  0  0  0  0  0  0  0  0
    0.0259    1.5971   -2.5845 C   0  0  0  0  0  0  0  0  0  0  0  0
   -0.4783    2.7496   -2.0510 C   0  0  0  0  0  0  0  0  0  0  0  0
    0.0870    3.8625   -1.4797 N   0  0  0  0  0  0  0  0  0  0  0  0
    1.0068    3.7165   -0.4332 C   0  0  0  0  0  0  0  0  0  0  0  0
    2.0824    4.5892   -0.3029 C   0  0  0  0  0  0  0  0  0  0  0  0
    2.9560    4.4739    0.7607 C   0  0  0  0  0  0  0  0  0  0  0  0
    2.7635    3.4815    1.7116 C   0  0  0  0  0  0  0  0  0  0  0  0
    3.7914    3.2842    3.1349 S   0  0  0  0  0  0  0  0  0  0  0  0
    4.8324    4.7691    3.1437 C   0  0  0  0  0  0  0  0  0  0  0  0
    1.7071    2.5861    1.5685 C   0  0  0  0  0  0  0  0  0  0  0  0
    0.8402    2.6979    0.5054 C   0  0  0  0  0  0  0  0  0  0  0  0
   -0.4310    5.1086   -1.8506 C   0  0  0  0  0  0  0  0  0  0  0  0
   -0.9717    5.2663   -3.1251 C   0  0  0  0  0  0  0  0  0  0  0  0
   -1.5083    6.4736   -3.5243 C   0  0  0  0  0  0  0  0  0  0  0  0
   -1.4984    7.5571   -2.6574 C   0  0  0  0  0  0  0  0  0  0  0  0
   -2.1116    9.1577   -3.0781 S   0  0  0  0  0  0  0  0  0  0  0  0
   -2.9395    8.8956   -4.6730 C   0  0  0  0  0  0  0  0  0  0  0  0
   -0.9622    7.4038   -1.3799 C   0  0  0  0  0  0  0  0  0  0  0  0
   -0.4428    6.1951   -0.9749 C   0  0  0  0  0  0  0  0  0  0  0  0
   -1.8941    2.4503   -2.2110 C   0  0  0  0  0  0  0  0  0  0  0  0
   -3.0174    4.1346   -0.2810 S   0  0  0  0  0  0  0  0  0  0  0  0
    1.1983    0.8251   -2.6660 C   0  0  0  0  0  0  0  0  0  0  0  0
    1.4571   -0.0026   -3.7552 C   0  0  0  0  0  0  0  0  0  0  0  0
    0.7479    0.0908   -4.9460 N   0  0  0  0  0  0  0  0  0  0  0  0
    0.4483    1.3628   -5.4489 C   0  0  0  0  0  0  0  0  0  0  0  0
   -0.7771    1.6349   -6.0603 C   0  0  0  0  0  0  0  0  0  0  0  0
   -1.0683    2.9074   -6.4967 C   0  0  0  0  0  0  0  0  0  0  0  0
   -0.1496    3.9431   -6.3371 C   0  0  0  0  0  0  0  0  0  0  0  0
   -0.6507    5.5410   -6.9064 S   0  0  0  0  0  0  0  0  0  0  0  0
    0.6933    6.6376   -6.3740 C   0  0  0  0  0  0  0  0  0  0  0  0
    1.0772    3.6761   -5.7477 C   0  0  0  0  0  0  0  0  0  0  0  0
    1.3699    2.3984   -5.3120 C   0  0  0  0  0  0  0  0  0  0  0  0
    0.1555   -1.0632   -5.4779 C   0  0  0  0  0  0  0  0  0  0  0  0
   -0.0243   -1.1983   -6.8512 C   0  0  0  0  0  0  0  0  0  0  0  0
   -0.6617   -2.3067   -7.3706 C   0  0  0  0  0  0  0  0  0  0  0  0
   -1.1230   -3.3049   -6.5230 C   0  0  0  0  0  0  0  0  0  0  0  0
   -1.9784   -4.7437   -7.0827 S   0  0  0  0  0  0  0  0  0  0  0  0
   -2.5723   -4.2563   -8.7276 C   0  0  0  0  0  0  0  0  0  0  0  0
   -0.9050   -3.1941   -5.1529 C   0  0  0  0  0  0  0  0  0  0  0  0
   -0.2763   -2.0850   -4.6337 C   0  0  0  0  0  0  0  0  0  0  0  0
    2.5146   -0.8886   -3.4812 C   0  0  0  0  0  0  0  0  0  0  0  0
    3.3430   -2.0952   -4.3873 S   0  0  0  0  0  0  0  0  0  0  0  0
    4.3612   -2.4845   -2.9907 C   0  0  0  0  0  0  0  0  0  0  0  0
    4.0933   -1.6407   -1.8942 C   0  0  0  0  0  0  0  0  0  0  0  0
    4.7487   -1.5988   -0.6863 N   0  0  0  0  0  0  0  0  0  0  0  0
    6.1006   -1.9263   -0.5654 C   0  0  0  0  0  0  0  0  0  0  0  0
    7.0071   -1.5934   -1.5715 C   0  0  0  0  0  0  0  0  0  0  0  0
    8.3282   -1.9828   -1.4945 C   0  0  0  0  0  0  0  0  0  0  0  0
    8.7758   -2.7193   -0.4027 C   0  0  0  0  0  0  0  0  0  0  0  0
   10.4097   -3.3514   -0.2334 S   0  0  0  0  0  0  0  0  0  0  0  0
   11.2502   -2.8376   -1.7565 C   0  0  0  0  0  0  0  0  0  0  0  0
    7.8885   -3.0021    0.6351 C   0  0  0  0  0  0  0  0  0  0  0  0
    6.5704   -2.6124    0.5586 C   0  0  0  0  0  0  0  0  0  0  0  0
    4.0014   -1.2899    0.4681 C   0  0  0  0  0  0  0  0  0  0  0  0
    2.7110   -1.7962    0.6250 C   0  0  0  0  0  0  0  0  0  0  0  0
    1.9822   -1.4966    1.7525 C   0  0  0  0  0  0  0  0  0  0  0  0
    2.5280   -0.6955    2.7535 C   0  0  0  0  0  0  0  0  0  0  0  0
    1.4886   -0.3678    4.1452 S   0  0  0  0  0  0  0  0  0  0  0  0
    2.5859    0.4461    5.3393 C   0  0  0  0  0  0  0  0  0  0  0  0
    3.8160   -0.1992    2.6082 C   0  0  0  0  0  0  0  0  0  0  0  0
    4.5422   -0.4899    1.4687 C   0  0  0  0  0  0  0  0  0  0  0  0
    3.0454   -0.7470   -2.2029 C   0  0  0  0  0  0  0  0  0  0  0  0
    2.3091    0.5644   -1.3319 S   0  0  0  0  0  0  0  0  0  0  0  0
    5.3074   -3.5011   -3.1721 C   0  0  0  0  0  0  0  0  0  0  0  0
    5.8722   -4.2670   -2.1781 C   0  0  0  0  0  0  0  0  0  0  0  0
    5.2129   -4.5648   -0.8945 C   0  0  0  0  0  0  0  0  0  0  0  0
    4.1168   -4.1733   -0.5351 O   0  0  0  0  0  0  0  0  0  0  0  0
    6.0884   -5.5438   -0.2176 C   0  0  0  0  0  0  0  0  0  0  0  0
    7.1784   -5.8328   -1.0340 C   0  0  0  0  0  0  0  0  0  0  0  0
    8.1682   -6.7277   -0.6109 C   0  0  0  0  0  0  0  0  0  0  0  0
    8.0479   -7.3056    0.6264 C   0  0  0  0  0  0  0  0  0  0  0  0
    6.9607   -7.0246    1.4813 C   0  0  0  0  0  0  0  0  0  0  0  0
    6.8510   -7.6086    2.7603 C   0  0  0  0  0  0  0  0  0  0  0  0
    5.7926   -7.3137    3.5740 C   0  0  0  0  0  0  0  0  0  0  0  0
    4.7938   -6.4217    3.1499 C   0  0  0  0  0  0  0  0  0  0  0  0
    4.8626   -5.8373    1.9163 C   0  0  0  0  0  0  0  0  0  0  0  0
    5.9419   -6.1240    1.0545 C   0  0  0  0  0  0  0  0  0  0  0  0
    7.0839   -5.0331   -2.2517 C   0  0  0  0  0  0  0  0  0  0  0  0
    8.0622   -4.8882   -3.2047 C   0  0  0  0  0  0  0  0  0  0  0  0
    9.2781   -5.5962   -3.2245 C   0  0  0  0  0  0  0  0  0  0  0  0
   10.2960   -6.1232   -3.3064 N   0  0  0  0  0  0  0  0  0  0  0  0
    8.0101   -3.9289   -4.2349 C   0  0  0  0  0  0  0  0  0  0  0  0
    8.0696   -3.1310   -5.0598 N   0  0  0  0  0  0  0  0  0  0  0  0
   -7.1463    0.8892    5.2945 H   0  0  0  0  0  0  0  0  0  0  0  0
   -5.6620   -2.5935    9.2932 H   0  0  0  0  0  0  0  0  0  0  0  0
   -3.6986   -4.0124    9.6371 H   0  0  0  0  0  0  0  0  0  0  0  0
   -1.4493   -4.7329    9.0200 H   0  0  0  0  0  0  0  0  0  0  0  0
    0.5035   -4.5750    7.5310 H   0  0  0  0  0  0  0  0  0  0  0  0
    0.5006   -2.9934    5.6362 H   0  0  0  0  0  0  0  0  0  0  0  0
   -1.4565   -1.5771    5.2038 H   0  0  0  0  0  0  0  0  0  0  0  0
   -3.4174    1.9389    5.7691 H   0  0  0  0  0  0  0  0  0  0  0  0
   -0.9834    2.7685    5.9697 H   0  0  0  0  0  0  0  0  0  0  0  0
   -0.2256    1.8884    4.6402 H   0  0  0  0  0  0  0  0  0  0  0  0
    0.1303    4.0142    3.3997 H   0  0  0  0  0  0  0  0  0  0  0  0
    0.9051    4.0636    4.9852 H   0  0  0  0  0  0  0  0  0  0  0  0
   -0.6185    4.9197    4.7192 H   0  0  0  0  0  0  0  0  0  0  0  0
   -9.5444    1.7028   -0.5752 H   0  0  0  0  0  0  0  0  0  0  0  0
  -10.0087    0.4464    0.5847 H   0  0  0  0  0  0  0  0  0  0  0  0
  -10.8431    2.1894    2.1546 H   0  0  0  0  0  0  0  0  0  0  0  0
  -10.3975    3.4494    1.0006 H   0  0  0  0  0  0  0  0  0  0  0  0
  -11.6670    2.2890    0.5947 H   0  0  0  0  0  0  0  0  0  0  0  0
   -7.1018    2.5277   -0.3337 H   0  0  0  0  0  0  0  0  0  0  0  0
   -3.0831    0.2834    0.6052 H   0  0  0  0  0  0  0  0  0  0  0  0
   -3.6789   -1.0969    2.5274 H   0  0  0  0  0  0  0  0  0  0  0  0
   -4.2743   -3.9467    2.7196 H   0  0  0  0  0  0  0  0  0  0  0  0
   -3.8804   -2.7481    3.9840 H   0  0  0  0  0  0  0  0  0  0  0  0
   -4.9123   -4.1404    4.3708 H   0  0  0  0  0  0  0  0  0  0  0  0
   -7.5228   -1.8362    0.8043 H   0  0  0  0  0  0  0  0  0  0  0  0
   -6.9273   -0.4081   -1.1263 H   0  0  0  0  0  0  0  0  0  0  0  0
   -4.7293    2.4801   -3.5818 H   0  0  0  0  0  0  0  0  0  0  0  0
   -4.4250    1.7526   -5.8790 H   0  0  0  0  0  0  0  0  0  0  0  0
   -3.3151    1.1797   -7.8832 H   0  0  0  0  0  0  0  0  0  0  0  0
   -5.0865    0.9018   -7.9694 H   0  0  0  0  0  0  0  0  0  0  0  0
   -3.9911    0.0745   -9.0968 H   0  0  0  0  0  0  0  0  0  0  0  0
   -4.0754   -2.3010   -4.5563 H   0  0  0  0  0  0  0  0  0  0  0  0
   -4.3793   -1.5644   -2.2293 H   0  0  0  0  0  0  0  0  0  0  0  0
    2.2317    5.3670   -1.0370 H   0  0  0  0  0  0  0  0  0  0  0  0
    3.7802    5.1653    0.8327 H   0  0  0  0  0  0  0  0  0  0  0  0
    5.3883    4.7333    4.0757 H   0  0  0  0  0  0  0  0  0  0  0  0
    4.2060    5.6559    3.1202 H   0  0  0  0  0  0  0  0  0  0  0  0
    5.5223    4.7476    2.3048 H   0  0  0  0  0  0  0  0  0  0  0  0
    1.5600    1.8127    2.3041 H   0  0  0  0  0  0  0  0  0  0  0  0
    0.0075    2.0175    0.4164 H   0  0  0  0  0  0  0  0  0  0  0  0
   -0.9663    4.4362   -3.8161 H   0  0  0  0  0  0  0  0  0  0  0  0
   -1.9185    6.5525   -4.5178 H   0  0  0  0  0  0  0  0  0  0  0  0
   -3.6977    8.1254   -4.5698 H   0  0  0  0  0  0  0  0  0  0  0  0
   -3.4059    9.8444   -4.9191 H   0  0  0  0  0  0  0  0  0  0  0  0
   -2.2144    8.6332   -5.4380 H   0  0  0  0  0  0  0  0  0  0  0  0
   -0.9718    8.2446   -0.7035 H   0  0  0  0  0  0  0  0  0  0  0  0
   -0.0622    6.0812    0.0282 H   0  0  0  0  0  0  0  0  0  0  0  0
   -1.5059    0.8453   -6.1535 H   0  0  0  0  0  0  0  0  0  0  0  0
   -2.0228    3.1277   -6.9516 H   0  0  0  0  0  0  0  0  0  0  0  0
    0.3914    7.6382   -6.6684 H   0  0  0  0  0  0  0  0  0  0  0  0
    1.6150    6.3716   -6.8832 H   0  0  0  0  0  0  0  0  0  0  0  0
    0.8033    6.5861   -5.2940 H   0  0  0  0  0  0  0  0  0  0  0  0
    1.8150    4.4509   -5.6167 H   0  0  0  0  0  0  0  0  0  0  0  0
    2.3270    2.2043   -4.8507 H   0  0  0  0  0  0  0  0  0  0  0  0
    0.3336   -0.4251   -7.5149 H   0  0  0  0  0  0  0  0  0  0  0  0
   -0.7918   -2.3818   -8.4380 H   0  0  0  0  0  0  0  0  0  0  0  0
   -3.0668   -3.2925   -8.6531 H   0  0  0  0  0  0  0  0  0  0  0  0
   -3.2841   -5.0206   -9.0229 H   0  0  0  0  0  0  0  0  0  0  0  0
   -1.7491   -4.2297   -9.4359 H   0  0  0  0  0  0  0  0  0  0  0  0
   -1.2536   -3.9789   -4.4994 H   0  0  0  0  0  0  0  0  0  0  0  0
   -0.1458   -1.9897   -3.5661 H   0  0  0  0  0  0  0  0  0  0  0  0
    6.6728   -1.0331   -2.4318 H   0  0  0  0  0  0  0  0  0  0  0  0
    8.9938   -1.7166   -2.2995 H   0  0  0  0  0  0  0  0  0  0  0  0
   12.2547   -3.2420   -1.6808 H   0  0  0  0  0  0  0  0  0  0  0  0
   10.7532   -3.2630   -2.6232 H   0  0  0  0  0  0  0  0  0  0  0  0
   11.2904   -1.7537   -1.8126 H   0  0  0  0  0  0  0  0  0  0  0  0
    8.2425   -3.5570    1.4904 H   0  0  0  0  0  0  0  0  0  0  0  0
    5.8889   -2.8578    1.3587 H   0  0  0  0  0  0  0  0  0  0  0  0
    2.3041   -2.4514   -0.1284 H   0  0  0  0  0  0  0  0  0  0  0  0
    0.9844   -1.8891    1.8778 H   0  0  0  0  0  0  0  0  0  0  0  0
    2.8975    1.4156    4.9609 H   0  0  0  0  0  0  0  0  0  0  0  0
    3.4409   -0.1919    5.5417 H   0  0  0  0  0  0  0  0  0  0  0  0
    1.9945    0.5704    6.2414 H   0  0  0  0  0  0  0  0  0  0  0  0
    4.2596    0.4292    3.3625 H   0  0  0  0  0  0  0  0  0  0  0  0
    5.5395   -0.0912    1.3561 H   0  0  0  0  0  0  0  0  0  0  0  0
    5.5835   -3.7026   -4.2007 H   0  0  0  0  0  0  0  0  0  0  0  0
    9.0102   -6.9609   -1.2418 H   0  0  0  0  0  0  0  0  0  0  0  0
    8.8044   -7.9960    0.9703 H   0  0  0  0  0  0  0  0  0  0  0  0
    7.6211   -8.2932    3.0855 H   0  0  0  0  0  0  0  0  0  0  0  0
    5.7168   -7.7665    4.5518 H   0  0  0  0  0  0  0  0  0  0  0  0
    3.9666   -6.2023    3.8090 H   0  0  0  0  0  0  0  0  0  0  0  0
    4.0987   -5.1554    1.5763 H   0  0  0  0  0  0  0  0  0  0  0  0
  1  2  2  0  0  0  0
  2  3  1  0  0  0  0
  3  4  2  0  0  0  0
  3  5  1  0  0  0  0
  5  6  2  0  0  0  0
  6  7  1  0  0  0  0
  7  8  2  0  0  0  0
  8  9  1  0  0  0  0
  9 10  2  0  0  0  0
 10 11  1  0  0  0  0
 11 12  2  0  0  0  0
 12 13  1  0  0  0  0
 13 14  2  0  0  0  0
  6 15  1  0  0  0  0
 15 16  2  0  0  0  0
 16 17  1  0  0  0  0
 17 18  3  0  0  0  0
 16 19  1  0  0  0  0
 19 20  3  0  0  0  0
  1 21  1  0  0  0  0
 21 22  2  0  0  0  0
 22 23  1  0  0  0  0
 23 24  2  0  0  0  0
 24 25  1  0  0  0  0
 25 26  1  0  0  0  0
 24 27  1  0  0  0  0
 27 28  1  0  0  0  0
 28 29  2  0  0  0  0
 29 30  1  0  0  0  0
 30 31  2  0  0  0  0
 31 32  1  0  0  0  0
 32 33  1  0  0  0  0
 33 34  1  0  0  0  0
 34 35  1  0  0  0  0
 33 36  2  0  0  0  0
 29 37  1  0  0  0  0
 37 38  2  0  0  0  0
 38 39  1  0  0  0  0
 39 40  1  0  0  0  0
 40 41  2  0  0  0  0
 41 42  1  0  0  0  0
 42 43  2  0  0  0  0
 43 44  1  0  0  0  0
 44 45  1  0  0  0  0
 43 46  1  0  0  0  0
 46 47  2  0  0  0  0
 39 48  1  0  0  0  0
 48 49  2  0  0  0  0
 49 50  1  0  0  0  0
 50 51  2  0  0  0  0
 51 52  1  0  0  0  0
 52 53  1  0  0  0  0
 51 54  1  0  0  0  0
 54 55  2  0  0  0  0
 38 56  1  0  0  0  0
 56 57  1  0  0  0  0
 57 58  1  0  0  0  0
 58 59  2  0  0  0  0
 59 60  1  0  0  0  0
 60 61  1  0  0  0  0
 61 62  2  0  0  0  0
 62 63  1  0  0  0  0
 63 64  2  0  0  0  0
 64 65  1  0  0  0  0
 65 66  1  0  0  0  0
 64 67  1  0  0  0  0
 67 68  2  0  0  0  0
 60 69  1  0  0  0  0
 69 70  2  0  0  0  0
 70 71  1  0  0  0  0
 71 72  2  0  0  0  0
 72 73  1  0  0  0  0
 73 74  1  0  0  0  0
 72 75  1  0  0  0  0
 75 76  2  0  0  0  0
 59 77  1  0  0  0  0
 77 78  1  0  0  0  0
 58 79  1  0  0  0  0
 79 80  2  0  0  0  0
 80 81  1  0  0  0  0
 81 82  1  0  0  0  0
 82 83  2  0  0  0  0
 83 84  1  0  0  0  0
 84 85  2  0  0  0  0
 85 86  1  0  0  0  0
 86 87  1  0  0  0  0
 85 88  1  0  0  0  0
 88 89  2  0  0  0  0
 81 90  1  0  0  0  0
 90 91  2  0  0  0  0
 91 92  1  0  0  0  0
 92 93  2  0  0  0  0
 93 94  1  0  0  0  0
 94 95  1  0  0  0  0
 93 96  1  0  0  0  0
 96 97  2  0  0  0  0
 80 98  1  0  0  0  0
 98 99  1  0  0  0  0
 99100  1  0  0  0  0
100101  2  0  0  0  0
101102  1  0  0  0  0
102103  1  0  0  0  0
103104  2  0  0  0  0
104105  1  0  0  0  0
105106  2  0  0  0  0
106107  1  0  0  0  0
107108  1  0  0  0  0
106109  1  0  0  0  0
109110  2  0  0  0  0
102111  1  0  0  0  0
111112  2  0  0  0  0
112113  1  0  0  0  0
113114  2  0  0  0  0
114115  1  0  0  0  0
115116  1  0  0  0  0
114117  1  0  0  0  0
117118  2  0  0  0  0
101119  1  0  0  0  0
119120  1  0  0  0  0
100121  1  0  0  0  0
121122  2  0  0  0  0
122123  1  0  0  0  0
123124  2  0  0  0  0
123125  1  0  0  0  0
125126  2  0  0  0  0
126127  1  0  0  0  0
127128  2  0  0  0  0
128129  1  0  0  0  0
129130  2  0  0  0  0
130131  1  0  0  0  0
131132  2  0  0  0  0
132133  1  0  0  0  0
133134  2  0  0  0  0
126135  1  0  0  0  0
135136  2  0  0  0  0
136137  1  0  0  0  0
137138  3  0  0  0  0
136139  1  0  0  0  0
139140  3  0  0  0  0
 15  2  1  0  0  0  0
 31 21  1  0  0  0  0
 78 37  1  0  0  0  0
120 79  1  0  0  0  0
135122  1  0  0  0  0
 14  5  1  0  0  0  0
 28 22  1  0  0  0  0
 36 30  1  0  0  0  0
 47 40  1  0  0  0  0
 55 48  1  0  0  0  0
 77 56  2  0  0  0  0
 89 82  1  0  0  0  0
 97 90  1  0  0  0  0
119 98  2  0  0  0  0
134125  1  0  0  0  0
 14  9  1  0  0  0  0
 68 61  1  0  0  0  0
 76 69  1  0  0  0  0
110103  1  0  0  0  0
118111  1  0  0  0  0
134129  1  0  0  0  0
  1141  1  0  0  0  0
  7142  1  0  0  0  0
  8143  1  0  0  0  0
 10144  1  0  0  0  0
 11145  1  0  0  0  0
 12146  1  0  0  0  0
 13147  1  0  0  0  0
 23148  1  0  0  0  0
 25149  1  0  0  0  0
 25150  1  0  0  0  0
 26151  1  0  0  0  0
 26152  1  0  0  0  0
 26153  1  0  0  0  0
 34154  1  0  0  0  0
 34155  1  0  0  0  0
 35156  1  0  0  0  0
 35157  1  0  0  0  0
 35158  1  0  0  0  0
 36159  1  0  0  0  0
 41160  1  0  0  0  0
 42161  1  0  0  0  0
 45162  1  0  0  0  0
 45163  1  0  0  0  0
 45164  1  0  0  0  0
 46165  1  0  0  0  0
 47166  1  0  0  0  0
 49167  1  0  0  0  0
 50168  1  0  0  0  0
 53169  1  0  0  0  0
 53170  1  0  0  0  0
 53171  1  0  0  0  0
 54172  1  0  0  0  0
 55173  1  0  0  0  0
 62174  1  0  0  0  0
 63175  1  0  0  0  0
 66176  1  0  0  0  0
 66177  1  0  0  0  0
 66178  1  0  0  0  0
 67179  1  0  0  0  0
 68180  1  0  0  0  0
 70181  1  0  0  0  0
 71182  1  0  0  0  0
 74183  1  0  0  0  0
 74184  1  0  0  0  0
 74185  1  0  0  0  0
 75186  1  0  0  0  0
 76187  1  0  0  0  0
 83188  1  0  0  0  0
 84189  1  0  0  0  0
 87190  1  0  0  0  0
 87191  1  0  0  0  0
 87192  1  0  0  0  0
 88193  1  0  0  0  0
 89194  1  0  0  0  0
 91195  1  0  0  0  0
 92196  1  0  0  0  0
 95197  1  0  0  0  0
 95198  1  0  0  0  0
 95199  1  0  0  0  0
 96200  1  0  0  0  0
 97201  1  0  0  0  0
104202  1  0  0  0  0
105203  1  0  0  0  0
108204  1  0  0  0  0
108205  1  0  0  0  0
108206  1  0  0  0  0
109207  1  0  0  0  0
110208  1  0  0  0  0
112209  1  0  0  0  0
113210  1  0  0  0  0
116211  1  0  0  0  0
116212  1  0  0  0  0
116213  1  0  0  0  0
117214  1  0  0  0  0
118215  1  0  0  0  0
121216  1  0  0  0  0
127217  1  0  0  0  0
128218  1  0  0  0  0
130219  1  0  0  0  0
131220  1  0  0  0  0
132221  1  0  0  0  0
133222  1  0  0  0  0
M  END
