260

C          2.45390        6.18440        6.46490
C          2.45180        5.64700        7.73480
C          2.57530        4.21070        8.02850
O          2.66460        3.30540        7.21650
C          2.70040        4.11700        9.49830
C          2.66910        5.39580       10.04800
C          2.76360        5.57960       11.43210
C          2.88120        4.47540       12.23650
C          2.90600        3.16610       11.71090
C          3.01370        2.03300       12.54380
C          3.02950        0.77380       12.01140
C          2.93650        0.58570       10.62240
C          2.83280        1.65830        9.78210
C          2.81790        2.96970       10.30200
C          2.47980        6.36680        8.97390
C          2.18220        7.70010        9.12790
C          1.76100        8.52950        8.07100
N          1.33880        9.24580        7.27660
C          2.15100        8.37950       10.35930
N          2.09400        9.00400       11.32230
C          2.05840        5.53100        5.29680
C          1.20210        4.43000        5.08730
N          0.38490        3.83370        6.00830
C         -0.08640        4.50740        7.14030
C         -0.20010        3.83190        8.35780
C         -0.58810        4.50840        9.49220
C         -0.88560        5.87010        9.44120
S         -1.27610        6.64630       10.97090
C         -1.53120        8.38950       10.53820
C         -0.84620        6.52850        8.21630
C         -0.44600        5.85210        7.08250
C         -0.07050        2.51780        5.78850
C          0.82000        1.49980        5.46430
C          0.36300        0.21400        5.24430
C         -0.99470       -0.06890        5.33430
S         -1.70510       -1.65050        5.01310
C         -0.28530       -2.72030        4.65530
C         -1.88360        0.94740        5.68780
C         -1.42790        2.22620        5.91620
C          1.15650        4.10220        3.71530
S          0.34260        2.88120        2.81270
C          0.84950        3.61350        1.28410
C          1.67830        4.70470        1.48950
N          2.20200        5.53450        0.50940
C          2.23160        6.91720        0.75330
C          1.18550        7.52360        1.44240
C          1.19780        8.87640        1.71450
C          2.26810        9.65500        1.29930
S          2.38630       11.39070        1.59580
C          1.09800       11.69300        2.83940
C          3.31440        9.05760        0.59920
C          3.30200        7.70670        0.33210
C          2.88780        5.02530       -0.60000
C          2.73050        5.63830       -1.84020
C          3.46750        5.22230       -2.92890
C          4.38620        4.19070       -2.78860
S          5.42890        3.65040       -4.10730
C          5.30600        4.98240       -5.33580
C          4.52170        3.54840       -1.56180
C          3.77470        3.95610       -0.47710
C          1.84240        4.96590        2.87610
S          2.64470        6.20610        3.76620
C          0.33990        2.94110        0.12810
C         -0.94260        2.39600        0.08670
N         -1.96660        2.78260        0.92250
C         -2.09030        4.09760        1.38880
C         -1.76490        5.18060        0.57100
C         -1.90290        6.46880        1.03520
C         -2.33850        6.71130        2.33810
S         -2.40170        8.40460        2.84020
C         -2.85790        8.33330        4.59460
C         -2.67990        5.63930        3.14930
C         -2.57020        4.34660        2.67210
C         -3.02860        1.88340        1.22750
C         -4.16000        1.84530        0.42500
C         -5.21020        1.00050        0.73390
C         -5.13990        0.19210        1.86110
S         -6.42800       -0.88580        2.38310
C         -7.58770       -0.88480        0.98780
C         -4.00870        0.23890        2.67330
C         -2.96120        1.07880        2.35900
C         -1.03810        1.40220       -0.91240
S         -2.22560        0.21860       -1.31970
C         -1.10640       -0.55710       -2.43630
C          0.05810        0.17630       -2.60290
N          1.04790       -0.12130       -3.53070
C          0.69060       -0.29000       -4.87680
C         -0.34290        0.45460       -5.43910
C         -0.60800        0.38130       -6.79290
C          0.16500       -0.43050       -7.60870
S          0.00910       -0.46650       -9.36660
C         -0.78360        1.12820       -9.73380
C          1.14300       -1.24240       -7.03870
C          1.40160       -1.17600       -5.68940
C          2.39930        0.00500       -3.18170
C          2.80580       -0.28490       -1.88040
C          4.13200       -0.19530       -1.52450
C          5.09270        0.17410       -2.46150
S          6.76260        0.24480       -1.88870
C          7.71420        0.72190       -3.35600
C          4.69570        0.46890       -3.75760
C          3.36130        0.40300       -4.10670
C          0.10930        1.25100       -1.67650
S          1.35020        2.35700       -1.19360
C         -1.45190       -1.88660       -2.84830
C         -1.89330       -2.85310       -1.95340
N         -1.98260       -2.68330       -0.57350
C         -0.86520       -2.20390        0.12690
C         -1.01830       -1.26430        1.14250
C          0.08930       -0.72660        1.76570
C          1.37330       -1.14130        1.43380
C          2.57370       -0.50560        2.06520
C          1.51390       -2.13260        0.46750
C          0.41480       -2.64390       -0.19710
C         -3.15040       -3.08110        0.08180
C         -3.12760       -3.48320        1.41620
C         -4.28360       -3.91070        2.03340
C         -5.48910       -3.97890        1.34340
C         -6.72540       -4.47640        2.02710
C         -5.50640       -3.57030        0.01790
C         -4.36200       -3.10990       -0.60420
C         -2.19950       -4.06090       -2.61210
S         -2.65520       -5.62180       -2.05110
C         -2.64010       -6.24330       -3.70850
C         -2.22410       -5.26450       -4.63490
N         -1.95350       -5.45600       -5.96460
C         -1.49700       -6.68980       -6.44620
C         -1.94450       -7.18980       -7.66830
C         -1.52710       -8.43240       -8.10880
C         -0.66110       -9.21030       -7.35340
C         -0.25090      -10.57850       -7.79920
C         -0.18530       -8.68630       -6.15300
C         -0.59010       -7.44790       -5.70430
C         -2.23030       -4.42400       -6.88310
C         -3.35860       -3.62460       -6.72690
C         -3.67870       -2.68890       -7.68880
C         -2.89850       -2.53330       -8.82830
C         -3.31830       -1.59310       -9.91600
C         -1.75120       -3.30670       -8.95440
C         -1.40900       -4.23340       -7.98960
C         -2.00450       -4.02790       -3.98510
S         -1.39780       -2.48290       -4.49920
C         -2.96730       -7.59560       -3.86160
C         -3.42900       -8.20010       -5.00860
C         -4.16710       -7.49400       -6.06860
O         -4.46660       -6.31320       -6.08080
C         -4.59650       -8.54200       -7.01870
C         -4.17270       -9.78470       -6.55770
C         -4.46430      -10.94740       -7.28130
C         -5.15790      -10.83580       -8.45870
C         -5.58090       -9.58730       -8.96280
C         -6.27230       -9.47490      -10.18680
C         -6.66280       -8.25220      -10.65800
C         -6.38190       -7.08430       -9.92970
C         -5.71800       -7.15210       -8.73700
C         -5.30370       -8.39980       -8.22530
C         -3.41510       -9.60060       -5.32170
C         -2.67200      -10.55980       -4.67760
C         -1.82610      -10.29370       -3.58280
N         -1.09250      -10.14560       -2.71110
C         -2.59120      -11.90660       -5.07510
N         -2.46920      -13.01420       -5.35650
H          2.82110        7.19570        6.33350
H          2.74780        6.56800       11.86190
H          2.95550        4.59870       13.30730
H          3.08290        2.17950       13.61220
H          3.11400       -0.08800       12.65700
H          2.94920       -0.41810       10.22370
H          2.76630        1.52840        8.71320
H          0.04270        2.78150        8.40880
H         -0.64280        3.99560       10.44010
H         -2.39270        8.48960        9.88420
H         -0.63540        8.80000       10.08210
H         -1.72110        8.89420       11.48030
H         -1.10840        7.57100        8.13460
H         -0.39410        6.37820        6.14050
H          1.87420        1.72390        5.41520
H          1.07360       -0.56190        5.00940
H          0.22330       -2.37550        3.75900
H         -0.70330       -3.70770        4.48420
H          0.38270       -2.74880        5.51120
H         -2.93510        0.72010        5.77280
H         -2.11960        3.00990        6.18820
H          0.34830        6.92660        1.76790
H          0.36130        9.30320        2.24240
H          1.24140       11.02390        3.68250
H          0.11260       11.56940        2.39900
H          1.23280       12.72270        3.15570
H          4.14670        9.66610        0.28000
H          4.13050        7.25450       -0.19200
H          2.03330        6.45680       -1.94140
H          3.32020        5.71350       -3.87740
H          4.33130        4.96430       -5.81510
H          5.49440        5.93910       -4.85800
H          6.07830        4.77660       -6.07050
H          5.23070        2.74270       -1.45890
H          3.89780        3.46970        0.47900
H         -1.40930        5.00570       -0.43340
H         -1.67180        7.30630        0.39440
H         -2.85150        9.36300        4.93890
H         -3.85330        7.91300        4.70690
H         -2.12140        7.75770        5.14760
H         -3.03320        5.79210        4.15680
H         -2.84580        3.52040        3.30940
H         -4.21960        2.48280       -0.44480
H         -6.07670        0.98940        0.09330
H         -8.33270       -1.63740        1.22580
H         -7.05830       -1.16110        0.08140
H         -8.06470        0.08660        0.89410
H         -3.95750       -0.39740        3.54360
H         -2.08650        1.11920        2.98990
H         -0.92500        1.11820       -4.81670
H         -1.40510        0.98100       -7.20210
H         -0.69030        1.26640      -10.80640
H         -0.25820        1.92060       -9.20970
H         -1.83330        1.10400       -9.45750
H          1.70850       -1.90840       -7.67210
H          2.17310       -1.79210       -5.25310
H          2.07110       -0.59360       -1.15500
H          4.44420       -0.42530       -0.51750
H          8.74760        0.77650       -3.02780
H          7.38290        1.69430       -3.70850
H          7.60980       -0.03740       -4.12550
H          5.41140        0.76640       -4.50500
H          3.07050        0.66320       -5.11310
H         -2.00940       -0.94250        1.41840
H         -0.04220        0.04090        2.51490
H          3.00820        0.21890        1.37490
H          2.30120        0.02490        2.97420
H          3.33610       -1.24770        2.29520
H          2.49970       -2.50240        0.22310
H          0.54530       -3.38740       -0.96990
H         -2.19710       -3.47060        1.96290
H         -4.24920       -4.21300        3.06990
H         -7.01110       -3.79510        2.82830
H         -7.55260       -4.55900        1.32630
H         -6.54650       -5.45490        2.47020
H         -6.42970       -3.61310       -0.54360
H         -4.40460       -2.77620       -1.63120
H         -2.62640       -6.60630       -8.26820
H         -1.90110       -8.80800       -9.05050
H          0.82650      -10.70490       -7.71000
H         -0.54430      -10.75620       -8.83060
H         -0.72390      -11.33690       -7.17430
H          0.50800       -9.26330       -5.55860
H         -0.20880       -7.06420       -4.76970
H         -4.00730       -3.78110       -5.87990
H         -4.57020       -2.09010       -7.56730
H         -3.78620       -0.70220       -9.50160
H         -4.04950       -2.08090      -10.56180
H         -2.46790       -1.30500      -10.52820
H         -1.11800       -3.18560       -9.82040
H         -0.51580       -4.83030       -8.10230
H         -2.86700       -8.19880       -2.96690
H         -4.15590      -11.91540       -6.92150
H         -5.39090      -11.72360       -9.02900
H         -6.48580      -10.37430      -10.74670
H         -7.19130       -8.17570      -11.59700
H         -6.69720       -6.12870      -10.32210
H         -5.49980       -6.26310       -8.16570
