
  xtb     02112201383D
 energy: -281.940440055095 gnorm: 0.000458061894 xtb: 6.4.1 (unknown)
164181  0     0  0            999 V2000
   -1.2875   10.3229   -4.7214 C   0  0  0  0  0  0  0  0  0  0  0  0
   -0.2346   10.5416   -3.9044 C   0  0  0  0  0  0  0  0  0  0  0  0
    0.6288    9.4470   -3.3571 C   0  0  0  0  0  0  0  0  0  0  0  0
    0.4460    8.2532   -3.4584 O   0  0  0  0  0  0  0  0  0  0  0  0
    1.7874   10.1240   -2.7572 C   0  0  0  0  0  0  0  0  0  0  0  0
    1.6418   11.5072   -2.8730 C   0  0  0  0  0  0  0  0  0  0  0  0
    2.6292   12.3660   -2.3674 C   0  0  0  0  0  0  0  0  0  0  0  0
    3.7323   11.8209   -1.7644 C   0  0  0  0  0  0  0  0  0  0  0  0
    3.9112   10.4251   -1.6396 C   0  0  0  0  0  0  0  0  0  0  0  0
    5.0529    9.8746   -1.0235 C   0  0  0  0  0  0  0  0  0  0  0  0
    5.2055    8.5181   -0.9237 C   0  0  0  0  0  0  0  0  0  0  0  0
    4.2260    7.6495   -1.4312 C   0  0  0  0  0  0  0  0  0  0  0  0
    3.1021    8.1470   -2.0320 C   0  0  0  0  0  0  0  0  0  0  0  0
    2.9176    9.5399   -2.1506 C   0  0  0  0  0  0  0  0  0  0  0  0
    0.3908   11.8105   -3.5546 C   0  0  0  0  0  0  0  0  0  0  0  0
   -0.1350   13.0540   -3.7710 C   0  0  0  0  0  0  0  0  0  0  0  0
   -1.3793   13.2998   -4.3919 C   0  0  0  0  0  0  0  0  0  0  0  0
   -2.3806   13.5735   -4.8816 N   0  0  0  0  0  0  0  0  0  0  0  0
    0.4826   14.2651   -3.3905 C   0  0  0  0  0  0  0  0  0  0  0  0
    0.9277   15.2858   -3.1126 N   0  0  0  0  0  0  0  0  0  0  0  0
   -1.8419    8.9919   -4.9163 C   0  0  0  0  0  0  0  0  0  0  0  0
   -2.1971    8.2221   -3.7986 C   0  0  0  0  0  0  0  0  0  0  0  0
   -2.5483    6.9104   -3.9907 C   0  0  0  0  0  0  0  0  0  0  0  0
   -2.8547    5.8735   -2.9718 C   0  0  0  0  0  0  0  0  0  0  0  0
   -3.0324    6.0206   -1.7871 O   0  0  0  0  0  0  0  0  0  0  0  0
   -2.8703    4.6045   -3.7473 C   0  0  0  0  0  0  0  0  0  0  0  0
   -2.7067    4.8844   -5.1184 C   0  0  0  0  0  0  0  0  0  0  0  0
   -2.5319    6.3250   -5.2735 C   0  0  0  0  0  0  0  0  0  0  0  0
   -2.2803    7.1084   -6.3826 C   0  0  0  0  0  0  0  0  0  0  0  0
   -1.9537    8.4463   -6.1934 C   0  0  0  0  0  0  0  0  0  0  0  0
   -2.6220    3.8455   -6.0250 C   0  0  0  0  0  0  0  0  0  0  0  0
   -2.6056    2.5414   -5.5467 C   0  0  0  0  0  0  0  0  0  0  0  0
   -2.6933    2.2668   -4.1838 C   0  0  0  0  0  0  0  0  0  0  0  0
   -2.8901    3.3154   -3.2746 C   0  0  0  0  0  0  0  0  0  0  0  0
   -2.4043    0.9446   -3.6462 C   0  0  0  0  0  0  0  0  0  0  0  0
   -1.2310    0.2537   -3.8499 C   0  0  0  0  0  0  0  0  0  0  0  0
   -0.2080    0.6576   -4.7284 N   0  0  0  0  0  0  0  0  0  0  0  0
   -0.3350    0.3839   -6.0867 C   0  0  0  0  0  0  0  0  0  0  0  0
   -1.0945   -0.7053   -6.5117 C   0  0  0  0  0  0  0  0  0  0  0  0
   -1.2707   -0.9705   -7.8568 C   0  0  0  0  0  0  0  0  0  0  0  0
   -0.6842   -0.1513   -8.8094 C   0  0  0  0  0  0  0  0  0  0  0  0
   -0.8328   -0.3824  -10.5566 S   0  0  0  0  0  0  0  0  0  0  0  0
   -1.8508   -1.8764  -10.7160 C   0  0  0  0  0  0  0  0  0  0  0  0
    0.0706    0.9440   -8.3921 C   0  0  0  0  0  0  0  0  0  0  0  0
    0.2396    1.2140   -7.0539 C   0  0  0  0  0  0  0  0  0  0  0  0
    0.8724    1.3617   -4.1869 C   0  0  0  0  0  0  0  0  0  0  0  0
    0.6897    2.2129   -3.0954 C   0  0  0  0  0  0  0  0  0  0  0  0
    1.7505    2.9199   -2.5749 C   0  0  0  0  0  0  0  0  0  0  0  0
    3.0237    2.7934   -3.1235 C   0  0  0  0  0  0  0  0  0  0  0  0
    4.2963    3.7797   -2.3939 S   0  0  0  0  0  0  0  0  0  0  0  0
    5.7811    3.3636   -3.3515 C   0  0  0  0  0  0  0  0  0  0  0  0
    3.2207    1.9218   -4.1855 C   0  0  0  0  0  0  0  0  0  0  0  0
    2.1570    1.2095   -4.7047 C   0  0  0  0  0  0  0  0  0  0  0  0
   -1.1309   -0.8580   -2.9809 C   0  0  0  0  0  0  0  0  0  0  0  0
    0.0933   -2.0363   -2.6697 S   0  0  0  0  0  0  0  0  0  0  0  0
   -0.9039   -2.7611   -1.4257 C   0  0  0  0  0  0  0  0  0  0  0  0
   -2.0954   -2.0888   -1.2294 C   0  0  0  0  0  0  0  0  0  0  0  0
   -3.0028   -2.3579   -0.2118 N   0  0  0  0  0  0  0  0  0  0  0  0
   -2.5342   -2.7037    1.0651 C   0  0  0  0  0  0  0  0  0  0  0  0
   -1.4001   -2.0913    1.5917 C   0  0  0  0  0  0  0  0  0  0  0  0
   -0.8733   -2.4914    2.8038 C   0  0  0  0  0  0  0  0  0  0  0  0
   -1.4813   -3.5100    3.5249 C   0  0  0  0  0  0  0  0  0  0  0  0
   -0.8636   -4.1545    5.0495 S   0  0  0  0  0  0  0  0  0  0  0  0
    0.5457   -3.0876    5.4545 C   0  0  0  0  0  0  0  0  0  0  0  0
   -2.6470   -4.0900    3.0270 C   0  0  0  0  0  0  0  0  0  0  0  0
   -3.1671   -3.6965    1.8143 C   0  0  0  0  0  0  0  0  0  0  0  0
   -4.3708   -2.2546   -0.4794 C   0  0  0  0  0  0  0  0  0  0  0  0
   -4.8687   -2.5801   -1.7425 C   0  0  0  0  0  0  0  0  0  0  0  0
   -6.2130   -2.4609   -2.0131 C   0  0  0  0  0  0  0  0  0  0  0  0
   -7.0973   -2.0258   -1.0284 C   0  0  0  0  0  0  0  0  0  0  0  0
   -8.7981   -1.9253   -1.4923 S   0  0  0  0  0  0  0  0  0  0  0  0
   -9.6288   -1.3290    0.0069 C   0  0  0  0  0  0  0  0  0  0  0  0
   -6.6086   -1.7081    0.2318 C   0  0  0  0  0  0  0  0  0  0  0  0
   -5.2584   -1.8166    0.4999 C   0  0  0  0  0  0  0  0  0  0  0  0
   -2.2223   -1.0096   -2.1410 C   0  0  0  0  0  0  0  0  0  0  0  0
   -3.4032    0.2263   -2.4058 S   0  0  0  0  0  0  0  0  0  0  0  0
   -0.4245   -3.8558   -0.6012 C   0  0  0  0  0  0  0  0  0  0  0  0
    0.8138   -3.7533    0.0443 C   0  0  0  0  0  0  0  0  0  0  0  0
    1.0948   -4.6411    1.0551 C   0  0  0  0  0  0  0  0  0  0  0  0
    2.1970   -4.5904    2.0497 C   0  0  0  0  0  0  0  0  0  0  0  0
    3.1462   -3.8428    2.0727 O   0  0  0  0  0  0  0  0  0  0  0  0
    1.8270   -5.6226    3.0540 C   0  0  0  0  0  0  0  0  0  0  0  0
    0.6576   -6.2915    2.6338 C   0  0  0  0  0  0  0  0  0  0  0  0
    0.1991   -5.6736    1.3992 C   0  0  0  0  0  0  0  0  0  0  0  0
   -0.9565   -5.8585    0.6646 C   0  0  0  0  0  0  0  0  0  0  0  0
   -1.2661   -4.9341   -0.3201 C   0  0  0  0  0  0  0  0  0  0  0  0
    0.0919   -7.2599    3.4416 C   0  0  0  0  0  0  0  0  0  0  0  0
    0.6573   -7.5163    4.6811 C   0  0  0  0  0  0  0  0  0  0  0  0
    1.7850   -6.8190    5.1317 C   0  0  0  0  0  0  0  0  0  0  0  0
    2.3842   -5.8668    4.2815 C   0  0  0  0  0  0  0  0  0  0  0  0
    2.2873   -6.8941    6.4747 C   0  0  0  0  0  0  0  0  0  0  0  0
    2.1605   -7.8363    7.4437 C   0  0  0  0  0  0  0  0  0  0  0  0
    1.7892   -9.2722    7.3094 C   0  0  0  0  0  0  0  0  0  0  0  0
    1.2578   -9.8165    6.3651 O   0  0  0  0  0  0  0  0  0  0  0  0
    2.2572   -9.9117    8.5548 C   0  0  0  0  0  0  0  0  0  0  0  0
    2.7606   -8.9454    9.4259 C   0  0  0  0  0  0  0  0  0  0  0  0
    3.2796   -9.3086   10.6762 C   0  0  0  0  0  0  0  0  0  0  0  0
    3.2804  -10.6326   11.0277 C   0  0  0  0  0  0  0  0  0  0  0  0
    2.7705  -11.6356   10.1739 C   0  0  0  0  0  0  0  0  0  0  0  0
    2.7693  -12.9938   10.5503 C   0  0  0  0  0  0  0  0  0  0  0  0
    2.2708  -13.9504    9.7091 C   0  0  0  0  0  0  0  0  0  0  0  0
    1.7523  -13.5939    8.4541 C   0  0  0  0  0  0  0  0  0  0  0  0
    1.7375  -12.2867    8.0523 C   0  0  0  0  0  0  0  0  0  0  0  0
    2.2427  -11.2784    8.8985 C   0  0  0  0  0  0  0  0  0  0  0  0
    2.6248   -7.6357    8.8092 C   0  0  0  0  0  0  0  0  0  0  0  0
    2.7643   -6.4223    9.4280 C   0  0  0  0  0  0  0  0  0  0  0  0
    2.4394   -5.1864    8.8273 C   0  0  0  0  0  0  0  0  0  0  0  0
    2.1523   -4.1547    8.4120 N   0  0  0  0  0  0  0  0  0  0  0  0
    3.1811   -6.2535   10.7652 C   0  0  0  0  0  0  0  0  0  0  0  0
    3.5239   -6.0524   11.8419 N   0  0  0  0  0  0  0  0  0  0  0  0
   -1.7245   11.1338   -5.2899 H   0  0  0  0  0  0  0  0  0  0  0  0
    2.5296   13.4355   -2.4529 H   0  0  0  0  0  0  0  0  0  0  0  0
    4.5004   12.4709   -1.3706 H   0  0  0  0  0  0  0  0  0  0  0  0
    5.8057   10.5441   -0.6328 H   0  0  0  0  0  0  0  0  0  0  0  0
    6.0846    8.1053   -0.4512 H   0  0  0  0  0  0  0  0  0  0  0  0
    4.3641    6.5819   -1.3470 H   0  0  0  0  0  0  0  0  0  0  0  0
    2.3453    7.4869   -2.4247 H   0  0  0  0  0  0  0  0  0  0  0  0
   -2.1748    8.6457   -2.8064 H   0  0  0  0  0  0  0  0  0  0  0  0
   -2.2987    6.6909   -7.3780 H   0  0  0  0  0  0  0  0  0  0  0  0
   -1.7076    9.0597   -7.0484 H   0  0  0  0  0  0  0  0  0  0  0  0
   -2.5258    4.0308   -7.0839 H   0  0  0  0  0  0  0  0  0  0  0  0
   -2.5029    1.7239   -6.2436 H   0  0  0  0  0  0  0  0  0  0  0  0
   -2.9870    3.1186   -2.2168 H   0  0  0  0  0  0  0  0  0  0  0  0
   -1.5569   -1.3526   -5.7813 H   0  0  0  0  0  0  0  0  0  0  0  0
   -1.8663   -1.8227   -8.1422 H   0  0  0  0  0  0  0  0  0  0  0  0
   -2.8303   -1.7087  -10.2773 H   0  0  0  0  0  0  0  0  0  0  0  0
   -1.3481   -2.7200  -10.2520 H   0  0  0  0  0  0  0  0  0  0  0  0
   -1.9503   -2.0485  -11.7833 H   0  0  0  0  0  0  0  0  0  0  0  0
    0.5128    1.5884   -9.1366 H   0  0  0  0  0  0  0  0  0  0  0  0
    0.8002    2.0835   -6.7468 H   0  0  0  0  0  0  0  0  0  0  0  0
   -0.2905    2.3349   -2.6620 H   0  0  0  0  0  0  0  0  0  0  0  0
    1.5993    3.5890   -1.7417 H   0  0  0  0  0  0  0  0  0  0  0  0
    5.6345    3.6258   -4.3954 H   0  0  0  0  0  0  0  0  0  0  0  0
    6.5808    3.9646   -2.9298 H   0  0  0  0  0  0  0  0  0  0  0  0
    6.0138    2.3090   -3.2364 H   0  0  0  0  0  0  0  0  0  0  0  0
    4.1981    1.7789   -4.6179 H   0  0  0  0  0  0  0  0  0  0  0  0
    2.3255    0.5237   -5.5214 H   0  0  0  0  0  0  0  0  0  0  0  0
   -0.9159   -1.2995    1.0393 H   0  0  0  0  0  0  0  0  0  0  0  0
    0.0154   -2.0036    3.1702 H   0  0  0  0  0  0  0  0  0  0  0  0
    0.9224   -3.4457    6.4090 H   0  0  0  0  0  0  0  0  0  0  0  0
    1.3155   -3.1804    4.6937 H   0  0  0  0  0  0  0  0  0  0  0  0
    0.2097   -2.0599    5.5544 H   0  0  0  0  0  0  0  0  0  0  0  0
   -3.1275   -4.8687    3.5991 H   0  0  0  0  0  0  0  0  0  0  0  0
   -4.0594   -4.1675    1.4299 H   0  0  0  0  0  0  0  0  0  0  0  0
   -4.1957   -2.9346   -2.5094 H   0  0  0  0  0  0  0  0  0  0  0  0
   -6.5974   -2.7119   -2.9897 H   0  0  0  0  0  0  0  0  0  0  0  0
   -9.4964   -2.0425    0.8150 H   0  0  0  0  0  0  0  0  0  0  0  0
  -10.6807   -1.2575   -0.2520 H   0  0  0  0  0  0  0  0  0  0  0  0
   -9.2486   -0.3482    0.2772 H   0  0  0  0  0  0  0  0  0  0  0  0
   -7.2651   -1.3644    1.0145 H   0  0  0  0  0  0  0  0  0  0  0  0
   -4.8846   -1.5545    1.4784 H   0  0  0  0  0  0  0  0  0  0  0  0
    1.4899   -2.9433   -0.1855 H   0  0  0  0  0  0  0  0  0  0  0  0
   -1.6353   -6.6676    0.8855 H   0  0  0  0  0  0  0  0  0  0  0  0
   -2.1962   -5.0238   -0.8619 H   0  0  0  0  0  0  0  0  0  0  0  0
   -0.8006   -7.7840    3.1367 H   0  0  0  0  0  0  0  0  0  0  0  0
    0.1928   -8.2400    5.3290 H   0  0  0  0  0  0  0  0  0  0  0  0
    3.2558   -5.3146    4.6028 H   0  0  0  0  0  0  0  0  0  0  0  0
    2.8684   -6.0191    6.7490 H   0  0  0  0  0  0  0  0  0  0  0  0
    3.6800   -8.5645   11.3451 H   0  0  0  0  0  0  0  0  0  0  0  0
    3.6812  -10.9319   11.9853 H   0  0  0  0  0  0  0  0  0  0  0  0
    3.1691  -13.2646   11.5168 H   0  0  0  0  0  0  0  0  0  0  0  0
    2.2737  -14.9889   10.0055 H   0  0  0  0  0  0  0  0  0  0  0  0
    1.3638  -14.3643    7.8049 H   0  0  0  0  0  0  0  0  0  0  0  0
    1.3430  -12.0039    7.0894 H   0  0  0  0  0  0  0  0  0  0  0  0
  1  2  2  0  0  0  0
  2  3  1  0  0  0  0
  3  4  2  0  0  0  0
  3  5  1  0  0  0  0
  5  6  2  0  0  0  0
  6  7  1  0  0  0  0
  7  8  2  0  0  0  0
  8  9  1  0  0  0  0
  9 10  2  0  0  0  0
 10 11  1  0  0  0  0
 11 12  2  0  0  0  0
 12 13  1  0  0  0  0
 13 14  2  0  0  0  0
  6 15  1  0  0  0  0
 15 16  2  0  0  0  0
 16 17  1  0  0  0  0
 17 18  3  0  0  0  0
 16 19  1  0  0  0  0
 19 20  3  0  0  0  0
  1 21  1  0  0  0  0
 21 22  2  0  0  0  0
 22 23  1  0  0  0  0
 23 24  1  0  0  0  0
 24 25  2  0  0  0  0
 24 26  1  0  0  0  0
 26 27  2  0  0  0  0
 27 28  1  0  0  0  0
 28 29  1  0  0  0  0
 29 30  2  0  0  0  0
 27 31  1  0  0  0  0
 31 32  2  0  0  0  0
 32 33  1  0  0  0  0
 33 34  2  0  0  0  0
 33 35  1  0  0  0  0
 35 36  2  0  0  0  0
 36 37  1  0  0  0  0
 37 38  1  0  0  0  0
 38 39  2  0  0  0  0
 39 40  1  0  0  0  0
 40 41  2  0  0  0  0
 41 42  1  0  0  0  0
 42 43  1  0  0  0  0
 41 44  1  0  0  0  0
 44 45  2  0  0  0  0
 37 46  1  0  0  0  0
 46 47  2  0  0  0  0
 47 48  1  0  0  0  0
 48 49  2  0  0  0  0
 49 50  1  0  0  0  0
 50 51  1  0  0  0  0
 49 52  1  0  0  0  0
 52 53  2  0  0  0  0
 36 54  1  0  0  0  0
 54 55  1  0  0  0  0
 55 56  1  0  0  0  0
 56 57  2  0  0  0  0
 57 58  1  0  0  0  0
 58 59  1  0  0  0  0
 59 60  2  0  0  0  0
 60 61  1  0  0  0  0
 61 62  2  0  0  0  0
 62 63  1  0  0  0  0
 63 64  1  0  0  0  0
 62 65  1  0  0  0  0
 65 66  2  0  0  0  0
 58 67  1  0  0  0  0
 67 68  2  0  0  0  0
 68 69  1  0  0  0  0
 69 70  2  0  0  0  0
 70 71  1  0  0  0  0
 71 72  1  0  0  0  0
 70 73  1  0  0  0  0
 73 74  2  0  0  0  0
 57 75  1  0  0  0  0
 75 76  1  0  0  0  0
 56 77  1  0  0  0  0
 77 78  2  0  0  0  0
 78 79  1  0  0  0  0
 79 80  1  0  0  0  0
 80 81  2  0  0  0  0
 80 82  1  0  0  0  0
 82 83  2  0  0  0  0
 83 84  1  0  0  0  0
 84 85  1  0  0  0  0
 85 86  2  0  0  0  0
 83 87  1  0  0  0  0
 87 88  2  0  0  0  0
 88 89  1  0  0  0  0
 89 90  2  0  0  0  0
 89 91  1  0  0  0  0
 91 92  2  0  0  0  0
 92 93  1  0  0  0  0
 93 94  2  0  0  0  0
 93 95  1  0  0  0  0
 95 96  2  0  0  0  0
 96 97  1  0  0  0  0
 97 98  2  0  0  0  0
 98 99  1  0  0  0  0
 99100  2  0  0  0  0
100101  1  0  0  0  0
101102  2  0  0  0  0
102103  1  0  0  0  0
103104  2  0  0  0  0
 96105  1  0  0  0  0
105106  2  0  0  0  0
106107  1  0  0  0  0
107108  3  0  0  0  0
106109  1  0  0  0  0
109110  3  0  0  0  0
 15  2  1  0  0  0  0
 30 21  1  0  0  0  0
 76 35  1  0  0  0  0
 86 77  1  0  0  0  0
105 92  1  0  0  0  0
 14  5  1  0  0  0  0
 28 23  2  0  0  0  0
 45 38  1  0  0  0  0
 53 46  1  0  0  0  0
 75 54  2  0  0  0  0
 84 79  2  0  0  0  0
104 95  1  0  0  0  0
 14  9  1  0  0  0  0
 34 26  1  0  0  0  0
 66 59  1  0  0  0  0
 74 67  1  0  0  0  0
 90 82  1  0  0  0  0
104 99  1  0  0  0  0
  1111  1  0  0  0  0
  7112  1  0  0  0  0
  8113  1  0  0  0  0
 10114  1  0  0  0  0
 11115  1  0  0  0  0
 12116  1  0  0  0  0
 13117  1  0  0  0  0
 22118  1  0  0  0  0
 29119  1  0  0  0  0
 30120  1  0  0  0  0
 31121  1  0  0  0  0
 32122  1  0  0  0  0
 34123  1  0  0  0  0
 39124  1  0  0  0  0
 40125  1  0  0  0  0
 43126  1  0  0  0  0
 43127  1  0  0  0  0
 43128  1  0  0  0  0
 44129  1  0  0  0  0
 45130  1  0  0  0  0
 47131  1  0  0  0  0
 48132  1  0  0  0  0
 51133  1  0  0  0  0
 51134  1  0  0  0  0
 51135  1  0  0  0  0
 52136  1  0  0  0  0
 53137  1  0  0  0  0
 60138  1  0  0  0  0
 61139  1  0  0  0  0
 64140  1  0  0  0  0
 64141  1  0  0  0  0
 64142  1  0  0  0  0
 65143  1  0  0  0  0
 66144  1  0  0  0  0
 68145  1  0  0  0  0
 69146  1  0  0  0  0
 72147  1  0  0  0  0
 72148  1  0  0  0  0
 72149  1  0  0  0  0
 73150  1  0  0  0  0
 74151  1  0  0  0  0
 78152  1  0  0  0  0
 85153  1  0  0  0  0
 86154  1  0  0  0  0
 87155  1  0  0  0  0
 88156  1  0  0  0  0
 90157  1  0  0  0  0
 91158  1  0  0  0  0
 97159  1  0  0  0  0
 98160  1  0  0  0  0
100161  1  0  0  0  0
101162  1  0  0  0  0
102163  1  0  0  0  0
103164  1  0  0  0  0
M  END
