
  xtb     02102219593D
 energy: -273.887414434034 gnorm: 0.000866745202 xtb: 6.4.1 (unknown)
147162  0     0  0            999 V2000
   10.2725   -0.4588    3.0590 C   0  0  0  0  0  0  0  0  0  0  0  0
   10.8611    0.7575    3.2287 C   0  0  0  0  0  0  0  0  0  0  0  0
   10.1746    2.0638    3.3978 C   0  0  0  0  0  0  0  0  0  0  0  0
    8.9935    2.3171    3.3079 O   0  0  0  0  0  0  0  0  0  0  0  0
   11.2312    3.0149    3.8013 C   0  0  0  0  0  0  0  0  0  0  0  0
   11.0977    4.3545    4.1044 C   0  0  0  0  0  0  0  0  0  0  0  0
   12.2340    5.0672    4.4680 C   0  0  0  0  0  0  0  0  0  0  0  0
   12.1103    6.7375    4.8470 Cl  0  0  0  0  0  0  0  0  0  0  0  0
   13.4719    4.4182    4.5230 C   0  0  0  0  0  0  0  0  0  0  0  0
   15.0163    5.3851    5.0272 Br  0  0  0  0  0  0  0  0  0  0  0  0
   13.6048    3.0696    4.2181 C   0  0  0  0  0  0  0  0  0  0  0  0
   12.4726    2.3589    3.8513 C   0  0  0  0  0  0  0  0  0  0  0  0
   12.2831    0.9621    3.4756 C   0  0  0  0  0  0  0  0  0  0  0  0
   13.2848    0.0433    3.3141 C   0  0  0  0  0  0  0  0  0  0  0  0
   14.6512    0.3190    3.5410 C   0  0  0  0  0  0  0  0  0  0  0  0
   15.7742    0.4827    3.7096 N   0  0  0  0  0  0  0  0  0  0  0  0
   13.1182   -1.2907    2.8820 C   0  0  0  0  0  0  0  0  0  0  0  0
   13.0750   -2.3807    2.5239 N   0  0  0  0  0  0  0  0  0  0  0  0
    8.9217   -0.7786    2.6919 C   0  0  0  0  0  0  0  0  0  0  0  0
    8.1244    0.0599    1.8909 C   0  0  0  0  0  0  0  0  0  0  0  0
    6.8603   -0.3565    1.5564 C   0  0  0  0  0  0  0  0  0  0  0  0
    5.8315    0.3514    0.7480 C   0  0  0  0  0  0  0  0  0  0  0  0
    5.9212    1.4290    0.2109 O   0  0  0  0  0  0  0  0  0  0  0  0
    4.6606   -0.5627    0.7703 C   0  0  0  0  0  0  0  0  0  0  0  0
    4.9858   -1.7320    1.4878 C   0  0  0  0  0  0  0  0  0  0  0  0
    6.3445   -1.5981    1.9859 C   0  0  0  0  0  0  0  0  0  0  0  0
    7.1310   -2.4371    2.7574 C   0  0  0  0  0  0  0  0  0  0  0  0
    8.4092   -2.0260    3.0877 C   0  0  0  0  0  0  0  0  0  0  0  0
    4.0488   -2.7414    1.6158 C   0  0  0  0  0  0  0  0  0  0  0  0
    2.7719   -2.5307    1.1181 C   0  0  0  0  0  0  0  0  0  0  0  0
    2.4143   -1.3271    0.5078 C   0  0  0  0  0  0  0  0  0  0  0  0
    3.4002   -0.3531    0.2723 C   0  0  0  0  0  0  0  0  0  0  0  0
    1.0357   -1.0235    0.1961 C   0  0  0  0  0  0  0  0  0  0  0  0
    0.3836    0.1780    0.4382 C   0  0  0  0  0  0  0  0  0  0  0  0
    0.9203    1.2683    1.0990 N   0  0  0  0  0  0  0  0  0  0  0  0
    1.9019    1.0970    2.0881 C   0  0  0  0  0  0  0  0  0  0  0  0
    2.9882    1.9651    2.1631 C   0  0  0  0  0  0  0  0  0  0  0  0
    4.0236    1.7275    3.0464 C   0  0  0  0  0  0  0  0  0  0  0  0
    3.9863    0.6140    3.8745 C   0  0  0  0  0  0  0  0  0  0  0  0
    5.2984    0.1362    4.9521 S   0  0  0  0  0  0  0  0  0  0  0  0
    6.3945    1.5799    4.9782 C   0  0  0  0  0  0  0  0  0  0  0  0
    2.8660   -0.2160    3.8547 C   0  0  0  0  0  0  0  0  0  0  0  0
    1.8322    0.0261    2.9809 C   0  0  0  0  0  0  0  0  0  0  0  0
    0.4844    2.5588    0.7639 C   0  0  0  0  0  0  0  0  0  0  0  0
    0.2363    2.9044   -0.5649 C   0  0  0  0  0  0  0  0  0  0  0  0
   -0.2076    4.1685   -0.8808 C   0  0  0  0  0  0  0  0  0  0  0  0
   -0.4054    5.1196    0.1185 C   0  0  0  0  0  0  0  0  0  0  0  0
   -0.9807    6.7009   -0.4099 S   0  0  0  0  0  0  0  0  0  0  0  0
   -1.1284    7.6531    1.1286 C   0  0  0  0  0  0  0  0  0  0  0  0
   -0.1433    4.7840    1.4406 C   0  0  0  0  0  0  0  0  0  0  0  0
    0.2951    3.5139    1.7579 C   0  0  0  0  0  0  0  0  0  0  0  0
   -0.9611    0.1192   -0.0095 C   0  0  0  0  0  0  0  0  0  0  0  0
   -2.2878    1.2303    0.0305 S   0  0  0  0  0  0  0  0  0  0  0  0
   -3.3098    0.0540   -0.7689 C   0  0  0  0  0  0  0  0  0  0  0  0
   -2.6827   -1.1836   -0.9405 C   0  0  0  0  0  0  0  0  0  0  0  0
   -3.3256   -2.3527   -1.2759 N   0  0  0  0  0  0  0  0  0  0  0  0
   -2.6350   -3.3581   -1.9593 C   0  0  0  0  0  0  0  0  0  0  0  0
   -1.7031   -3.0329   -2.9414 C   0  0  0  0  0  0  0  0  0  0  0  0
   -0.9997   -4.0226   -3.5987 C   0  0  0  0  0  0  0  0  0  0  0  0
   -1.2226   -5.3575   -3.2867 C   0  0  0  0  0  0  0  0  0  0  0  0
   -0.3816   -6.7073   -4.0459 S   0  0  0  0  0  0  0  0  0  0  0  0
    0.8820   -5.9123   -5.0786 C   0  0  0  0  0  0  0  0  0  0  0  0
   -2.1758   -5.6867   -2.3223 C   0  0  0  0  0  0  0  0  0  0  0  0
   -2.8740   -4.7014   -1.6642 C   0  0  0  0  0  0  0  0  0  0  0  0
   -4.6897   -2.5091   -0.9820 C   0  0  0  0  0  0  0  0  0  0  0  0
   -5.2109   -2.0285    0.2172 C   0  0  0  0  0  0  0  0  0  0  0  0
   -6.5725   -2.0067    0.4366 C   0  0  0  0  0  0  0  0  0  0  0  0
   -7.4441   -2.4745   -0.5416 C   0  0  0  0  0  0  0  0  0  0  0  0
   -9.1955   -2.3613   -0.4325 S   0  0  0  0  0  0  0  0  0  0  0  0
   -9.4701   -1.2978    1.0106 C   0  0  0  0  0  0  0  0  0  0  0  0
   -6.9172   -3.0648   -1.6905 C   0  0  0  0  0  0  0  0  0  0  0  0
   -5.5575   -3.0894   -1.9071 C   0  0  0  0  0  0  0  0  0  0  0  0
   -1.3276   -1.1098   -0.5381 C   0  0  0  0  0  0  0  0  0  0  0  0
   -0.0233   -2.2449   -0.4821 S   0  0  0  0  0  0  0  0  0  0  0  0
   -4.6369    0.4068   -1.1477 C   0  0  0  0  0  0  0  0  0  0  0  0
   -5.2282   -0.0293   -2.3500 C   0  0  0  0  0  0  0  0  0  0  0  0
   -6.6145    0.2266   -2.6801 C   0  0  0  0  0  0  0  0  0  0  0  0
   -6.9485   -0.3356   -3.8418 N   0  0  0  0  0  0  0  0  0  0  0  0
   -5.6551   -1.0186   -4.4887 S   0  0  0  0  0  4  0  0  0  0  0  0
   -4.6038   -0.7053   -3.3196 N   0  0  0  0  0  0  0  0  0  0  0  0
   -7.4776    0.9369   -1.8200 C   0  0  0  0  0  0  0  0  0  0  0  0
   -6.8841    1.3607   -0.6108 C   0  0  0  0  0  0  0  0  0  0  0  0
   -7.5072    2.0049    0.3777 N   0  0  0  0  0  0  0  0  0  0  0  0
   -6.4514    2.3250    1.5477 S   0  0  0  0  0  0  0  0  0  0  0  0
   -5.1507    1.6653    0.8785 N   0  0  0  0  0  0  0  0  0  0  0  0
   -5.4822    1.1609   -0.3116 C   0  0  0  0  0  0  0  0  0  0  0  0
   -8.8519    1.1839   -2.0761 C   0  0  0  0  0  0  0  0  0  0  0  0
   -9.4106    1.3982   -3.3039 C   0  0  0  0  0  0  0  0  0  0  0  0
   -8.6603    1.8179   -4.5135 C   0  0  0  0  0  0  0  0  0  0  0  0
   -7.4792    2.0738   -4.6113 O   0  0  0  0  0  0  0  0  0  0  0  0
   -9.6848    2.0272   -5.5582 C   0  0  0  0  0  0  0  0  0  0  0  0
   -9.5025    2.4091   -6.8724 C   0  0  0  0  0  0  0  0  0  0  0  0
  -10.6099    2.5795   -7.6958 C   0  0  0  0  0  0  0  0  0  0  0  0
  -10.4885    2.9885   -9.1273 C   0  0  0  0  0  0  0  0  0  0  0  0
  -11.8689    2.3564   -7.1353 C   0  0  0  0  0  0  0  0  0  0  0  0
  -12.9483    2.5215   -7.9243 F   0  0  0  0  0  0  0  0  0  0  0  0
  -12.0798    1.9817   -5.8186 C   0  0  0  0  0  0  0  0  0  0  0  0
  -10.9624    1.8160   -5.0150 C   0  0  0  0  0  0  0  0  0  0  0  0
  -10.8251    1.4436   -3.6091 C   0  0  0  0  0  0  0  0  0  0  0  0
  -11.8631    1.1504   -2.7626 C   0  0  0  0  0  0  0  0  0  0  0  0
  -13.2238    1.2040   -3.1319 C   0  0  0  0  0  0  0  0  0  0  0  0
  -14.3477    1.2302   -3.3651 N   0  0  0  0  0  0  0  0  0  0  0  0
  -11.7418    0.7646   -1.4132 C   0  0  0  0  0  0  0  0  0  0  0  0
  -11.7526    0.4391   -0.3114 N   0  0  0  0  0  0  0  0  0  0  0  0
   10.8936   -1.3288    3.2381 H   0  0  0  0  0  0  0  0  0  0  0  0
   10.1331    4.8345    4.0562 H   0  0  0  0  0  0  0  0  0  0  0  0
   14.5776    2.6092    4.2781 H   0  0  0  0  0  0  0  0  0  0  0  0
    8.4962    0.9995    1.5179 H   0  0  0  0  0  0  0  0  0  0  0  0
    6.7607   -3.3930    3.0941 H   0  0  0  0  0  0  0  0  0  0  0  0
    9.0334   -2.6732    3.6871 H   0  0  0  0  0  0  0  0  0  0  0  0
    4.2876   -3.6623    2.1253 H   0  0  0  0  0  0  0  0  0  0  0  0
    2.0139   -3.2897    1.2477 H   0  0  0  0  0  0  0  0  0  0  0  0
    3.1716    0.5436   -0.2824 H   0  0  0  0  0  0  0  0  0  0  0  0
    3.0441    2.8120    1.4960 H   0  0  0  0  0  0  0  0  0  0  0  0
    4.8675    2.3978    3.0517 H   0  0  0  0  0  0  0  0  0  0  0  0
    6.8944    1.7033    4.0226 H   0  0  0  0  0  0  0  0  0  0  0  0
    7.1317    1.3708    5.7476 H   0  0  0  0  0  0  0  0  0  0  0  0
    5.8232    2.4632    5.2473 H   0  0  0  0  0  0  0  0  0  0  0  0
    2.8253   -1.0565    4.5302 H   0  0  0  0  0  0  0  0  0  0  0  0
    0.9709   -0.6247    2.9699 H   0  0  0  0  0  0  0  0  0  0  0  0
    0.4002    2.1789   -1.3478 H   0  0  0  0  0  0  0  0  0  0  0  0
   -0.4010    4.4383   -1.9075 H   0  0  0  0  0  0  0  0  0  0  0  0
   -1.4848    8.6341    0.8304 H   0  0  0  0  0  0  0  0  0  0  0  0
   -1.8520    7.1834    1.7885 H   0  0  0  0  0  0  0  0  0  0  0  0
   -0.1568    7.7442    1.6053 H   0  0  0  0  0  0  0  0  0  0  0  0
   -0.2843    5.4975    2.2360 H   0  0  0  0  0  0  0  0  0  0  0  0
    0.4891    3.2542    2.7880 H   0  0  0  0  0  0  0  0  0  0  0  0
   -1.5487   -1.9973   -3.2035 H   0  0  0  0  0  0  0  0  0  0  0  0
   -0.2896   -3.7385   -4.3579 H   0  0  0  0  0  0  0  0  0  0  0  0
    0.4123   -5.3586   -5.8863 H   0  0  0  0  0  0  0  0  0  0  0  0
    1.4766   -6.7233   -5.4875 H   0  0  0  0  0  0  0  0  0  0  0  0
    1.5061   -5.2686   -4.4660 H   0  0  0  0  0  0  0  0  0  0  0  0
   -2.3503   -6.7264   -2.0921 H   0  0  0  0  0  0  0  0  0  0  0  0
   -3.6017   -4.9607   -0.9100 H   0  0  0  0  0  0  0  0  0  0  0  0
   -4.5441   -1.6408    0.9735 H   0  0  0  0  0  0  0  0  0  0  0  0
   -6.9444   -1.6172    1.3705 H   0  0  0  0  0  0  0  0  0  0  0  0
   -9.2321   -1.8356    1.9239 H   0  0  0  0  0  0  0  0  0  0  0  0
   -8.8813   -0.3905    0.9143 H   0  0  0  0  0  0  0  0  0  0  0  0
  -10.5259   -1.0450    0.9857 H   0  0  0  0  0  0  0  0  0  0  0  0
   -7.5941   -3.4720   -2.4255 H   0  0  0  0  0  0  0  0  0  0  0  0
   -5.1588   -3.5154   -2.8158 H   0  0  0  0  0  0  0  0  0  0  0  0
   -9.4769    1.2468   -1.1938 H   0  0  0  0  0  0  0  0  0  0  0  0
   -8.5044    2.5705   -7.2502 H   0  0  0  0  0  0  0  0  0  0  0  0
  -11.0454    3.9083   -9.3030 H   0  0  0  0  0  0  0  0  0  0  0  0
  -10.9157    2.2235   -9.7750 H   0  0  0  0  0  0  0  0  0  0  0  0
   -9.4484    3.1442   -9.3980 H   0  0  0  0  0  0  0  0  0  0  0  0
  -13.0879    1.8386   -5.4665 H   0  0  0  0  0  0  0  0  0  0  0  0
  1  2  2  0  0  0  0
  2  3  1  0  0  0  0
  3  4  2  0  0  0  0
  3  5  1  0  0  0  0
  5  6  2  0  0  0  0
  6  7  1  0  0  0  0
  7  8  1  0  0  0  0
  7  9  2  0  0  0  0
  9 10  1  0  0  0  0
  9 11  1  0  0  0  0
 11 12  2  0  0  0  0
 12 13  1  0  0  0  0
 13 14  2  0  0  0  0
 14 15  1  0  0  0  0
 15 16  3  0  0  0  0
 14 17  1  0  0  0  0
 17 18  3  0  0  0  0
  1 19  1  0  0  0  0
 19 20  2  0  0  0  0
 20 21  1  0  0  0  0
 21 22  1  0  0  0  0
 22 23  2  0  0  0  0
 22 24  1  0  0  0  0
 24 25  2  0  0  0  0
 25 26  1  0  0  0  0
 26 27  1  0  0  0  0
 27 28  2  0  0  0  0
 25 29  1  0  0  0  0
 29 30  2  0  0  0  0
 30 31  1  0  0  0  0
 31 32  2  0  0  0  0
 31 33  1  0  0  0  0
 33 34  2  0  0  0  0
 34 35  1  0  0  0  0
 35 36  1  0  0  0  0
 36 37  2  0  0  0  0
 37 38  1  0  0  0  0
 38 39  2  0  0  0  0
 39 40  1  0  0  0  0
 40 41  1  0  0  0  0
 39 42  1  0  0  0  0
 42 43  2  0  0  0  0
 35 44  1  0  0  0  0
 44 45  2  0  0  0  0
 45 46  1  0  0  0  0
 46 47  2  0  0  0  0
 47 48  1  0  0  0  0
 48 49  1  0  0  0  0
 47 50  1  0  0  0  0
 50 51  2  0  0  0  0
 34 52  1  0  0  0  0
 52 53  1  0  0  0  0
 53 54  1  0  0  0  0
 54 55  2  0  0  0  0
 55 56  1  0  0  0  0
 56 57  1  0  0  0  0
 57 58  2  0  0  0  0
 58 59  1  0  0  0  0
 59 60  2  0  0  0  0
 60 61  1  0  0  0  0
 61 62  1  0  0  0  0
 60 63  1  0  0  0  0
 63 64  2  0  0  0  0
 56 65  1  0  0  0  0
 65 66  2  0  0  0  0
 66 67  1  0  0  0  0
 67 68  2  0  0  0  0
 68 69  1  0  0  0  0
 69 70  1  0  0  0  0
 68 71  1  0  0  0  0
 71 72  2  0  0  0  0
 55 73  1  0  0  0  0
 73 74  1  0  0  0  0
 54 75  1  0  0  0  0
 75 76  2  0  0  0  0
 76 77  1  0  0  0  0
 77 78  1  0  0  0  0
 78 79  2  0  0  0  0
 79 80  2  0  0  0  0
 77 81  2  0  0  0  0
 81 82  1  0  0  0  0
 82 83  2  0  0  0  0
 83 84  1  0  0  0  0
 84 85  1  0  0  0  0
 85 86  2  0  0  0  0
 81 87  1  0  0  0  0
 87 88  2  0  0  0  0
 88 89  1  0  0  0  0
 89 90  2  0  0  0  0
 89 91  1  0  0  0  0
 91 92  2  0  0  0  0
 92 93  1  0  0  0  0
 93 94  1  0  0  0  0
 93 95  2  0  0  0  0
 95 96  1  0  0  0  0
 95 97  1  0  0  0  0
 97 98  2  0  0  0  0
 98 99  1  0  0  0  0
 99100  2  0  0  0  0
100101  1  0  0  0  0
101102  3  0  0  0  0
100103  1  0  0  0  0
103104  3  0  0  0  0
 13  2  1  0  0  0  0
 28 19  1  0  0  0  0
 74 33  1  0  0  0  0
 86 75  1  0  0  0  0
 99 88  1  0  0  0  0
 12  5  1  0  0  0  0
 26 21  2  0  0  0  0
 43 36  1  0  0  0  0
 51 44  1  0  0  0  0
 73 52  2  0  0  0  0
 80 76  1  0  0  0  0
 86 82  1  0  0  0  0
 98 91  1  0  0  0  0
 32 24  1  0  0  0  0
 64 57  1  0  0  0  0
 72 65  1  0  0  0  0
  1105  1  0  0  0  0
  6106  1  0  0  0  0
 11107  1  0  0  0  0
 20108  1  0  0  0  0
 27109  1  0  0  0  0
 28110  1  0  0  0  0
 29111  1  0  0  0  0
 30112  1  0  0  0  0
 32113  1  0  0  0  0
 37114  1  0  0  0  0
 38115  1  0  0  0  0
 41116  1  0  0  0  0
 41117  1  0  0  0  0
 41118  1  0  0  0  0
 42119  1  0  0  0  0
 43120  1  0  0  0  0
 45121  1  0  0  0  0
 46122  1  0  0  0  0
 49123  1  0  0  0  0
 49124  1  0  0  0  0
 49125  1  0  0  0  0
 50126  1  0  0  0  0
 51127  1  0  0  0  0
 58128  1  0  0  0  0
 59129  1  0  0  0  0
 62130  1  0  0  0  0
 62131  1  0  0  0  0
 62132  1  0  0  0  0
 63133  1  0  0  0  0
 64134  1  0  0  0  0
 66135  1  0  0  0  0
 67136  1  0  0  0  0
 70137  1  0  0  0  0
 70138  1  0  0  0  0
 70139  1  0  0  0  0
 71140  1  0  0  0  0
 72141  1  0  0  0  0
 87142  1  0  0  0  0
 92143  1  0  0  0  0
 94144  1  0  0  0  0
 94145  1  0  0  0  0
 94146  1  0  0  0  0
 97147  1  0  0  0  0
M  END
