116

C         -3.90910        7.06360        6.38160
C         -4.99340        7.45850        5.66430
C         -4.96350        8.11010        4.32440
O         -4.00280        8.38140        3.64360
C         -6.36860        8.46920        4.03380
C         -6.87270        9.08080        2.90420
C         -8.23990        9.32140        2.83570
Cl        -8.90800       10.06810        1.44190
C         -9.06350        8.95160        3.90450
Br       -10.92230        9.28370        3.81420
C         -8.55420        8.34150        5.04320
C         -7.19140        8.09420        5.10940
C         -6.37080        7.46720        6.14040
C         -6.84070        6.92460        7.30520
C         -6.06140        6.26480        8.28080
N         -5.50790        5.70770        9.11830
C         -8.19890        6.94010        7.69350
N         -9.28360        6.92320        8.06650
C         -2.56520        6.85360        5.91050
C         -2.29540        6.39620        4.60820
C         -0.99540        6.12960        4.26090
C         -0.46920        5.59640        2.97440
O         -1.08860        5.32030        1.97640
C          0.99110        5.45460        3.21110
C          1.30450        5.87790        4.51790
C          0.07090        6.30390        5.16790
C         -0.18840        6.75370        6.45100
C         -1.50160        7.00600        6.81210
C          2.60670        5.78610        4.97320
C          3.57150        5.23880        4.13560
C          3.26340        4.80510        2.84790
C          1.95110        4.93910        2.37420
C          4.23290        4.10890        1.99430
C          5.01290        3.07670        2.51630
C          5.75950        2.24540        1.69890
C          5.74080        2.45060        0.32590
C          6.15450        1.66650       -0.82100
C          5.85640        2.52560       -2.01230
O          6.17410        2.36810       -3.17260
N          5.17590        3.62250       -1.55350
C          4.69670        4.67720       -2.40310
C          5.04130        3.57110       -0.18070
C          4.27940        4.38580        0.62510
C          6.48650        0.34360       -0.88120
C          6.92990       -0.48360        0.28640
O          7.38600       -0.12710        1.35350
N          6.78960       -1.79670       -0.07780
C          7.10610       -2.90100        0.78450
C          6.31900       -1.89560       -1.37330
C          5.87640       -3.02290       -2.02840
C          5.32680       -2.87520       -3.30560
C          5.33950       -1.62000       -3.91690
C          5.79460       -0.49230       -3.25910
C          6.23470       -0.60600       -1.94650
C          4.62110       -3.99970       -3.92910
C          3.38480       -3.74570       -4.53980
C          2.63460       -4.80450       -4.99060
C          1.27430       -4.79150       -5.59060
O          0.60940       -3.83390       -5.90070
C          0.92850       -6.23190       -5.73250
C          2.02800       -7.02130       -5.33570
C          3.08570       -6.13330       -4.86610
C          4.32680       -6.38410       -4.31180
C          5.07850       -5.31350       -3.84230
C          1.94670       -8.39980       -5.41520
C          0.75790       -8.97170       -5.84330
C         -0.36270       -8.19460       -6.15540
C         -0.25710       -6.79370       -6.13210
C         -1.60150       -8.84040       -6.52170
C         -2.83750       -8.43540       -6.13820
C         -3.10390       -7.47810       -5.02050
O         -2.29830       -6.86260       -4.36600
C         -4.56660       -7.52990       -4.81320
C         -5.35730       -6.85890       -3.89600
F         -4.82160       -6.00720       -3.01950
C         -6.73120       -7.06380       -3.88290
C         -7.29920       -7.94910       -4.78340
C         -6.52660       -8.63850       -5.70910
C         -5.15680       -8.42480       -5.72520
C         -4.11000       -8.98890       -6.57410
C         -4.30940       -9.82910       -7.63450
C         -3.29280      -10.31620       -8.48570
N         -2.52800      -10.74510       -9.22630
C         -5.57060      -10.31860       -8.03960
N         -6.56130      -10.75650       -8.41800
H         -4.04800        6.86670        7.43800
H         -6.21830        9.35790        2.09300
H         -9.22550        8.07710        5.84410
H         -3.08760        6.20980        3.90250
H          0.60850        6.88880        7.16640
H         -1.71850        7.34270        7.81590
H          2.87390        6.11340        5.96670
H          4.58870        5.14870        4.48760
H          1.68210        4.59520        1.38710
H          4.98910        2.88750        3.57870
H          6.33580        1.44180        2.12480
H          5.10250        5.63940       -2.08540
H          3.60550        4.72200       -2.38620
H          5.03330        4.45750       -3.41570
H          3.71720        5.21000        0.21450
H          7.51540       -2.48730        1.70560
H          7.84780       -3.55160        0.31720
H          6.20990       -3.48160        1.01480
H          5.88250       -3.98610       -1.54240
H          4.97950       -1.52660       -4.93000
H          5.79230        0.46210       -3.75710
H          2.99990       -2.74010       -4.61160
H          4.70340       -7.39200       -4.22110
H          6.04490       -5.50380       -3.39840
H          2.78370       -9.02520       -5.14390
H          0.67460      -10.04800       -5.89410
H         -1.07820       -6.16680       -6.44060
H         -1.50550       -9.73490       -7.12520
H         -7.33560       -6.52800       -3.16820
H         -8.36640       -8.10740       -4.76550
H         -6.99690       -9.32500       -6.39290
