248

C         -7.76260        5.01810        0.09430
C         -9.12010        4.77900       -0.03720
C         -9.78130        3.48120        0.00330
O         -9.27850        2.37140        0.09220
C        -11.23350        3.76500       -0.05460
C        -12.28920        2.87910       -0.05210
C        -13.58220        3.38900       -0.11010
Cl       -14.92170        2.30990       -0.10540
C        -13.78200        4.76780       -0.17270
Br       -15.54090        5.46140       -0.25090
C        -12.71580        5.66110       -0.18140
C        -11.42950        5.15520       -0.12060
C        -10.12060        5.81150       -0.13080
C         -9.92200        7.16940       -0.23110
C         -8.67640        7.81270       -0.35850
N         -7.70680        8.41510       -0.50010
C        -10.96510        8.11660       -0.24510
N        -11.77000        8.93580       -0.24390
C         -6.69270        4.14260        0.17360
C         -5.34540        4.57520        0.34850
N         -4.96080        5.81860        0.75320
C         -5.71600        6.62970        1.62040
C         -6.50070        6.08060        2.63140
C         -7.24320        6.89470        3.46230
C         -7.19870        8.27600        3.30790
S         -8.11230        9.41140        4.29730
C         -9.23170        8.35430        5.26010
C         -6.37810        8.82770        2.32610
C         -5.64720        8.01640        1.48790
C         -3.63790        6.23690        0.47660
C         -2.77500        6.55360        1.51940
C         -1.47320        6.93370        1.26120
C         -1.03170        7.03730       -0.05150
S          0.61330        7.47690       -0.50320
C          1.36410        8.02420        1.05320
C         -1.91190        6.76240       -1.09780
C         -3.19790        6.34430       -0.83990
C         -4.45090        3.51980        0.11740
S         -2.71940        3.37570        0.10170
C         -2.85220        1.62860       -0.06280
C         -4.17340        1.20390       -0.18430
N         -4.61550       -0.10360       -0.31580
C         -5.76870       -0.42510        0.42730
C         -6.86870       -1.02720       -0.17340
C         -8.03240       -1.21110        0.54360
C         -8.11100       -0.78850        1.86400
S         -9.61440       -0.90130        2.78850
C        -10.81390       -0.39970        1.51570
C         -6.99480       -0.24360        2.48550
C         -5.82940       -0.06630        1.77220
C         -4.01200       -1.04120       -1.15010
C         -3.26280       -0.64530       -2.26000
C         -2.57720       -1.58030       -3.00250
C         -2.63520       -2.93310       -2.67210
S         -1.66050       -4.03040       -3.65680
C         -1.97880       -5.66860       -2.94750
C         -3.42820       -3.33760       -1.60770
C         -4.10550       -2.40110       -0.85340
C         -5.07010        2.29180       -0.08850
S         -6.79460        2.39550       -0.07570
C         -1.69460        0.82840        0.09810
C         -0.36830        1.22180       -0.02750
N          0.03310        2.43060       -0.59380
C          0.96640        3.20700        0.09540
C          1.97510        3.90210       -0.56640
C          2.87850        4.67250        0.13740
C          2.80200        4.74580        1.52130
S          3.88930        5.72220        2.52120
C          5.22620        6.17880        1.38240
C          1.80530        4.03960        2.19060
C          0.89650        3.28190        1.48740
C         -0.37020        2.72100       -1.90140
C         -0.48780        4.03870       -2.33340
C         -0.90200        4.32750       -3.61860
C         -1.22050        3.30170       -4.49750
S         -1.77330        3.54520       -6.15670
C         -1.69400        5.34390       -6.38640
C         -1.10470        1.98070       -4.06980
C         -0.67920        1.69190       -2.79300
C          0.51200        0.18720        0.35960
S          2.22480       -0.02970        0.31740
C          2.03910       -1.74590        0.70730
C          0.72180       -2.10460        0.87100
N          0.26210       -3.40460        1.04500
C         -0.96840       -3.58550        1.68700
C         -1.88760       -4.54170        1.25370
C         -3.13030       -4.63000        1.83720
C         -3.49600       -3.76790        2.86870
S         -5.15010       -3.92240        3.47030
C         -5.31010       -2.56090        4.65630
C         -2.56570       -2.85700        3.34650
C         -1.31560       -2.77150        2.76380
C          0.71930       -4.37340        0.12740
C          0.94720       -4.03310       -1.20170
C          1.33810       -4.98690       -2.12050
C          1.49580       -6.30580       -1.72150
S          1.88340       -7.62060       -2.82780
C          2.29790       -6.77750       -4.37770
C          1.28820       -6.64940       -0.38630
C          0.90510       -5.69460        0.52990
C         -0.13270       -0.98370        0.71880
S         -1.84590       -0.82110        0.68370
C          3.24790       -2.53830        0.72120
C          4.10710       -2.68570        1.78810
N          3.83390       -2.26580        3.08320
C          4.85790       -1.59820        3.77370
C          5.11410       -1.85270        5.11820
C          6.14240       -1.19540        5.76280
C          6.94870       -0.28350        5.09170
C          8.05460        0.43270        5.80460
C          6.68860       -0.03900        3.74920
C          5.65540       -0.67960        3.09520
C          2.68280       -2.71230        3.74330
C          2.15240       -3.97330        3.47770
C          1.06390       -4.43160        4.19070
C          0.47300       -3.65790        5.18350
C         -0.68310       -4.19410        5.97020
C          0.98960       -2.39060        5.42090
C          2.07470       -1.91520        4.70940
C          5.32200       -3.29690        1.38920
S          6.79290       -3.69970        2.19140
C          7.51380       -4.20480        0.67380
C          6.62240       -4.10630       -0.39560
N          6.84670       -4.59570       -1.67980
C          6.24860       -5.79460       -2.07090
C          5.76710       -6.70060       -1.12500
C          5.25740       -7.91860       -1.52390
C          5.21780       -8.28250       -2.86560
C          4.73180       -9.63890       -3.27150
C          5.65250       -7.35560       -3.80400
C          6.14630       -6.12370       -3.42170
C          7.74310       -3.92290       -2.53070
C          8.77840       -4.60180       -3.16630
C          9.65700       -3.91540       -3.97940
C          9.52590       -2.54440       -4.18310
C         10.47460       -1.81860       -5.08700
C          8.49070       -1.87760       -3.54350
C          7.60620       -2.55260       -2.72130
C          5.37700       -3.60350        0.03820
S          3.91180       -3.18820       -0.77440
C          8.79490       -4.81930        0.68980
C          9.81900       -4.47500       -0.14490
C          9.94590       -3.11840       -0.71930
O          9.15130       -2.20710       -0.64450
C         11.30850       -3.06690       -1.29140
C         11.92950       -2.01490       -1.92990
C         13.21710       -2.20480       -2.41780
Cl        14.01080       -0.92420       -3.24570
C         13.85550       -3.43430       -2.23890
Br        15.60890       -3.68830       -2.90350
C         13.23540       -4.48960       -1.58050
C         11.94860       -4.30440       -1.10400
C         11.03600       -5.20610       -0.40760
C         11.23790       -6.53850       -0.15730
C         12.42950       -7.22650       -0.46170
N         13.38320       -7.82460       -0.68570
C         10.25350       -7.38250        0.39880
N          9.47870       -8.11990        0.81540
H         -7.48050        6.06170        0.13870
H        -12.12100        1.81500       -0.01020
H        -12.91570        6.71900       -0.23480
H         -6.53610        5.00940        2.76450
H         -7.84330        6.43940        4.23350
H         -8.66830        7.75190        5.96680
H         -9.81960        7.73400        4.59000
H         -9.88360        9.03580        5.79770
H         -6.34010        9.89950        2.21420
H         -5.03440        8.44970        0.71370
H         -3.12410        6.48190        2.53880
H         -0.81380        7.13820        2.08860
H          0.76150        8.81360        1.49200
H          2.34100        8.41520        0.78630
H          1.47850        7.18390        1.73140
H         -1.57210        6.88590       -2.11370
H         -3.87410        6.11490       -1.64940
H         -6.81310       -1.32520       -1.20960
H         -8.88520       -1.66420        0.06390
H        -10.36450        0.39710        0.92930
H        -11.68940       -0.04050        2.04830
H        -11.08500       -1.24720        0.89250
H         -7.06190        0.05940        3.51940
H         -4.96240        0.38190        2.23770
H         -3.20840        0.39960       -2.52730
H         -1.98480       -1.27320       -3.85100
H         -3.03550       -5.90750       -3.02260
H         -1.40120       -6.36790       -3.54410
H         -1.63420       -5.69980       -1.91800
H         -3.51450       -4.37670       -1.33730
H         -4.68600       -2.72420       -0.00280
H          2.05600        3.83660       -1.64050
H          3.63900        5.20690       -0.40800
H          5.97510        6.67330        1.99330
H          4.86010        6.86460        0.62360
H          5.64470        5.28240        0.93480
H          1.75020        4.10010        3.26700
H          0.11740        2.74630        2.00940
H         -0.25500        4.84200       -1.65340
H         -0.97530        5.35950       -3.92030
H         -0.67870        5.69400       -6.22390
H         -2.39530        5.83800       -5.72020
H         -1.98320        5.51830       -7.41810
H         -1.34230        1.18460       -4.75880
H         -0.57580        0.66250       -2.48430
H         -1.63180       -5.20410        0.44120
H         -3.84630       -5.35770        1.48620
H         -4.67610       -2.74040        5.52010
H         -5.06410       -1.62370        4.16710
H         -6.35360       -2.55750        4.95610
H         -2.79840       -2.19950        4.16820
H         -0.60080       -2.05850        3.14480
H          0.79160       -3.01670       -1.53210
H          1.48670       -4.68680       -3.14400
H          3.11780       -6.08670       -4.20480
H          1.42410       -6.27060       -4.77740
H          2.61260       -7.56120       -5.05940
H          1.42150       -7.67630       -0.08270
H          0.72620       -5.96560        1.55880
H          4.51120       -2.57320        5.65070
H          6.33140       -1.40580        6.80570
H          7.67790        1.35540        6.24790
H          8.46180       -0.18170        6.60430
H          8.85500        0.69280        5.11600
H          7.30110        0.66610        3.20620
H          5.45990       -0.47000        2.05320
H          2.61450       -4.59740        2.72660
H          0.67100       -5.41850        3.99190
H         -1.07970       -3.43860        6.64390
H         -0.36970       -5.05310        6.56310
H         -1.47790       -4.52280        5.30170
H          0.53820       -1.76230        6.17590
H          2.46930       -0.92960        4.90850
H          5.81860       -6.46150       -0.07330
H          4.90360       -8.61310       -0.77660
H          4.78320       -9.76470       -4.35010
H          5.34090      -10.41070       -2.80290
H          3.70180       -9.78650       -2.95040
H          5.61010       -7.59920       -4.85650
H          6.47150       -5.41700       -4.17080
H          8.89300       -5.66510       -3.00820
H         10.46560       -4.44940       -4.45860
H         10.51160       -0.75940       -4.84520
H         11.47690       -2.23520       -5.01320
H         10.14900       -1.91630       -6.12330
H          8.37420       -0.81280       -3.68180
H          6.80940       -2.02250       -2.22320
H          8.94530       -5.58920        1.43780
H         11.41990       -1.07380       -2.05800
H         13.76460       -5.42080       -1.45480
