175

C          5.76990        1.98480       10.87850
C          5.41430        1.06420       11.82830
C          5.14320       -0.38090       11.66350
O          5.37210       -1.10640       10.71950
C          4.51330       -0.81070       12.93200
C          4.00440       -2.05260       13.25060
C          3.43770       -2.23240       14.50690
Cl         2.78840       -3.76300       14.94020
C          3.39690       -1.16530       15.40840
Br         2.61380       -1.40620       17.11290
C          3.91640        0.08300       15.08840
C          4.48280        0.26230       13.83670
C          5.10230        1.42420       13.20420
C          5.37930        2.60540       13.83930
C          6.06000        3.71170       13.28500
N          6.61980        4.65040       12.93260
C          5.04950        2.86900       15.18670
N          4.80470        3.14600       16.27310
C          6.04370        1.85290        9.50230
C          6.19190        0.75750        8.68290
C          6.39850        1.08160        7.33080
C          6.52180        0.19030        6.23850
C          6.44450       -1.24620        6.38260
C          7.17520       -2.19110        5.71120
C          6.82060       -3.50900        6.04780
C          5.81060       -3.58210        6.96070
C          5.14900       -4.79520        7.51650
C          3.75610       -4.99230        6.91390
S          5.28390       -2.00630        7.43500
C          6.67160        0.77560        4.98800
C          6.69650        2.17600        4.76770
C          6.60080        3.06590        5.85740
C          6.59860        4.50740        5.70780
C          7.18360        5.43110        6.52910
C          6.94150        6.76200        6.13750
C          6.16280        6.86950        5.02690
C          5.67300        8.10100        4.34750
C          4.16500        8.27900        4.53440
S          5.71820        5.30470        4.43140
C          6.45570        2.48620        7.11400
S          6.22950        3.35680        8.59900
C          6.75940        2.48730        3.38820
C          6.73780        1.39780        2.56720
S          6.72300       -0.09620        3.48230
C          6.58830        1.35230        1.13190
C          6.20210        2.49390        0.41760
C          5.84300        2.43050       -0.91410
C          5.85970        1.20430       -1.56940
C          5.31580        0.72010       -2.81900
C          5.70400       -0.72560       -2.88400
O          5.59120       -1.51310       -3.80070
N          6.30230       -1.03320       -1.69020
C          6.80750       -2.33740       -1.36210
C          6.34950        0.07540       -0.87000
C          6.70470        0.13010        0.45620
C          4.43530        1.33250       -3.66760
C          4.18620        2.80940       -3.72110
O          4.87310        3.72180       -3.31050
N          3.01290        2.99250       -4.40440
C          2.42720        4.27970       -4.65690
C          2.49450        1.78080       -4.81290
C          1.25970        1.53340       -5.36120
C          0.89520        0.20560       -5.62210
C          1.82930       -0.81470       -5.40270
C          3.06530       -0.55970       -4.84170
C          3.39910        0.74230       -4.48570
C         -0.46750       -0.10420       -5.98520
C         -0.99550       -1.28800       -6.41150
C         -2.40990       -1.30270       -6.47210
C         -3.25080       -2.39810       -6.76640
C         -2.73830       -3.64870       -7.28260
C         -3.16890       -4.91980       -7.02770
C         -2.48750       -5.92050       -7.75860
C         -2.79260       -7.37750       -7.58870
C         -1.87930       -8.01500       -6.54070
C         -1.53250       -5.40250       -8.58750
C         -0.57990       -6.10060       -9.49690
C          0.85350       -6.02820       -8.96580
S         -1.46190       -3.67380       -8.46880
C         -4.60930       -2.20650       -6.53620
C         -5.16280       -0.97460       -6.08730
C         -4.32430        0.14460       -5.86410
C         -4.81780        1.42270       -5.40910
C         -4.36080        2.66420       -5.76570
C         -5.00530        3.72680       -5.09880
C         -4.69220        5.16390       -5.38510
C         -5.48900        5.66220       -6.59190
C         -5.95880        3.28760       -4.22000
S         -6.06810        1.56270       -4.20670
C         -6.82050        4.07830       -3.29500
C         -6.15160        4.24520       -1.92780
C         -2.96530       -0.06610       -6.06130
S         -1.71650        1.09020       -5.69730
C         -6.55820       -1.03610       -5.94260
C         -7.09670       -2.27070       -6.22670
S         -5.85080       -3.40100       -6.75910
C         -8.40740       -2.77820       -6.13800
C         -9.54620       -2.25450       -5.58190
C         -9.71430       -0.98790       -4.83650
O         -8.97020       -0.03470       -4.75410
C        -11.03800       -1.08950       -4.17920
C        -11.61500       -0.20430       -3.29210
C        -12.87070       -0.52590       -2.78940
C        -13.53370        0.37720       -1.78600
F        -13.36670       -0.07090       -0.52580
F        -13.05180        1.62650       -1.80710
F        -14.85890        0.47250       -1.97430
C        -13.51670       -1.69910       -3.16710
C        -12.93110       -2.57990       -4.06460
C        -11.67880       -2.27250       -4.57630
C        -10.80360       -2.98150       -5.51140
C        -11.16110       -4.09710       -6.22090
C        -10.37300       -4.75290       -7.19250
N         -9.81670       -5.34190       -8.00630
C        -12.41410       -4.73730       -6.10600
N        -13.40880       -5.30790       -6.05850
H          5.79870        3.01620       11.21110
H          4.04400       -2.86150       12.53850
H          3.86060        0.87820       15.81400
H          6.14720       -0.24580        9.06150
H          7.97150       -1.94760        5.03100
H          7.30050       -4.37630        5.63020
H          5.05910       -4.69720        8.60090
H          5.77050       -5.66670        7.29990
H          3.29090       -5.88510        7.32390
H          3.12430       -4.13580        7.13830
H          3.82260       -5.09910        5.83340
H          7.80120        5.16820        7.36880
H          7.33490        7.61250        6.66500
H          5.89650        8.04630        3.27870
H          6.20060        8.96170        4.76350
H          3.92030        8.34630        5.59210
H          3.82910        9.18730        4.04090
H          3.62960        7.43300        4.10870
H          6.81000        3.49390        3.01950
H          6.14180        3.44160        0.92750
H          5.54120        3.32390       -1.43330
H          6.25810       -2.76360       -0.51970
H          7.86830       -2.28430       -1.11050
H          6.67330       -2.96870       -2.23970
H          7.02830       -0.75290        0.98570
H          2.28940        4.43320       -5.72870
H          3.11280        5.03130       -4.26710
H          1.46260        4.37050       -4.15240
H          0.56240        2.33410       -5.55430
H          1.56380       -1.83300       -5.63630
H          3.75710       -1.36690       -4.67130
H         -0.39360       -2.14520       -6.64710
H         -3.93290       -5.15040       -6.30710
H         -2.67510       -7.90000       -8.53990
H         -3.83230       -7.48290       -7.27390
H         -0.83920       -7.95130       -6.85160
H         -2.13540       -9.06280       -6.40290
H         -1.98410       -7.50390       -5.58620
H         -0.61440       -5.63640      -10.48620
H         -0.87960       -7.14450       -9.60080
H          1.17690       -4.99200       -8.89480
H          0.91760       -6.47700       -7.97690
H          1.52960       -6.55790       -9.63210
H         -3.60820        2.81990       -6.51820
H         -4.92300        5.78010       -4.51530
H         -3.62440        5.25880       -5.59330
H         -6.55690        5.58030       -6.40230
H         -5.25190        6.70280       -6.80030
H         -5.25300        5.06910       -7.47240
H         -7.01930        5.06030       -3.72830
H         -7.77460        3.56370       -3.16610
H         -6.78960        4.82370       -1.26450
H         -5.97170        3.27230       -1.47610
H         -5.19770        4.75810       -2.02980
H         -7.16770       -0.20640       -5.64000
H         -8.49340       -3.78690       -6.52560
H        -11.10170        0.70050       -3.00550
H        -14.48940       -1.92310       -2.75630
H        -13.45150       -3.48240       -4.33830
