110

C          3.68000      -12.27640        1.35300
C          4.84310      -12.89450        1.02350
C          6.14330      -12.21650        0.76300
O          6.46800      -11.07900        1.01240
C          6.96440      -13.22060        0.05030
C          8.23160      -13.06480       -0.47400
C          8.82040      -14.14770       -1.11620
Cl        10.39730      -13.99360       -1.77820
C          8.12380      -15.35650       -1.22130
Br         8.92060      -16.82430       -2.10650
C          6.84930      -15.51320       -0.69200
C          6.26380      -14.43510       -0.04690
C          4.96820      -14.28500        0.60440
C          4.07500      -15.28890        0.85530
C          4.26220      -16.62860        0.44950
N          4.36520      -17.72770        0.13780
C          2.87590      -15.13470        1.58640
N          1.90140      -15.08990        2.19050
C          3.51030      -10.91430        1.79070
C          2.37510      -10.20990        1.34690
C          2.23110       -8.89340        1.70600
C          1.17510       -7.91960        1.31410
O          0.21550       -8.11160        0.60740
C          1.58050       -6.65270        1.98060
C          2.75960       -6.86920        2.72230
C          3.16750       -8.25490        2.54750
C          4.24740       -8.96390        3.04130
C          4.41420      -10.28390        2.65360
C          3.32330       -5.82410        3.43040
C          2.72070       -4.57780        3.36780
C          1.56550       -4.34450        2.61400
C          0.98060       -5.41890        1.92060
C          1.00670       -3.01490        2.52220
C         -0.03600       -2.58950        1.75370
C         -0.29690       -1.19780        1.84420
C         -1.26830       -0.45260        1.16310
C         -2.26210       -1.08930        0.23980
C         -3.44570       -1.65620        1.02700
C         -1.28400        0.90590        1.41820
C         -0.38730        1.55200        2.30680
C          0.58500        0.80610        2.98740
C          1.53660        1.43270        3.96160
C          0.89040        1.56820        5.34190
C          0.59820       -0.55250        2.73500
S          1.71770       -1.69310        3.43200
C         -0.61460        2.95210        2.35290
C         -1.62360        3.38060        1.54170
S         -2.37150        2.04970        0.68020
C         -2.07890        4.73300        1.30740
C         -2.95000        5.00400        0.23880
C         -3.32550        6.30220       -0.00510
C         -4.19690        6.83950       -1.08510
O         -4.76690        6.22670       -1.95410
C         -4.19360        8.31190       -0.85860
C         -3.39950        8.61060        0.26930
C         -2.86470        7.36470        0.79810
C         -2.02900        7.10240        1.86800
C         -1.64520        5.79310        2.11170
C         -3.24940        9.92270        0.68000
C         -3.84590       10.92840       -0.06370
C         -4.60240       10.64440       -1.20660
C         -4.81120        9.30270       -1.57920
C         -5.20500       11.67430       -2.01370
C         -4.67840       12.88450       -2.33320
C         -3.25550       13.28740       -2.15790
O         -2.38590       12.74070       -1.52000
C         -3.08860       14.48990       -3.00410
C         -1.93400       15.20740       -3.24260
C         -2.00200       16.31080       -4.08490
Cl        -0.58640       17.22890       -4.40590
C         -3.22310       16.66570       -4.66850
Br        -3.31200       18.16030       -5.82220
C         -4.38500       15.94400       -4.42690
C         -4.31810       14.84460       -3.58520
C         -5.33840       13.90140       -3.14310
C         -6.68040       14.00310       -3.38170
C         -7.66220       13.13250       -2.85760
N         -8.51620       12.48270       -2.45110
C         -7.26750       15.02570       -4.15920
N         -7.79410       15.82960       -4.78540
H          2.75670      -12.82780        1.21490
H          8.75000      -12.12330       -0.38550
H          6.34460      -16.45980       -0.79990
H          1.65010      -10.68380        0.70160
H          4.95760       -8.50220        3.70980
H          5.24270      -10.84780        3.04990
H          4.21990       -5.96480        4.01450
H          3.16100       -3.75200        3.90800
H          0.08090       -5.29150        1.34030
H         -0.60490       -3.24310        1.11880
H         -2.62670       -0.33890       -0.46520
H         -1.78450       -1.88750       -0.33090
H         -3.95420       -0.86010        1.56600
H         -3.10700       -2.39730        1.74780
H         -4.15640       -2.12560        0.35180
H          1.84510        2.41580        3.60180
H          2.42750        0.80580        4.04300
H          0.61890        0.58820        5.72710
H          1.58310        2.03400        6.03850
H         -0.01000        2.17590        5.28490
H         -0.02290        3.61530        2.95670
H         -3.30810        4.20570       -0.39440
H         -1.67270        7.89870        2.50380
H         -0.99460        5.58950        2.94790
H         -2.67270       10.16860        1.55830
H         -3.75020       11.95110        0.26260
H         -5.41430        9.05790       -2.44100
H         -6.15510       11.40260       -2.45980
H         -1.00220       14.91580       -2.78440
H         -5.30430       16.24780       -4.90140
