
  xtb     02102220183D
 energy: -208.121719778108 gnorm: 0.000937039417 xtb: 6.4.1 (unknown)
108119  0     0  0            999 V2000
    8.1959    6.9597   -2.3968 C   0  0  0  0  0  0  0  0  0  0  0  0
    9.1443    6.3221   -3.1211 C   0  0  0  0  0  0  0  0  0  0  0  0
   10.5830    6.6547   -2.9070 C   0  0  0  0  0  0  0  0  0  0  0  0
   11.0267    7.6158   -2.3277 O   0  0  0  0  0  0  0  0  0  0  0  0
   11.3276    5.5238   -3.5023 C   0  0  0  0  0  0  0  0  0  0  0  0
   12.6823    5.2629   -3.4584 C   0  0  0  0  0  0  0  0  0  0  0  0
   13.1548    4.1051   -4.0657 C   0  0  0  0  0  0  0  0  0  0  0  0
   14.8340    3.7482   -4.0303 Cl  0  0  0  0  0  0  0  0  0  0  0  0
   12.2603    3.2347   -4.6983 C   0  0  0  0  0  0  0  0  0  0  0  0
   12.9030    1.6489   -5.5000 Br  0  0  0  0  0  0  0  0  0  0  0  0
   10.8983    3.5014   -4.7527 C   0  0  0  0  0  0  0  0  0  0  0  0
   10.4285    4.6584   -4.1535 C   0  0  0  0  0  0  0  0  0  0  0  0
    9.0826    5.2185   -4.0673 C   0  0  0  0  0  0  0  0  0  0  0  0
    8.0456    4.9196   -4.9057 C   0  0  0  0  0  0  0  0  0  0  0  0
    6.8388    5.6510   -4.9570 C   0  0  0  0  0  0  0  0  0  0  0  0
    5.8648    6.2438   -5.0827 N   0  0  0  0  0  0  0  0  0  0  0  0
    8.1004    3.9030   -5.8842 C   0  0  0  0  0  0  0  0  0  0  0  0
    8.1040    3.0850   -6.6881 N   0  0  0  0  0  0  0  0  0  0  0  0
    6.8252    6.5717   -2.1792 C   0  0  0  0  0  0  0  0  0  0  0  0
    6.4500    5.2169   -2.1645 C   0  0  0  0  0  0  0  0  0  0  0  0
    5.1344    4.8983   -1.9460 C   0  0  0  0  0  0  0  0  0  0  0  0
    4.4920    3.5549   -1.9078 C   0  0  0  0  0  0  0  0  0  0  0  0
    5.0284    2.4809   -2.0394 O   0  0  0  0  0  0  0  0  0  0  0  0
    3.0570    3.8447   -1.6622 C   0  0  0  0  0  0  0  0  0  0  0  0
    2.8697    5.2370   -1.5488 C   0  0  0  0  0  0  0  0  0  0  0  0
    4.1584    5.8932   -1.7353 C   0  0  0  0  0  0  0  0  0  0  0  0
    4.5262    7.2259   -1.7213 C   0  0  0  0  0  0  0  0  0  0  0  0
    5.8578    7.5506   -1.9285 C   0  0  0  0  0  0  0  0  0  0  0  0
    1.6092    5.7410   -1.2963 C   0  0  0  0  0  0  0  0  0  0  0  0
    0.5515    4.8521   -1.1493 C   0  0  0  0  0  0  0  0  0  0  0  0
    0.7310    3.4742   -1.2652 C   0  0  0  0  0  0  0  0  0  0  0  0
    2.0081    2.9647   -1.5382 C   0  0  0  0  0  0  0  0  0  0  0  0
   -0.3901    2.5468   -1.0814 C   0  0  0  0  0  0  0  0  0  0  0  0
   -1.6534    2.7843   -1.5789 C   0  0  0  0  0  0  0  0  0  0  0  0
   -1.9109    3.8979   -2.2882 F   0  0  0  0  0  0  0  0  0  0  0  0
   -2.7149    1.8802   -1.4046 C   0  0  0  0  0  0  0  0  0  0  0  0
   -3.9081    2.2328   -1.9167 F   0  0  0  0  0  0  0  0  0  0  0  0
   -2.5688    0.6900   -0.7258 C   0  0  0  0  0  0  0  0  0  0  0  0
   -1.2766    0.4142   -0.1991 C   0  0  0  0  0  0  0  0  0  0  0  0
   -1.0555   -0.7566    0.4253 N   0  0  0  0  0  0  0  0  0  0  0  0
    0.1217   -1.0154    0.9315 C   0  0  0  0  0  0  0  0  0  0  0  0
    0.2921   -2.3730    1.5397 C   0  0  0  0  0  0  0  0  0  0  0  0
    0.8140   -3.3544    0.4866 C   0  0  0  0  0  0  0  0  0  0  0  0
    1.1685   -0.0495    0.8500 C   0  0  0  0  0  0  0  0  0  0  0  0
    0.9824    1.0742    0.2077 N   0  0  0  0  0  0  0  0  0  0  0  0
   -0.2099    1.3345   -0.3594 C   0  0  0  0  0  0  0  0  0  0  0  0
    2.5038   -0.2205    1.5061 C   0  0  0  0  0  0  0  0  0  0  0  0
    2.4400    0.2577    2.9592 C   0  0  0  0  0  0  0  0  0  0  0  0
   -3.6547   -0.2817   -0.5611 C   0  0  0  0  0  0  0  0  0  0  0  0
   -3.8019   -0.9561    0.6587 C   0  0  0  0  0  0  0  0  0  0  0  0
   -4.7758   -1.9204    0.7656 C   0  0  0  0  0  0  0  0  0  0  0  0
   -5.0940   -2.8016    1.9205 C   0  0  0  0  0  0  0  0  0  0  0  0
   -4.5831   -2.8041    3.0140 O   0  0  0  0  0  0  0  0  0  0  0  0
   -6.1896   -3.6781    1.4203 C   0  0  0  0  0  0  0  0  0  0  0  0
   -6.5222   -3.3049    0.1019 C   0  0  0  0  0  0  0  0  0  0  0  0
   -5.6336   -2.2244   -0.3096 C   0  0  0  0  0  0  0  0  0  0  0  0
   -5.5093   -1.5395   -1.5024 C   0  0  0  0  0  0  0  0  0  0  0  0
   -4.5141   -0.5773   -1.6187 C   0  0  0  0  0  0  0  0  0  0  0  0
   -7.5521   -3.9490   -0.5588 C   0  0  0  0  0  0  0  0  0  0  0  0
   -8.2154   -4.9777    0.0919 C   0  0  0  0  0  0  0  0  0  0  0  0
   -7.8403   -5.4027    1.3711 C   0  0  0  0  0  0  0  0  0  0  0  0
   -6.8233   -4.7167    2.0559 C   0  0  0  0  0  0  0  0  0  0  0  0
   -8.5356   -6.5162    1.9744 C   0  0  0  0  0  0  0  0  0  0  0  0
   -7.9667   -7.4962    2.7176 C   0  0  0  0  0  0  0  0  0  0  0  0
   -6.5007   -7.7791    2.7804 C   0  0  0  0  0  0  0  0  0  0  0  0
   -5.5945   -7.1332    2.3071 O   0  0  0  0  0  0  0  0  0  0  0  0
   -6.3864   -9.0817    3.4622 C   0  0  0  0  0  0  0  0  0  0  0  0
   -5.2418   -9.8073    3.7395 C   0  0  0  0  0  0  0  0  0  0  0  0
   -5.3687  -11.0220    4.3915 C   0  0  0  0  0  0  0  0  0  0  0  0
   -6.6312  -11.4899    4.7450 C   0  0  0  0  0  0  0  0  0  0  0  0
   -6.7678  -13.0066    5.5475 Cl  0  0  0  0  0  0  0  0  0  0  0  0
   -7.7904  -10.7718    4.4688 C   0  0  0  0  0  0  0  0  0  0  0  0
   -7.6609   -9.5532    3.8220 C   0  0  0  0  0  0  0  0  0  0  0  0
   -8.6631   -8.5772    3.4026 C   0  0  0  0  0  0  0  0  0  0  0  0
  -10.0012   -8.6377    3.6743 C   0  0  0  0  0  0  0  0  0  0  0  0
  -10.9471   -7.6508    3.3178 C   0  0  0  0  0  0  0  0  0  0  0  0
  -11.7706   -6.8885    3.0763 N   0  0  0  0  0  0  0  0  0  0  0  0
  -10.6230   -9.6962    4.3732 C   0  0  0  0  0  0  0  0  0  0  0  0
  -11.1890  -10.5263    4.9267 N   0  0  0  0  0  0  0  0  0  0  0  0
    8.5380    7.8421   -1.8646 H   0  0  0  0  0  0  0  0  0  0  0  0
   13.3572    5.9424   -2.9625 H   0  0  0  0  0  0  0  0  0  0  0  0
   10.2386    2.8036   -5.2435 H   0  0  0  0  0  0  0  0  0  0  0  0
    7.1844    4.4347   -2.2878 H   0  0  0  0  0  0  0  0  0  0  0  0
    3.7971    8.0033   -1.5532 H   0  0  0  0  0  0  0  0  0  0  0  0
    6.1585    8.5879   -1.9309 H   0  0  0  0  0  0  0  0  0  0  0  0
    1.4395    6.8030   -1.2058 H   0  0  0  0  0  0  0  0  0  0  0  0
   -0.4291    5.2432   -0.9254 H   0  0  0  0  0  0  0  0  0  0  0  0
    2.1692    1.9057   -1.6524 H   0  0  0  0  0  0  0  0  0  0  0  0
    0.9780   -2.3356    2.3855 H   0  0  0  0  0  0  0  0  0  0  0  0
   -0.6841   -2.7130    1.8876 H   0  0  0  0  0  0  0  0  0  0  0  0
    0.9288   -4.3429    0.9236 H   0  0  0  0  0  0  0  0  0  0  0  0
    0.1107   -3.4194   -0.3400 H   0  0  0  0  0  0  0  0  0  0  0  0
    1.7772   -3.0329    0.0953 H   0  0  0  0  0  0  0  0  0  0  0  0
    3.2275    0.3882    0.9627 H   0  0  0  0  0  0  0  0  0  0  0  0
    2.8194   -1.2630    1.4713 H   0  0  0  0  0  0  0  0  0  0  0  0
    2.1622    1.3084    2.9924 H   0  0  0  0  0  0  0  0  0  0  0  0
    1.7054   -0.3103    3.5263 H   0  0  0  0  0  0  0  0  0  0  0  0
    3.4111    0.1396    3.4331 H   0  0  0  0  0  0  0  0  0  0  0  0
   -3.1662   -0.7281    1.4980 H   0  0  0  0  0  0  0  0  0  0  0  0
   -6.1563   -1.7518   -2.3399 H   0  0  0  0  0  0  0  0  0  0  0  0
   -4.3932   -0.0647   -2.5607 H   0  0  0  0  0  0  0  0  0  0  0  0
   -7.8395   -3.6625   -1.5589 H   0  0  0  0  0  0  0  0  0  0  0  0
   -9.0186   -5.4951   -0.4131 H   0  0  0  0  0  0  0  0  0  0  0  0
   -6.5620   -4.9751    3.0693 H   0  0  0  0  0  0  0  0  0  0  0  0
   -9.5980   -6.5685    1.7673 H   0  0  0  0  0  0  0  0  0  0  0  0
   -4.2760   -9.4219    3.4516 H   0  0  0  0  0  0  0  0  0  0  0  0
   -4.4979  -11.6127    4.6286 H   0  0  0  0  0  0  0  0  0  0  0  0
   -8.7492  -11.1724    4.7539 H   0  0  0  0  0  0  0  0  0  0  0  0
  1  2  2  0  0  0  0
  2  3  1  0  0  0  0
  3  4  2  0  0  0  0
  3  5  1  0  0  0  0
  5  6  2  0  0  0  0
  6  7  1  0  0  0  0
  7  8  1  0  0  0  0
  7  9  2  0  0  0  0
  9 10  1  0  0  0  0
  9 11  1  0  0  0  0
 11 12  2  0  0  0  0
 12 13  1  0  0  0  0
 13 14  2  0  0  0  0
 14 15  1  0  0  0  0
 15 16  3  0  0  0  0
 14 17  1  0  0  0  0
 17 18  3  0  0  0  0
  1 19  1  0  0  0  0
 19 20  2  0  0  0  0
 20 21  1  0  0  0  0
 21 22  1  0  0  0  0
 22 23  2  0  0  0  0
 22 24  1  0  0  0  0
 24 25  2  0  0  0  0
 25 26  1  0  0  0  0
 26 27  1  0  0  0  0
 27 28  2  0  0  0  0
 25 29  1  0  0  0  0
 29 30  2  0  0  0  0
 30 31  1  0  0  0  0
 31 32  2  0  0  0  0
 31 33  1  0  0  0  0
 33 34  2  0  0  0  0
 34 35  1  0  0  0  0
 34 36  1  0  0  0  0
 36 37  1  0  0  0  0
 36 38  2  0  0  0  0
 38 39  1  0  0  0  0
 39 40  2  0  0  0  0
 40 41  1  0  0  0  0
 41 42  1  0  0  0  0
 42 43  1  0  0  0  0
 41 44  2  0  0  0  0
 44 45  1  0  0  0  0
 45 46  2  0  0  0  0
 44 47  1  0  0  0  0
 47 48  1  0  0  0  0
 38 49  1  0  0  0  0
 49 50  2  0  0  0  0
 50 51  1  0  0  0  0
 51 52  1  0  0  0  0
 52 53  2  0  0  0  0
 52 54  1  0  0  0  0
 54 55  2  0  0  0  0
 55 56  1  0  0  0  0
 56 57  1  0  0  0  0
 57 58  2  0  0  0  0
 55 59  1  0  0  0  0
 59 60  2  0  0  0  0
 60 61  1  0  0  0  0
 61 62  2  0  0  0  0
 61 63  1  0  0  0  0
 63 64  2  0  0  0  0
 64 65  1  0  0  0  0
 65 66  2  0  0  0  0
 65 67  1  0  0  0  0
 67 68  2  0  0  0  0
 68 69  1  0  0  0  0
 69 70  2  0  0  0  0
 70 71  1  0  0  0  0
 70 72  1  0  0  0  0
 72 73  2  0  0  0  0
 73 74  1  0  0  0  0
 74 75  2  0  0  0  0
 75 76  1  0  0  0  0
 76 77  3  0  0  0  0
 75 78  1  0  0  0  0
 78 79  3  0  0  0  0
 13  2  1  0  0  0  0
 28 19  1  0  0  0  0
 46 33  1  0  0  0  0
 58 49  1  0  0  0  0
 74 64  1  0  0  0  0
 12  5  1  0  0  0  0
 26 21  2  0  0  0  0
 46 39  1  0  0  0  0
 56 51  2  0  0  0  0
 73 67  1  0  0  0  0
 32 24  1  0  0  0  0
 62 54  1  0  0  0  0
  1 80  1  0  0  0  0
  6 81  1  0  0  0  0
 11 82  1  0  0  0  0
 20 83  1  0  0  0  0
 27 84  1  0  0  0  0
 28 85  1  0  0  0  0
 29 86  1  0  0  0  0
 30 87  1  0  0  0  0
 32 88  1  0  0  0  0
 42 89  1  0  0  0  0
 42 90  1  0  0  0  0
 43 91  1  0  0  0  0
 43 92  1  0  0  0  0
 43 93  1  0  0  0  0
 47 94  1  0  0  0  0
 47 95  1  0  0  0  0
 48 96  1  0  0  0  0
 48 97  1  0  0  0  0
 48 98  1  0  0  0  0
 50 99  1  0  0  0  0
 57100  1  0  0  0  0
 58101  1  0  0  0  0
 59102  1  0  0  0  0
 60103  1  0  0  0  0
 62104  1  0  0  0  0
 63105  1  0  0  0  0
 68106  1  0  0  0  0
 69107  1  0  0  0  0
 72108  1  0  0  0  0
M  END
