108

C        -10.35630       -0.88660       -1.91040
C        -10.50510        0.02940       -2.90160
C         -9.77450        1.32520       -3.00150
O         -8.92750        1.76770       -2.26210
C        -10.38450        2.02880       -4.15030
C        -10.05010        3.26570       -4.66300
C        -10.75640        3.73990       -5.76190
Cl       -10.36260        5.26820       -6.43690
C        -11.78470        2.96660       -6.31190
Br       -12.75020        3.61440       -7.80240
C        -12.12370        1.72440       -5.79180
C        -11.41460        1.24700       -4.69990
C        -11.51820       -0.00030       -3.94960
C        -12.37190       -1.02980       -4.23640
C        -13.31640       -1.00450       -5.28670
N        -14.10480       -1.04290       -6.11910
C        -12.43650       -2.26100       -3.54740
N        -12.54870       -3.28970       -3.05040
C         -9.27420       -0.97830       -0.96330
C         -7.95480       -0.64200       -1.31310
C         -6.96440       -0.80690       -0.37820
C         -5.50470       -0.54860       -0.51490
O         -4.91060       -0.13320       -1.47960
C         -4.94400       -0.93200        0.80620
C         -5.97880       -1.37660        1.65290
C         -7.23560       -1.29790        0.91620
C         -8.52980       -1.64590        1.26010
C         -9.53010       -1.49930        0.31240
C         -5.67920       -1.81030        2.93030
C         -4.35240       -1.80570        3.34660
C         -3.32890       -1.36940        2.50920
C         -3.63410       -0.92080        1.21710
C         -1.91700       -1.39540        2.90330
C         -1.31990       -2.48150        3.50420
F         -2.05610       -3.54690        3.86760
C          0.07250       -2.56610        3.68080
F          0.56080       -3.70460        4.20510
C          0.92800       -1.57320        3.25620
C          0.33290       -0.39560        2.72760
N          1.11480        0.64320        2.38180
C          0.57150        1.72820        1.89250
C          1.51410        2.84700        1.57200
C          1.69270        3.75020        2.79550
C         -0.84460        1.82820        1.74900
N         -1.61730        0.82760        2.08550
C         -1.07080       -0.30460        2.56380
C         -1.53770        3.03030        1.18640
C         -1.68290        2.88720       -0.33170
C          2.38620       -1.72940        3.24130
C          3.07390       -1.37000        2.07450
C          4.43370       -1.55770        2.02620
C          5.36770       -1.30120        0.89910
O          5.10750       -0.86870       -0.19670
C          6.69650       -1.71770        1.42640
C          6.55140       -2.18590        2.74900
C          5.14430       -2.08840        3.12120
C          4.46760       -2.43190        4.27590
C          3.08970       -2.25270        4.32330
C          7.65520       -2.66510        3.43190
C          8.88330       -2.66560        2.79000
C          9.04220       -2.16430        1.49090
C          7.91360       -1.69870        0.79390
C         10.34440       -2.21860        0.87580
C         10.85950       -1.34940       -0.03110
C         10.33010        0.01370       -0.32190
O          9.36690        0.56280        0.15870
C         11.30390        0.61870       -1.25600
C         11.25940        1.87040       -1.83550
C         12.28690        2.23890       -2.69550
Cl        12.26190        3.78250       -3.44590
C         13.33600        1.34730       -2.94470
Br        14.73760        1.85080       -4.10900
C         13.38230        0.08990       -2.35700
C         12.35380       -0.28150       -1.50430
C         12.11210       -1.51260       -0.75890
C         12.89750       -2.63170       -0.80020
C         12.63960       -3.84330       -0.12180
N         12.50280       -4.86320        0.38690
C         14.09170       -2.73240       -1.54830
N         15.07070       -2.87400       -2.12930
H        -11.12350       -1.64290       -1.79560
H         -9.25430        3.84450       -4.22160
H        -12.92560        1.16470       -6.24530
H         -7.70690       -0.30130       -2.30470
H         -8.76100       -2.03640        2.23940
H        -10.54400       -1.77460        0.56580
H         -6.45330       -2.15430        3.59920
H         -4.11340       -2.14310        4.34370
H         -2.85600       -0.59860        0.54470
H          2.47930        2.41080        1.31160
H          1.14810        3.43000        0.72740
H          2.09120        3.17320        3.62630
H          0.74400        4.18580        3.10290
H          2.38610        4.55510        2.56630
H         -0.98890        3.94100        1.42430
H         -2.53180        3.08680        1.63160
H         -2.29140        2.01850       -0.56990
H         -2.16710        3.76920       -0.74260
H         -0.71120        2.77100       -0.80750
H          2.54740       -0.97760        1.21980
H          4.98890       -2.83860        5.12900
H          2.55590       -2.51980        5.22280
H          7.56750       -3.04290        4.43910
H          9.75260       -3.04210        3.31000
H          7.98310       -1.36950       -0.22970
H         10.96110       -3.05090        1.19300
H         10.44100        2.54140       -1.62740
H         14.21190       -0.56300       -2.57490
