
  xtb     02102221383D
 energy: -266.365114994067 gnorm: 0.000374535695 xtb: 6.4.1 (unknown)
142155  0     0  0            999 V2000
    9.0267    0.5988   -5.6545 C   0  0  0  0  0  0  0  0  0  0  0  0
    9.0089    0.8405   -6.9914 C   0  0  0  0  0  0  0  0  0  0  0  0
    7.9404    0.4244   -7.9417 C   0  0  0  0  0  0  0  0  0  0  0  0
    6.8962   -0.1341   -7.7012 O   0  0  0  0  0  0  0  0  0  0  0  0
    8.4702    0.7424   -9.2861 C   0  0  0  0  0  0  0  0  0  0  0  0
    7.8596    0.5456  -10.5077 C   0  0  0  0  0  0  0  0  0  0  0  0
    8.5443    0.9190  -11.6582 C   0  0  0  0  0  0  0  0  0  0  0  0
    7.8148    0.6992  -13.1966 Cl  0  0  0  0  0  0  0  0  0  0  0  0
    9.8250    1.4722  -11.5542 C   0  0  0  0  0  0  0  0  0  0  0  0
   10.7597    1.9735  -13.1191 Br  0  0  0  0  0  0  0  0  0  0  0  0
   10.4403    1.6659  -10.3245 C   0  0  0  0  0  0  0  0  0  0  0  0
    9.7556    1.2992   -9.1758 C   0  0  0  0  0  0  0  0  0  0  0  0
   10.1186    1.3814   -7.7651 C   0  0  0  0  0  0  0  0  0  0  0  0
   11.2730    1.9281   -7.2730 C   0  0  0  0  0  0  0  0  0  0  0  0
   11.6044    2.0615   -5.9070 C   0  0  0  0  0  0  0  0  0  0  0  0
   11.9509    2.2164   -4.8232 N   0  0  0  0  0  0  0  0  0  0  0  0
   12.3060    2.4516   -8.0814 C   0  0  0  0  0  0  0  0  0  0  0  0
   13.1818    2.8844   -8.6830 N   0  0  0  0  0  0  0  0  0  0  0  0
    7.9396    0.1909   -4.8052 C   0  0  0  0  0  0  0  0  0  0  0  0
    6.6112    0.5973   -5.0244 C   0  0  0  0  0  0  0  0  0  0  0  0
    5.6508    0.2200   -4.1197 C   0  0  0  0  0  0  0  0  0  0  0  0
    4.2030    0.5650   -4.0941 C   0  0  0  0  0  0  0  0  0  0  0  0
    3.5764    1.2043   -4.9026 O   0  0  0  0  0  0  0  0  0  0  0  0
    3.7086   -0.0327   -2.8246 C   0  0  0  0  0  0  0  0  0  0  0  0
    4.7607   -0.7203   -2.1869 C   0  0  0  0  0  0  0  0  0  0  0  0
    5.9628   -0.5639   -2.9893 C   0  0  0  0  0  0  0  0  0  0  0  0
    7.2684   -0.9686   -2.7691 C   0  0  0  0  0  0  0  0  0  0  0  0
    8.2431   -0.5697   -3.6662 C   0  0  0  0  0  0  0  0  0  0  0  0
    4.5392   -1.3479   -0.9748 C   0  0  0  0  0  0  0  0  0  0  0  0
    3.3054   -1.1908   -0.3628 C   0  0  0  0  0  0  0  0  0  0  0  0
    2.2927   -0.4245   -0.9422 C   0  0  0  0  0  0  0  0  0  0  0  0
    2.4768    0.0986   -2.2342 C   0  0  0  0  0  0  0  0  0  0  0  0
    1.1047   -0.0871   -0.1894 C   0  0  0  0  0  0  0  0  0  0  0  0
    0.4683    1.1434   -0.1381 C   0  0  0  0  0  0  0  0  0  0  0  0
    0.8768    2.3062   -0.7701 N   0  0  0  0  0  0  0  0  0  0  0  0
    2.2325    2.5660   -1.0152 C   0  0  0  0  0  0  0  0  0  0  0  0
    2.6292    3.1685   -2.2108 C   0  0  0  0  0  0  0  0  0  0  0  0
    3.9650    3.3138   -2.5063 C   0  0  0  0  0  0  0  0  0  0  0  0
    4.9398    2.8560   -1.6219 C   0  0  0  0  0  0  0  0  0  0  0  0
    6.6157    2.9893   -2.1627 S   0  0  0  0  0  0  0  0  0  0  0  0
    7.5566    2.1071   -0.8859 C   0  0  0  0  0  0  0  0  0  0  0  0
    4.5519    2.3261   -0.3987 C   0  0  0  0  0  0  0  0  0  0  0  0
    3.2110    2.1936   -0.0966 C   0  0  0  0  0  0  0  0  0  0  0  0
   -0.0998    3.2196   -1.1985 C   0  0  0  0  0  0  0  0  0  0  0  0
   -1.3013    2.7698   -1.7475 C   0  0  0  0  0  0  0  0  0  0  0  0
   -2.2629    3.6712   -2.1446 C   0  0  0  0  0  0  0  0  0  0  0  0
   -2.0448    5.0416   -2.0155 C   0  0  0  0  0  0  0  0  0  0  0  0
   -3.3517    6.0957   -2.5551 S   0  0  0  0  0  0  0  0  0  0  0  0
   -2.6902    7.7706   -2.3268 C   0  0  0  0  0  0  0  0  0  0  0  0
   -0.8440    5.4933   -1.4829 C   0  0  0  0  0  0  0  0  0  0  0  0
    0.1162    4.5887   -1.0753 C   0  0  0  0  0  0  0  0  0  0  0  0
   -0.6525    1.0912    0.7343 C   0  0  0  0  0  0  0  0  0  0  0  0
   -1.8527    2.2374    1.2331 S   0  0  0  0  0  0  0  0  0  0  0  0
   -2.5757    1.0431    2.2715 C   0  0  0  0  0  0  0  0  0  0  0  0
   -1.9208   -0.1657    2.2496 C   0  0  0  0  0  0  0  0  0  0  0  0
   -2.2987   -1.2584    3.0510 N   0  0  0  0  0  0  0  0  0  0  0  0
   -2.2405   -1.0381    4.4344 C   0  0  0  0  0  0  0  0  0  0  0  0
   -1.1209   -0.4059    4.9700 C   0  0  0  0  0  0  0  0  0  0  0  0
   -1.0391   -0.1284    6.3213 C   0  0  0  0  0  0  0  0  0  0  0  0
   -2.0806   -0.4853    7.1658 C   0  0  0  0  0  0  0  0  0  0  0  0
   -2.1090   -0.1716    8.9034 S   0  0  0  0  0  0  0  0  0  0  0  0
   -0.4997    0.5984    9.2390 C   0  0  0  0  0  0  0  0  0  0  0  0
   -3.2035   -1.1190    6.6338 C   0  0  0  0  0  0  0  0  0  0  0  0
   -3.2885   -1.3892    5.2879 C   0  0  0  0  0  0  0  0  0  0  0  0
   -3.0463   -2.3001    2.5045 C   0  0  0  0  0  0  0  0  0  0  0  0
   -3.1916   -3.5017    3.2028 C   0  0  0  0  0  0  0  0  0  0  0  0
   -4.0076   -4.4949    2.7155 C   0  0  0  0  0  0  0  0  0  0  0  0
   -4.6789   -4.3283    1.5063 C   0  0  0  0  0  0  0  0  0  0  0  0
   -5.7739   -5.6329    1.0230 S   0  0  0  0  0  0  0  0  0  0  0  0
   -6.6971   -4.9265   -0.3705 C   0  0  0  0  0  0  0  0  0  0  0  0
   -4.4598   -3.1814    0.7601 C   0  0  0  0  0  0  0  0  0  0  0  0
   -3.6479   -2.1796    1.2547 C   0  0  0  0  0  0  0  0  0  0  0  0
   -0.8237   -0.1343    1.3578 C   0  0  0  0  0  0  0  0  0  0  0  0
    0.3888   -1.2684    0.8956 S   0  0  0  0  0  0  0  0  0  0  0  0
   -3.8552    1.2100    2.9698 C   0  0  0  0  0  0  0  0  0  0  0  0
   -3.9576    1.4912    4.3268 C   0  0  0  0  0  0  0  0  0  0  0  0
   -5.1582    1.3332    4.9928 C   0  0  0  0  0  0  0  0  0  0  0  0
   -6.2820    0.8505    4.3287 C   0  0  0  0  0  0  0  0  0  0  0  0
   -6.2101    0.6864    2.9444 C   0  0  0  0  0  0  0  0  0  0  0  0
   -7.3022    0.3149    2.2568 F   0  0  0  0  0  0  0  0  0  0  0  0
   -5.0187    0.8804    2.2737 C   0  0  0  0  0  0  0  0  0  0  0  0
   -4.9681    0.6939    0.9457 F   0  0  0  0  0  0  0  0  0  0  0  0
   -7.4944    0.4523    5.0374 C   0  0  0  0  0  0  0  0  0  0  0  0
   -8.0103   -0.7871    4.9038 C   0  0  0  0  0  0  0  0  0  0  0  0
   -7.3110   -1.9038    4.1909 C   0  0  0  0  0  0  0  0  0  0  0  0
   -6.1810   -1.9100    3.7582 O   0  0  0  0  0  0  0  0  0  0  0  0
   -8.2548   -3.0320    4.2092 C   0  0  0  0  0  0  0  0  0  0  0  0
   -8.1042   -4.2766    3.6312 C   0  0  0  0  0  0  0  0  0  0  0  0
   -9.1371   -5.1967    3.7640 C   0  0  0  0  0  0  0  0  0  0  0  0
   -8.9931   -6.7473    3.0451 Cl  0  0  0  0  0  0  0  0  0  0  0  0
  -10.2873   -4.8484    4.4830 C   0  0  0  0  0  0  0  0  0  0  0  0
  -11.6898   -6.1008    4.6652 Br  0  0  0  0  0  0  0  0  0  0  0  0
  -10.4335   -3.6004    5.0734 C   0  0  0  0  0  0  0  0  0  0  0  0
   -9.4071   -2.6765    4.9360 C   0  0  0  0  0  0  0  0  0  0  0  0
   -9.2715   -1.3099    5.4217 C   0  0  0  0  0  0  0  0  0  0  0  0
  -10.1731   -0.6408    6.2036 C   0  0  0  0  0  0  0  0  0  0  0  0
  -10.0136    0.6819    6.6692 C   0  0  0  0  0  0  0  0  0  0  0  0
   -9.9459    1.7500    7.0841 N   0  0  0  0  0  0  0  0  0  0  0  0
  -11.3859   -1.1973    6.6657 C   0  0  0  0  0  0  0  0  0  0  0  0
  -12.3823   -1.5957    7.0714 N   0  0  0  0  0  0  0  0  0  0  0  0
    9.9748    0.7055   -5.1409 H   0  0  0  0  0  0  0  0  0  0  0  0
    6.8719    0.1158  -10.5634 H   0  0  0  0  0  0  0  0  0  0  0  0
   11.4301    2.0917  -10.2917 H   0  0  0  0  0  0  0  0  0  0  0  0
    6.3488    1.2314   -5.8542 H   0  0  0  0  0  0  0  0  0  0  0  0
    7.5305   -1.5651   -1.9078 H   0  0  0  0  0  0  0  0  0  0  0  0
    9.2698   -0.8621   -3.4969 H   0  0  0  0  0  0  0  0  0  0  0  0
    5.3172   -1.9176   -0.4890 H   0  0  0  0  0  0  0  0  0  0  0  0
    3.1314   -1.6295    0.6093 H   0  0  0  0  0  0  0  0  0  0  0  0
    1.6752    0.6056   -2.7473 H   0  0  0  0  0  0  0  0  0  0  0  0
    1.8850    3.4871   -2.9243 H   0  0  0  0  0  0  0  0  0  0  0  0
    4.2683    3.7515   -3.4443 H   0  0  0  0  0  0  0  0  0  0  0  0
    7.1672    1.0993   -0.7760 H   0  0  0  0  0  0  0  0  0  0  0  0
    8.5785    2.0725   -1.2505 H   0  0  0  0  0  0  0  0  0  0  0  0
    7.5196    2.6528    0.0524 H   0  0  0  0  0  0  0  0  0  0  0  0
    5.2821    2.0089    0.3280 H   0  0  0  0  0  0  0  0  0  0  0  0
    2.9202    1.7738    0.8550 H   0  0  0  0  0  0  0  0  0  0  0  0
   -1.4738    1.7107   -1.8686 H   0  0  0  0  0  0  0  0  0  0  0  0
   -3.1934    3.3249   -2.5668 H   0  0  0  0  0  0  0  0  0  0  0  0
   -1.7877    7.8969   -2.9177 H   0  0  0  0  0  0  0  0  0  0  0  0
   -3.4639    8.4405   -2.6889 H   0  0  0  0  0  0  0  0  0  0  0  0
   -2.5047    7.9590   -1.2733 H   0  0  0  0  0  0  0  0  0  0  0  0
   -0.6447    6.5465   -1.3700 H   0  0  0  0  0  0  0  0  0  0  0  0
    1.0447    4.9449   -0.6540 H   0  0  0  0  0  0  0  0  0  0  0  0
   -0.3053   -0.1252    4.3197 H   0  0  0  0  0  0  0  0  0  0  0  0
   -0.1571    0.3633    6.6989 H   0  0  0  0  0  0  0  0  0  0  0  0
    0.3013   -0.0826    8.9667 H   0  0  0  0  0  0  0  0  0  0  0  0
   -0.4816    0.7792   10.3092 H   0  0  0  0  0  0  0  0  0  0  0  0
   -0.4177    1.5410    8.7057 H   0  0  0  0  0  0  0  0  0  0  0  0
   -4.0158   -1.3832    7.2938 H   0  0  0  0  0  0  0  0  0  0  0  0
   -4.1785   -1.8424    4.8808 H   0  0  0  0  0  0  0  0  0  0  0  0
   -2.6729   -3.6442    4.1381 H   0  0  0  0  0  0  0  0  0  0  0  0
   -4.1408   -5.4112    3.2710 H   0  0  0  0  0  0  0  0  0  0  0  0
   -6.0478   -4.8216   -1.2350 H   0  0  0  0  0  0  0  0  0  0  0  0
   -7.1244   -3.9711   -0.0801 H   0  0  0  0  0  0  0  0  0  0  0  0
   -7.4881   -5.6369   -0.5906 H   0  0  0  0  0  0  0  0  0  0  0  0
   -4.9274   -3.0402   -0.2010 H   0  0  0  0  0  0  0  0  0  0  0  0
   -3.5036   -1.2877    0.6654 H   0  0  0  0  0  0  0  0  0  0  0  0
   -3.0754    1.7905    4.8702 H   0  0  0  0  0  0  0  0  0  0  0  0
   -5.2097    1.5029    6.0567 H   0  0  0  0  0  0  0  0  0  0  0  0
   -7.9600    1.1926    5.6728 H   0  0  0  0  0  0  0  0  0  0  0  0
   -7.2079   -4.5284    3.0851 H   0  0  0  0  0  0  0  0  0  0  0  0
  -11.3359   -3.3770    5.6194 H   0  0  0  0  0  0  0  0  0  0  0  0
  1  2  2  0  0  0  0
  2  3  1  0  0  0  0
  3  4  2  0  0  0  0
  3  5  1  0  0  0  0
  5  6  2  0  0  0  0
  6  7  1  0  0  0  0
  7  8  1  0  0  0  0
  7  9  2  0  0  0  0
  9 10  1  0  0  0  0
  9 11  1  0  0  0  0
 11 12  2  0  0  0  0
 12 13  1  0  0  0  0
 13 14  2  0  0  0  0
 14 15  1  0  0  0  0
 15 16  3  0  0  0  0
 14 17  1  0  0  0  0
 17 18  3  0  0  0  0
  1 19  1  0  0  0  0
 19 20  2  0  0  0  0
 20 21  1  0  0  0  0
 21 22  1  0  0  0  0
 22 23  2  0  0  0  0
 22 24  1  0  0  0  0
 24 25  2  0  0  0  0
 25 26  1  0  0  0  0
 26 27  1  0  0  0  0
 27 28  2  0  0  0  0
 25 29  1  0  0  0  0
 29 30  2  0  0  0  0
 30 31  1  0  0  0  0
 31 32  2  0  0  0  0
 31 33  1  0  0  0  0
 33 34  2  0  0  0  0
 34 35  1  0  0  0  0
 35 36  1  0  0  0  0
 36 37  2  0  0  0  0
 37 38  1  0  0  0  0
 38 39  2  0  0  0  0
 39 40  1  0  0  0  0
 40 41  1  0  0  0  0
 39 42  1  0  0  0  0
 42 43  2  0  0  0  0
 35 44  1  0  0  0  0
 44 45  2  0  0  0  0
 45 46  1  0  0  0  0
 46 47  2  0  0  0  0
 47 48  1  0  0  0  0
 48 49  1  0  0  0  0
 47 50  1  0  0  0  0
 50 51  2  0  0  0  0
 34 52  1  0  0  0  0
 52 53  1  0  0  0  0
 53 54  1  0  0  0  0
 54 55  2  0  0  0  0
 55 56  1  0  0  0  0
 56 57  1  0  0  0  0
 57 58  2  0  0  0  0
 58 59  1  0  0  0  0
 59 60  2  0  0  0  0
 60 61  1  0  0  0  0
 61 62  1  0  0  0  0
 60 63  1  0  0  0  0
 63 64  2  0  0  0  0
 56 65  1  0  0  0  0
 65 66  2  0  0  0  0
 66 67  1  0  0  0  0
 67 68  2  0  0  0  0
 68 69  1  0  0  0  0
 69 70  1  0  0  0  0
 68 71  1  0  0  0  0
 71 72  2  0  0  0  0
 55 73  1  0  0  0  0
 73 74  1  0  0  0  0
 54 75  1  0  0  0  0
 75 76  2  0  0  0  0
 76 77  1  0  0  0  0
 77 78  2  0  0  0  0
 78 79  1  0  0  0  0
 79 80  1  0  0  0  0
 79 81  2  0  0  0  0
 81 82  1  0  0  0  0
 78 83  1  0  0  0  0
 83 84  2  0  0  0  0
 84 85  1  0  0  0  0
 85 86  2  0  0  0  0
 85 87  1  0  0  0  0
 87 88  2  0  0  0  0
 88 89  1  0  0  0  0
 89 90  1  0  0  0  0
 89 91  2  0  0  0  0
 91 92  1  0  0  0  0
 91 93  1  0  0  0  0
 93 94  2  0  0  0  0
 94 95  1  0  0  0  0
 95 96  2  0  0  0  0
 96 97  1  0  0  0  0
 97 98  3  0  0  0  0
 96 99  1  0  0  0  0
 99100  3  0  0  0  0
 13  2  1  0  0  0  0
 28 19  1  0  0  0  0
 74 33  1  0  0  0  0
 81 75  1  0  0  0  0
 95 84  1  0  0  0  0
 12  5  1  0  0  0  0
 26 21  2  0  0  0  0
 43 36  1  0  0  0  0
 51 44  1  0  0  0  0
 73 52  2  0  0  0  0
 94 87  1  0  0  0  0
 32 24  1  0  0  0  0
 64 57  1  0  0  0  0
 72 65  1  0  0  0  0
  1101  1  0  0  0  0
  6102  1  0  0  0  0
 11103  1  0  0  0  0
 20104  1  0  0  0  0
 27105  1  0  0  0  0
 28106  1  0  0  0  0
 29107  1  0  0  0  0
 30108  1  0  0  0  0
 32109  1  0  0  0  0
 37110  1  0  0  0  0
 38111  1  0  0  0  0
 41112  1  0  0  0  0
 41113  1  0  0  0  0
 41114  1  0  0  0  0
 42115  1  0  0  0  0
 43116  1  0  0  0  0
 45117  1  0  0  0  0
 46118  1  0  0  0  0
 49119  1  0  0  0  0
 49120  1  0  0  0  0
 49121  1  0  0  0  0
 50122  1  0  0  0  0
 51123  1  0  0  0  0
 58124  1  0  0  0  0
 59125  1  0  0  0  0
 62126  1  0  0  0  0
 62127  1  0  0  0  0
 62128  1  0  0  0  0
 63129  1  0  0  0  0
 64130  1  0  0  0  0
 66131  1  0  0  0  0
 67132  1  0  0  0  0
 70133  1  0  0  0  0
 70134  1  0  0  0  0
 70135  1  0  0  0  0
 71136  1  0  0  0  0
 72137  1  0  0  0  0
 76138  1  0  0  0  0
 77139  1  0  0  0  0
 83140  1  0  0  0  0
 88141  1  0  0  0  0
 93142  1  0  0  0  0
M  END
