164

C         -4.11720       -6.70120        1.61330
C         -3.65010       -7.58340        2.53030
C         -2.30070       -7.53120        3.15970
O         -1.36080       -6.82980        2.86650
C         -2.35920       -8.49980        4.27540
C         -1.37640       -8.79710        5.19590
C         -1.64870       -9.74890        6.17160
Cl        -0.44860      -10.15030        7.33150
C         -2.89890      -10.37410        6.20280
Br        -3.27120      -11.66350        7.53420
C         -3.88960      -10.07200        5.27810
C         -3.61760       -9.12520        4.30270
C         -4.43850       -8.59210        3.22230
C         -5.71080       -8.98730        2.91070
C         -6.49800       -8.46240        1.86230
N         -7.21070       -8.09020        1.04250
C         -6.42220       -9.98540        3.61210
N         -7.05290      -10.78090        4.14690
C         -3.33920       -5.68220        0.96520
C         -2.06730       -5.86510        0.44740
F         -1.55470       -7.09290        0.33340
C         -1.30680       -4.78750       -0.01680
F         -0.05080       -5.03930       -0.41770
C         -1.77860       -3.48330       -0.00230
C         -3.16250       -3.30670        0.30490
N         -3.77000       -2.13920        0.03690
C         -5.04870       -2.00350        0.29910
C         -5.69570       -0.72430       -0.14240
C         -5.82880        0.29600        0.99120
C         -5.76580       -3.04300        0.95550
N         -5.18990       -4.19660        1.19570
C         -3.91580       -4.38850        0.81830
C         -7.21250       -2.95630        1.33650
C         -8.06640       -3.66830        0.28260
C         -0.92420       -2.35770       -0.27340
C         -0.88080       -1.15140        0.41930
N         -1.61580       -0.83760        1.54870
C         -2.05500        0.48130        1.71660
C         -2.43890        1.24570        0.61800
C         -2.89120        2.54120        0.78160
C         -2.97870        3.09090        2.05360
S         -3.54340        4.72950        2.39300
C         -3.97290        5.39530        0.76020
C         -2.59420        2.32840        3.15620
C         -2.13110        1.04330        2.99190
C         -2.02940       -1.82980        2.44600
C         -1.19510       -2.90310        2.76450
C         -1.65340       -3.93890        3.54960
C         -2.95930       -3.92830        4.03080
S         -3.53230       -5.33630        4.93840
C         -5.31700       -5.30690        4.58090
C         -3.76300       -2.82100        3.79860
C         -3.30010       -1.78260        3.01780
C          0.10870       -0.29310       -0.12380
S          0.61760        1.34320        0.19290
C          1.85250        1.20650       -1.04900
C          1.75920        0.00970       -1.76870
N          2.38880       -0.24080       -2.96350
C          2.80420       -1.54160       -3.25990
C          3.31950       -2.35310       -2.24630
C          3.71620       -3.63970       -2.52300
C          3.61670       -4.14820       -3.81850
S          4.16070       -5.80600       -4.04840
C          3.89660       -6.11770       -5.81730
C          3.11370       -3.34000       -4.83110
C          2.70880       -2.05020       -4.55250
C          2.46630        0.77850       -3.92850
C          3.59100        0.91060       -4.73760
C          3.65180        1.90200       -5.69580
C          2.58590        2.77710       -5.86360
S          2.55960        4.05640       -7.07160
C          4.32370        4.34960       -7.38540
C          1.45440        2.64000       -5.06190
C          1.39580        1.65710       -4.10180
C          0.79850       -0.85120       -1.18830
S          0.27970       -2.45730       -1.54160
C          2.83150        2.22850       -1.16870
C          4.11900        2.04600       -1.67590
F          4.55850        0.81180       -1.98590
C          5.02570        3.09260       -1.78040
F          6.24090        2.82300       -2.28160
C          4.72540        4.40460       -1.41760
C          3.45180        4.61010       -0.80200
N          3.12990        5.80710       -0.28920
C          2.00690        5.96040        0.37520
C          1.73550        7.33550        0.90670
C          0.69380        8.07680        0.06460
C          1.12740        4.86310        0.56590
N          1.42010        3.69620        0.04010
C          2.55360        3.52790       -0.64440
C         -0.09180        4.90320        1.42960
C          0.27110        4.47260        2.85310
C          5.70690        5.43620       -1.51270
C          5.48150        6.77490       -1.61250
C          6.50960        7.75840       -1.19080
O          7.67680        7.55310       -0.95730
C          5.77270        9.04100       -1.06150
C          6.21900       10.25010       -0.57120
C          5.32300       11.31330       -0.50990
Cl         5.84240       12.83170        0.10720
C          4.00800       11.14060       -0.94710
Br         2.77940       12.57430       -0.83230
C          3.56300        9.92940       -1.46250
C          4.45160        8.87000       -1.51480
C          4.29180        7.50070       -1.99260
C          3.33050        7.06340       -2.86870
C          2.23320        7.83580       -3.28980
N          1.30910        8.42220       -3.63850
C          3.39110        5.79900       -3.48090
N          3.44260        4.78610       -4.01960
H         -5.17870       -6.64780        1.41100
H         -0.41910       -8.30250        5.15560
H         -4.84120      -10.57490        5.34110
H         -6.68250       -0.94310       -0.55380
H         -5.07580       -0.29420       -0.93000
H         -6.36540        1.17180        0.63400
H         -4.84680        0.61380        1.33010
H         -6.37210       -0.11540        1.83870
H         -7.53400       -1.92150        1.43570
H         -7.34810       -3.46280        2.29390
H         -7.94010       -3.20590       -0.69420
H         -7.77540       -4.71300        0.21090
H         -9.11650       -3.61660        0.55800
H         -2.40800        0.81010       -0.36860
H         -3.18660        3.10150       -0.09070
H         -4.76920        4.80530        0.31620
H         -3.09480        5.41890        0.12140
H         -4.32350        6.40660        0.94140
H         -2.66130        2.76100        4.14250
H         -1.82750        0.46250        3.84960
H         -0.18700       -2.92950        2.37980
H         -1.01200       -4.77670        3.76940
H         -5.69120       -6.29560        4.82870
H         -5.46340       -5.09850        3.52370
H         -5.81380       -4.56860        5.20360
H         -4.75920       -2.76430        4.20750
H         -3.94350       -0.93870        2.82420
H          3.42270       -1.95670       -1.24790
H          4.11530       -4.26810       -1.74240
H          4.22770       -7.13780       -5.98570
H          4.49700       -5.43380       -6.40990
H          2.84100       -6.02960       -6.05690
H          3.02220       -3.70440       -5.84130
H          2.30470       -1.43400       -5.34180
H          4.42330        0.23610       -4.60350
H          4.53730        1.98440       -6.30460
H          4.37850        5.29230       -7.92090
H          4.74030        3.55590       -7.99880
H          4.83690        4.42960       -6.43220
H          0.62590        3.31650       -5.20320
H          0.51470        1.55680       -3.48510
H          1.39170        7.27320        1.94030
H          2.67610        7.88900        0.88430
H          0.98530        8.09170       -0.98180
H         -0.28180        7.60210        0.13150
H          0.59970        9.10170        0.41440
H         -0.53420        5.89710        1.45030
H         -0.80960        4.18910        1.02670
H         -0.61070        4.51940        3.48590
H          1.03710        5.12120        3.27300
H          0.64280        3.45120        2.84570
H          6.74240        5.13040       -1.40570
H          7.23840       10.36770       -0.23920
H          2.54220        9.83790       -1.79670
