
  xtb     02112220073D
 energy: -417.507743621512 gnorm: 0.000573456870 xtb: 6.4.1 (unknown)
257281  0     0  0            999 V2000
    1.3861    7.8762   -6.6949 C   0  0  0  0  0  0  0  0  0  0  0  0
    2.7169    8.2745   -6.6992 C   0  0  0  0  0  0  0  0  0  0  0  0
    3.7895    7.5006   -6.0718 C   0  0  0  0  0  0  0  0  0  0  0  0
    3.6966    6.4799   -5.4129 O   0  0  0  0  0  0  0  0  0  0  0  0
    5.0476    8.1642   -6.4880 C   0  0  0  0  0  0  0  0  0  0  0  0
    6.3455    7.8134   -6.1917 C   0  0  0  0  0  0  0  0  0  0  0  0
    7.3734    8.6132   -6.6823 C   0  0  0  0  0  0  0  0  0  0  0  0
    9.0077    8.2145   -6.3198 Cl  0  0  0  0  0  0  0  0  0  0  0  0
    7.0739    9.7310   -7.4590 C   0  0  0  0  0  0  0  0  0  0  0  0
    8.4731   10.8210   -8.1223 Br  0  0  0  0  0  0  0  0  0  0  0  0
    5.7622   10.0770   -7.7682 C   0  0  0  0  0  0  0  0  0  0  0  0
    4.7416    9.2857   -7.2765 C   0  0  0  0  0  0  0  0  0  0  0  0
    3.2871    9.3805   -7.4034 C   0  0  0  0  0  0  0  0  0  0  0  0
    2.5955   10.4289   -7.9647 C   0  0  0  0  0  0  0  0  0  0  0  0
    1.1918   10.5353   -7.9539 C   0  0  0  0  0  0  0  0  0  0  0  0
    0.0540   10.6955   -7.9555 N   0  0  0  0  0  0  0  0  0  0  0  0
    3.2076   11.5552   -8.5411 C   0  0  0  0  0  0  0  0  0  0  0  0
    3.6587   12.5052   -9.0045 N   0  0  0  0  0  0  0  0  0  0  0  0
    0.8107    7.0548   -5.7390 C   0  0  0  0  0  0  0  0  0  0  0  0
    1.2200    6.7578   -4.4107 C   0  0  0  0  0  0  0  0  0  0  0  0
    2.0299    7.5148   -3.6363 N   0  0  0  0  0  0  0  0  0  0  0  0
    2.4144    8.8319   -3.9491 C   0  0  0  0  0  0  0  0  0  0  0  0
    1.4970    9.7729   -4.4115 C   0  0  0  0  0  0  0  0  0  0  0  0
    1.9174   11.0467   -4.7304 C   0  0  0  0  0  0  0  0  0  0  0  0
    3.2540   11.4203   -4.6013 C   0  0  0  0  0  0  0  0  0  0  0  0
    3.6981   12.7907   -5.0032 C   0  0  0  0  0  0  0  0  0  0  0  0
    4.1512   10.4884   -4.0975 C   0  0  0  0  0  0  0  0  0  0  0  0
    3.7411    9.2103   -3.7652 C   0  0  0  0  0  0  0  0  0  0  0  0
    2.4881    7.0218   -2.3852 C   0  0  0  0  0  0  0  0  0  0  0  0
    3.3312    5.9212   -2.3194 C   0  0  0  0  0  0  0  0  0  0  0  0
    3.7590    5.4649   -1.0864 C   0  0  0  0  0  0  0  0  0  0  0  0
    3.3547    6.0834    0.0896 C   0  0  0  0  0  0  0  0  0  0  0  0
    3.8187    5.5773    1.4202 C   0  0  0  0  0  0  0  0  0  0  0  0
    2.5300    7.2005    0.0042 C   0  0  0  0  0  0  0  0  0  0  0  0
    2.1034    7.6753   -1.2203 C   0  0  0  0  0  0  0  0  0  0  0  0
    0.5287    5.6212   -3.9405 C   0  0  0  0  0  0  0  0  0  0  0  0
    0.6734    4.6173   -2.5410 S   0  0  0  0  0  0  0  0  0  0  0  0
   -0.5981    3.5548   -3.1335 C   0  0  0  0  0  0  0  0  0  0  0  0
   -1.2103    4.0634   -4.2716 C   0  0  0  0  0  0  0  0  0  0  0  0
   -2.3829    3.5742   -4.8416 N   0  0  0  0  0  0  0  0  0  0  0  0
   -3.5744    3.6721   -4.1053 C   0  0  0  0  0  0  0  0  0  0  0  0
   -4.6981    2.9512   -4.5054 C   0  0  0  0  0  0  0  0  0  0  0  0
   -5.9031    3.1223   -3.8565 C   0  0  0  0  0  0  0  0  0  0  0  0
   -6.0227    3.9884   -2.7751 C   0  0  0  0  0  0  0  0  0  0  0  0
   -7.3490    4.2326   -2.1219 C   0  0  0  0  0  0  0  0  0  0  0  0
   -4.8833    4.6504   -2.3389 C   0  0  0  0  0  0  0  0  0  0  0  0
   -3.6761    4.5054   -2.9938 C   0  0  0  0  0  0  0  0  0  0  0  0
   -2.4226    3.5479   -6.2500 C   0  0  0  0  0  0  0  0  0  0  0  0
   -1.3855    2.9204   -6.9320 C   0  0  0  0  0  0  0  0  0  0  0  0
   -1.3610    2.9089   -8.3127 C   0  0  0  0  0  0  0  0  0  0  0  0
   -2.3715    3.5119   -9.0489 C   0  0  0  0  0  0  0  0  0  0  0  0
   -2.3424    3.5231  -10.5463 C   0  0  0  0  0  0  0  0  0  0  0  0
   -3.4095    4.1298   -8.3593 C   0  0  0  0  0  0  0  0  0  0  0  0
   -3.4397    4.1568   -6.9802 C   0  0  0  0  0  0  0  0  0  0  0  0
   -0.5005    5.1811   -4.7638 C   0  0  0  0  0  0  0  0  0  0  0  0
   -0.6248    6.1162   -6.2088 S   0  0  0  0  0  0  0  0  0  0  0  0
   -0.7674    2.3106   -2.4644 C   0  0  0  0  0  0  0  0  0  0  0  0
    0.2748    1.5981   -1.8794 C   0  0  0  0  0  0  0  0  0  0  0  0
    1.6346    1.8258   -2.0402 N   0  0  0  0  0  0  0  0  0  0  0  0
    2.4453    1.4473   -0.9454 C   0  0  0  0  0  0  0  0  0  0  0  0
    3.3385    0.3862   -1.0502 C   0  0  0  0  0  0  0  0  0  0  0  0
    4.0013   -0.0751    0.0692 C   0  0  0  0  0  0  0  0  0  0  0  0
    3.7741    0.5197    1.3042 C   0  0  0  0  0  0  0  0  0  0  0  0
    4.4867   -0.0885    2.8014 S   0  0  0  0  0  0  0  0  0  0  0  0
    4.7176   -1.8541    2.4345 C   0  0  0  0  0  0  0  0  0  0  0  0
    2.9513    1.6398    1.3921 C   0  0  0  0  0  0  0  0  0  0  0  0
    2.2933    2.1029    0.2729 C   0  0  0  0  0  0  0  0  0  0  0  0
    2.2312    2.1771   -3.2500 C   0  0  0  0  0  0  0  0  0  0  0  0
    1.5747    2.0497   -4.4740 C   0  0  0  0  0  0  0  0  0  0  0  0
    2.1489    2.5312   -5.6331 C   0  0  0  0  0  0  0  0  0  0  0  0
    3.3989    3.1345   -5.6029 C   0  0  0  0  0  0  0  0  0  0  0  0
    4.1503    3.8449   -7.0337 S   0  0  0  0  0  0  0  0  0  0  0  0
    2.7029    4.3915   -7.9857 C   0  0  0  0  0  0  0  0  0  0  0  0
    4.1050    3.1631   -4.4057 C   0  0  0  0  0  0  0  0  0  0  0  0
    3.5288    2.6938   -3.2461 C   0  0  0  0  0  0  0  0  0  0  0  0
   -0.2251    0.5121   -1.1278 C   0  0  0  0  0  0  0  0  0  0  0  0
    0.5353   -0.6054   -0.0634 S   0  0  0  0  0  0  0  0  0  0  0  0
   -1.0207   -1.3318    0.2960 C   0  0  0  0  0  0  0  0  0  0  0  0
   -2.0444   -0.8333   -0.5017 C   0  0  0  0  0  0  0  0  0  0  0  0
   -3.2442   -1.5060   -0.6267 N   0  0  0  0  0  0  0  0  0  0  0  0
   -4.4174   -0.9768   -1.1691 C   0  0  0  0  0  0  0  0  0  0  0  0
   -4.8051    0.3431   -0.9513 C   0  0  0  0  0  0  0  0  0  0  0  0
   -6.0076    0.8047   -1.4390 C   0  0  0  0  0  0  0  0  0  0  0  0
   -6.8479   -0.0318   -2.1679 C   0  0  0  0  0  0  0  0  0  0  0  0
   -8.3803    0.6507   -2.7249 S   0  0  0  0  0  0  0  0  0  0  0  0
   -9.2752   -0.7711   -3.4105 C   0  0  0  0  0  0  0  0  0  0  0  0
   -6.4530   -1.3383   -2.4172 C   0  0  0  0  0  0  0  0  0  0  0  0
   -5.2524   -1.8032   -1.9210 C   0  0  0  0  0  0  0  0  0  0  0  0
   -3.2163   -2.8955   -0.3539 C   0  0  0  0  0  0  0  0  0  0  0  0
   -4.1550   -3.4555    0.5042 C   0  0  0  0  0  0  0  0  0  0  0  0
   -4.0625   -4.7878    0.8600 C   0  0  0  0  0  0  0  0  0  0  0  0
   -3.0264   -5.5697    0.3662 C   0  0  0  0  0  0  0  0  0  0  0  0
   -2.7737   -7.2368    0.9024 S   0  0  0  0  0  0  0  0  0  0  0  0
   -3.1039   -7.0852    2.6867 C   0  0  0  0  0  0  0  0  0  0  0  0
   -2.1462   -5.0362   -0.5688 C   0  0  0  0  0  0  0  0  0  0  0  0
   -2.2439   -3.7110   -0.9297 C   0  0  0  0  0  0  0  0  0  0  0  0
   -1.5905    0.2914   -1.2455 C   0  0  0  0  0  0  0  0  0  0  0  0
   -2.3190    1.5009   -2.2593 S   0  0  0  0  0  0  0  0  0  0  0  0
   -1.0386   -2.2907    1.3629 C   0  0  0  0  0  0  0  0  0  0  0  0
   -1.7741   -2.2764    2.5411 C   0  0  0  0  0  0  0  0  0  0  0  0
   -2.6821   -1.2961    2.8999 N   0  0  0  0  0  0  0  0  0  0  0  0
   -3.6816   -1.5606    3.8495 C   0  0  0  0  0  0  0  0  0  0  0  0
   -4.0200   -0.5999    4.8011 C   0  0  0  0  0  0  0  0  0  0  0  0
   -5.0047   -0.8587    5.7314 C   0  0  0  0  0  0  0  0  0  0  0  0
   -5.6762   -2.0764    5.7526 C   0  0  0  0  0  0  0  0  0  0  0  0
   -6.7204   -2.3548    6.7893 C   0  0  0  0  0  0  0  0  0  0  0  0
   -5.3319   -3.0296    4.8047 C   0  0  0  0  0  0  0  0  0  0  0  0
   -4.3518   -2.7803    3.8632 C   0  0  0  0  0  0  0  0  0  0  0  0
   -2.4783    0.0295    2.4745 C   0  0  0  0  0  0  0  0  0  0  0  0
   -3.5644    0.8166    2.1043 C   0  0  0  0  0  0  0  0  0  0  0  0
   -3.3626    2.0917    1.6113 C   0  0  0  0  0  0  0  0  0  0  0  0
   -2.0816    2.6093    1.4559 C   0  0  0  0  0  0  0  0  0  0  0  0
   -1.8775    3.9589    0.8382 C   0  0  0  0  0  0  0  0  0  0  0  0
   -1.0097    1.8434    1.8944 C   0  0  0  0  0  0  0  0  0  0  0  0
   -1.1996    0.5763    2.4093 C   0  0  0  0  0  0  0  0  0  0  0  0
   -1.3797   -3.3423    3.3885 C   0  0  0  0  0  0  0  0  0  0  0  0
   -1.8129   -3.8063    4.9947 S   0  0  0  0  0  0  0  0  0  0  0  0
   -0.5786   -5.0793    4.9947 C   0  0  0  0  0  0  0  0  0  0  0  0
    0.1814   -5.0683    3.8062 C   0  0  0  0  0  0  0  0  0  0  0  0
    1.3374   -5.7513    3.5666 N   0  0  0  0  0  0  0  0  0  0  0  0
    2.2033   -6.1718    4.5846 C   0  0  0  0  0  0  0  0  0  0  0  0
    2.4500   -5.3753    5.7026 C   0  0  0  0  0  0  0  0  0  0  0  0
    3.2797   -5.8277    6.7062 C   0  0  0  0  0  0  0  0  0  0  0  0
    3.8876   -7.0792    6.6315 C   0  0  0  0  0  0  0  0  0  0  0  0
    4.7393   -7.5739    7.7576 C   0  0  0  0  0  0  0  0  0  0  0  0
    3.6727   -7.8464    5.4947 C   0  0  0  0  0  0  0  0  0  0  0  0
    2.8462   -7.4032    4.4791 C   0  0  0  0  0  0  0  0  0  0  0  0
    1.7259   -5.9955    2.2303 C   0  0  0  0  0  0  0  0  0  0  0  0
    3.0144   -5.6805    1.8128 C   0  0  0  0  0  0  0  0  0  0  0  0
    3.3901   -5.9207    0.5056 C   0  0  0  0  0  0  0  0  0  0  0  0
    2.5017   -6.4829   -0.4040 C   0  0  0  0  0  0  0  0  0  0  0  0
    2.9070   -6.7176   -1.8266 C   0  0  0  0  0  0  0  0  0  0  0  0
    1.2230   -6.8094    0.0330 C   0  0  0  0  0  0  0  0  0  0  0  0
    0.8310   -6.5684    1.3341 C   0  0  0  0  0  0  0  0  0  0  0  0
   -0.3300   -4.1084    2.9016 C   0  0  0  0  0  0  0  0  0  0  0  0
    0.1936   -3.5456    1.3525 S   0  0  0  0  0  0  0  0  0  0  0  0
   -0.4764   -5.8532    6.1519 C   0  0  0  0  0  0  0  0  0  0  0  0
    0.1017   -7.1025    6.2439 C   0  0  0  0  0  0  0  0  0  0  0  0
    0.1768   -8.0555    5.1290 C   0  0  0  0  0  0  0  0  0  0  0  0
   -0.2290   -7.8928    3.9907 O   0  0  0  0  0  0  0  0  0  0  0  0
    0.7113   -9.3075    5.7025 C   0  0  0  0  0  0  0  0  0  0  0  0
    0.9560  -10.5013    5.0322 C   0  0  0  0  0  0  0  0  0  0  0  0
    1.4735  -11.4949    5.8298 C   0  0  0  0  0  0  0  0  0  0  0  0
    1.7189  -11.3171    7.1962 C   0  0  0  0  0  0  0  0  0  0  0  0
    1.4749  -10.1437    7.8712 C   0  0  0  0  0  0  0  0  0  0  0  0
    0.9562   -9.1207    7.0765 C   0  0  0  0  0  0  0  0  0  0  0  0
    0.6002   -7.7464    7.4255 C   0  0  0  0  0  0  0  0  0  0  0  0
    0.8601   -7.1263    8.6243 C   0  0  0  0  0  0  0  0  0  0  0  0
    0.6301   -5.7584    8.8691 C   0  0  0  0  0  0  0  0  0  0  0  0
    0.4996   -4.6468    9.1291 N   0  0  0  0  0  0  0  0  0  0  0  0
    1.4671   -7.7498    9.7287 C   0  0  0  0  0  0  0  0  0  0  0  0
    1.9767   -8.1947   10.6581 N   0  0  0  0  0  0  0  0  0  0  0  0
    2.2175  -12.7298    7.3732 C   0  0  0  0  0  0  0  0  0  0  0  0
    1.2602  -13.7565    8.0270 C   0  0  0  0  0  0  0  0  0  0  0  0
   -0.1417  -13.2785    7.7414 C   0  0  0  0  0  0  0  0  0  0  0  0
   -0.3709  -13.4471    6.4460 C   0  0  0  0  0  0  0  0  0  0  0  0
    0.8722  -14.0419    5.8323 C   0  0  0  0  0  0  0  0  0  0  0  0
    1.3694  -14.9005    7.0062 C   0  0  0  0  0  0  0  0  0  0  0  0
    1.9474  -12.9274    5.8481 C   0  0  0  0  0  0  0  0  0  0  0  0
    0.7569    8.1576   -7.5303 H   0  0  0  0  0  0  0  0  0  0  0  0
    6.5594    6.9421   -5.5935 H   0  0  0  0  0  0  0  0  0  0  0  0
    5.5731   10.9436   -8.3813 H   0  0  0  0  0  0  0  0  0  0  0  0
    0.4573    9.5048   -4.5240 H   0  0  0  0  0  0  0  0  0  0  0  0
    1.1976   11.7654   -5.0935 H   0  0  0  0  0  0  0  0  0  0  0  0
    3.0517   13.5476   -4.5623 H   0  0  0  0  0  0  0  0  0  0  0  0
    4.7229   12.9761   -4.6920 H   0  0  0  0  0  0  0  0  0  0  0  0
    3.6431   12.9031   -6.0867 H   0  0  0  0  0  0  0  0  0  0  0  0
    5.1889   10.7597   -3.9694 H   0  0  0  0  0  0  0  0  0  0  0  0
    4.4485    8.4931   -3.3768 H   0  0  0  0  0  0  0  0  0  0  0  0
    3.6460    5.4489   -3.2365 H   0  0  0  0  0  0  0  0  0  0  0  0
    4.4229    4.6153   -1.0325 H   0  0  0  0  0  0  0  0  0  0  0  0
    3.0432    5.7010    2.1730 H   0  0  0  0  0  0  0  0  0  0  0  0
    4.0933    4.5266    1.3621 H   0  0  0  0  0  0  0  0  0  0  0  0
    4.6937    6.1393    1.7481 H   0  0  0  0  0  0  0  0  0  0  0  0
    2.2167    7.7024    0.9080 H   0  0  0  0  0  0  0  0  0  0  0  0
    1.4639    8.5438   -1.2816 H   0  0  0  0  0  0  0  0  0  0  0  0
   -4.6226    2.2746   -5.3434 H   0  0  0  0  0  0  0  0  0  0  0  0
   -6.7707    2.5761   -4.1944 H   0  0  0  0  0  0  0  0  0  0  0  0
   -7.2327    4.4181   -1.0558 H   0  0  0  0  0  0  0  0  0  0  0  0
   -8.0168    3.3870   -2.2675 H   0  0  0  0  0  0  0  0  0  0  0  0
   -7.8194    5.1126   -2.5625 H   0  0  0  0  0  0  0  0  0  0  0  0
   -4.9451    5.3163   -1.4893 H   0  0  0  0  0  0  0  0  0  0  0  0
   -2.8164    5.0663   -2.6568 H   0  0  0  0  0  0  0  0  0  0  0  0
   -0.6025    2.4429   -6.3641 H   0  0  0  0  0  0  0  0  0  0  0  0
   -0.5469    2.4172   -8.8267 H   0  0  0  0  0  0  0  0  0  0  0  0
   -3.3268    3.2998  -10.9527 H   0  0  0  0  0  0  0  0  0  0  0  0
   -2.0500    4.5100  -10.9059 H   0  0  0  0  0  0  0  0  0  0  0  0
   -1.6304    2.7959  -10.9290 H   0  0  0  0  0  0  0  0  0  0  0  0
   -4.2013    4.6110   -8.9148 H   0  0  0  0  0  0  0  0  0  0  0  0
   -4.2436    4.6600   -6.4644 H   0  0  0  0  0  0  0  0  0  0  0  0
    3.4867   -0.0928   -2.0065 H   0  0  0  0  0  0  0  0  0  0  0  0
    4.6738   -0.9125   -0.0242 H   0  0  0  0  0  0  0  0  0  0  0  0
    5.6022   -2.0042    1.8221 H   0  0  0  0  0  0  0  0  0  0  0  0
    3.8283   -2.2374    1.9423 H   0  0  0  0  0  0  0  0  0  0  0  0
    4.8533   -2.3403    3.3958 H   0  0  0  0  0  0  0  0  0  0  0  0
    2.8192    2.1207    2.3496 H   0  0  0  0  0  0  0  0  0  0  0  0
    1.6415    2.9625    0.3248 H   0  0  0  0  0  0  0  0  0  0  0  0
    0.6107    1.5650   -4.5175 H   0  0  0  0  0  0  0  0  0  0  0  0
    1.6206    2.4284   -6.5678 H   0  0  0  0  0  0  0  0  0  0  0  0
    2.2562    3.5578   -8.5201 H   0  0  0  0  0  0  0  0  0  0  0  0
    1.9883    4.8516   -7.3106 H   0  0  0  0  0  0  0  0  0  0  0  0
    3.0684    5.1267   -8.6962 H   0  0  0  0  0  0  0  0  0  0  0  0
    5.0991    3.5819   -4.3914 H   0  0  0  0  0  0  0  0  0  0  0  0
    4.0730    2.7451   -2.3164 H   0  0  0  0  0  0  0  0  0  0  0  0
   -4.1769    0.9958   -0.3708 H   0  0  0  0  0  0  0  0  0  0  0  0
   -6.3096    1.8200   -1.2452 H   0  0  0  0  0  0  0  0  0  0  0  0
   -9.3644   -1.5485   -2.6574 H   0  0  0  0  0  0  0  0  0  0  0  0
   -8.7718   -1.1376   -4.3006 H   0  0  0  0  0  0  0  0  0  0  0  0
  -10.2596   -0.3967   -3.6739 H   0  0  0  0  0  0  0  0  0  0  0  0
   -7.0667   -2.0089   -2.9970 H   0  0  0  0  0  0  0  0  0  0  0  0
   -4.9592   -2.8233   -2.1205 H   0  0  0  0  0  0  0  0  0  0  0  0
   -4.9458   -2.8363    0.9014 H   0  0  0  0  0  0  0  0  0  0  0  0
   -4.7909   -5.2156    1.5326 H   0  0  0  0  0  0  0  0  0  0  0  0
   -4.1268   -7.3755    2.9092 H   0  0  0  0  0  0  0  0  0  0  0  0
   -2.4039   -7.7485    3.1866 H   0  0  0  0  0  0  0  0  0  0  0  0
   -2.9148   -6.0620    2.9944 H   0  0  0  0  0  0  0  0  0  0  0  0
   -1.3728   -5.6605   -0.9861 H   0  0  0  0  0  0  0  0  0  0  0  0
   -1.5412   -3.2891   -1.6329 H   0  0  0  0  0  0  0  0  0  0  0  0
   -3.5010    0.3471    4.8112 H   0  0  0  0  0  0  0  0  0  0  0  0
   -5.2505   -0.1038    6.4642 H   0  0  0  0  0  0  0  0  0  0  0  0
   -6.2452   -2.6646    7.7206 H   0  0  0  0  0  0  0  0  0  0  0  0
   -7.3865   -3.1519    6.4679 H   0  0  0  0  0  0  0  0  0  0  0  0
   -7.3090   -1.4634    6.9955 H   0  0  0  0  0  0  0  0  0  0  0  0
   -5.8387   -3.9841    4.7988 H   0  0  0  0  0  0  0  0  0  0  0  0
   -4.1038   -3.5295    3.1288 H   0  0  0  0  0  0  0  0  0  0  0  0
   -4.5640    0.4156    2.1866 H   0  0  0  0  0  0  0  0  0  0  0  0
   -4.2146    2.6896    1.3192 H   0  0  0  0  0  0  0  0  0  0  0  0
   -0.8493    4.0854    0.5058 H   0  0  0  0  0  0  0  0  0  0  0  0
   -2.5388    4.0866   -0.0174 H   0  0  0  0  0  0  0  0  0  0  0  0
   -2.1034    4.7459    1.5582 H   0  0  0  0  0  0  0  0  0  0  0  0
   -0.0067    2.2368    1.8318 H   0  0  0  0  0  0  0  0  0  0  0  0
   -0.3518    0.0033    2.7548 H   0  0  0  0  0  0  0  0  0  0  0  0
    1.9867   -4.4034    5.7848 H   0  0  0  0  0  0  0  0  0  0  0  0
    3.4536   -5.2026    7.5700 H   0  0  0  0  0  0  0  0  0  0  0  0
    5.4792   -6.8256    8.0363 H   0  0  0  0  0  0  0  0  0  0  0  0
    4.1249   -7.7715    8.6364 H   0  0  0  0  0  0  0  0  0  0  0  0
    5.2513   -8.4929    7.4844 H   0  0  0  0  0  0  0  0  0  0  0  0
    4.1435   -8.8147    5.4064 H   0  0  0  0  0  0  0  0  0  0  0  0
    2.6800   -8.0142    3.6046 H   0  0  0  0  0  0  0  0  0  0  0  0
    3.7134   -5.2479    2.5145 H   0  0  0  0  0  0  0  0  0  0  0  0
    4.3913   -5.6681    0.1867 H   0  0  0  0  0  0  0  0  0  0  0  0
    3.9781   -6.8886   -1.9044 H   0  0  0  0  0  0  0  0  0  0  0  0
    2.3805   -7.5727   -2.2437 H   0  0  0  0  0  0  0  0  0  0  0  0
    2.6604   -5.8435   -2.4305 H   0  0  0  0  0  0  0  0  0  0  0  0
    0.5271   -7.2750   -0.6497 H   0  0  0  0  0  0  0  0  0  0  0  0
   -0.1512   -6.8498    1.6768 H   0  0  0  0  0  0  0  0  0  0  0  0
   -0.9211   -5.4228    7.0412 H   0  0  0  0  0  0  0  0  0  0  0  0
    0.7525  -10.5986    3.9769 H   0  0  0  0  0  0  0  0  0  0  0  0
    1.6593  -10.0232    8.9259 H   0  0  0  0  0  0  0  0  0  0  0  0
    3.2412  -12.8347    7.7278 H   0  0  0  0  0  0  0  0  0  0  0  0
    1.4865  -13.9874    9.0645 H   0  0  0  0  0  0  0  0  0  0  0  0
   -0.7816  -12.8266    8.4765 H   0  0  0  0  0  0  0  0  0  0  0  0
   -1.2405  -13.1636    5.8824 H   0  0  0  0  0  0  0  0  0  0  0  0
    0.7452  -14.5336    4.8712 H   0  0  0  0  0  0  0  0  0  0  0  0
    0.7033  -15.7320    7.2320 H   0  0  0  0  0  0  0  0  0  0  0  0
    2.3860  -15.2688    6.8745 H   0  0  0  0  0  0  0  0  0  0  0  0
    2.7956  -13.1604    5.2068 H   0  0  0  0  0  0  0  0  0  0  0  0
  1  2  2  0  0  0  0
  2  3  1  0  0  0  0
  3  4  2  0  0  0  0
  3  5  1  0  0  0  0
  5  6  2  0  0  0  0
  6  7  1  0  0  0  0
  7  8  1  0  0  0  0
  7  9  2  0  0  0  0
  9 10  1  0  0  0  0
  9 11  1  0  0  0  0
 11 12  2  0  0  0  0
 12 13  1  0  0  0  0
 13 14  2  0  0  0  0
 14 15  1  0  0  0  0
 15 16  3  0  0  0  0
 14 17  1  0  0  0  0
 17 18  3  0  0  0  0
  1 19  1  0  0  0  0
 19 20  2  0  0  0  0
 20 21  1  0  0  0  0
 21 22  1  0  0  0  0
 22 23  2  0  0  0  0
 23 24  1  0  0  0  0
 24 25  2  0  0  0  0
 25 26  1  0  0  0  0
 25 27  1  0  0  0  0
 27 28  2  0  0  0  0
 21 29  1  0  0  0  0
 29 30  2  0  0  0  0
 30 31  1  0  0  0  0
 31 32  2  0  0  0  0
 32 33  1  0  0  0  0
 32 34  1  0  0  0  0
 34 35  2  0  0  0  0
 20 36  1  0  0  0  0
 36 37  1  0  0  0  0
 37 38  1  0  0  0  0
 38 39  2  0  0  0  0
 39 40  1  0  0  0  0
 40 41  1  0  0  0  0
 41 42  2  0  0  0  0
 42 43  1  0  0  0  0
 43 44  2  0  0  0  0
 44 45  1  0  0  0  0
 44 46  1  0  0  0  0
 46 47  2  0  0  0  0
 40 48  1  0  0  0  0
 48 49  2  0  0  0  0
 49 50  1  0  0  0  0
 50 51  2  0  0  0  0
 51 52  1  0  0  0  0
 51 53  1  0  0  0  0
 53 54  2  0  0  0  0
 39 55  1  0  0  0  0
 55 56  1  0  0  0  0
 38 57  1  0  0  0  0
 57 58  2  0  0  0  0
 58 59  1  0  0  0  0
 59 60  1  0  0  0  0
 60 61  2  0  0  0  0
 61 62  1  0  0  0  0
 62 63  2  0  0  0  0
 63 64  1  0  0  0  0
 64 65  1  0  0  0  0
 63 66  1  0  0  0  0
 66 67  2  0  0  0  0
 59 68  1  0  0  0  0
 68 69  2  0  0  0  0
 69 70  1  0  0  0  0
 70 71  2  0  0  0  0
 71 72  1  0  0  0  0
 72 73  1  0  0  0  0
 71 74  1  0  0  0  0
 74 75  2  0  0  0  0
 58 76  1  0  0  0  0
 76 77  1  0  0  0  0
 77 78  1  0  0  0  0
 78 79  2  0  0  0  0
 79 80  1  0  0  0  0
 80 81  1  0  0  0  0
 81 82  2  0  0  0  0
 82 83  1  0  0  0  0
 83 84  2  0  0  0  0
 84 85  1  0  0  0  0
 85 86  1  0  0  0  0
 84 87  1  0  0  0  0
 87 88  2  0  0  0  0
 80 89  1  0  0  0  0
 89 90  2  0  0  0  0
 90 91  1  0  0  0  0
 91 92  2  0  0  0  0
 92 93  1  0  0  0  0
 93 94  1  0  0  0  0
 92 95  1  0  0  0  0
 95 96  2  0  0  0  0
 79 97  1  0  0  0  0
 97 98  1  0  0  0  0
 78 99  1  0  0  0  0
 99100  2  0  0  0  0
100101  1  0  0  0  0
101102  1  0  0  0  0
102103  2  0  0  0  0
103104  1  0  0  0  0
104105  2  0  0  0  0
105106  1  0  0  0  0
105107  1  0  0  0  0
107108  2  0  0  0  0
101109  1  0  0  0  0
109110  2  0  0  0  0
110111  1  0  0  0  0
111112  2  0  0  0  0
112113  1  0  0  0  0
112114  1  0  0  0  0
114115  2  0  0  0  0
100116  1  0  0  0  0
116117  1  0  0  0  0
117118  1  0  0  0  0
118119  2  0  0  0  0
119120  1  0  0  0  0
120121  1  0  0  0  0
121122  2  0  0  0  0
122123  1  0  0  0  0
123124  2  0  0  0  0
124125  1  0  0  0  0
124126  1  0  0  0  0
126127  2  0  0  0  0
120128  1  0  0  0  0
128129  2  0  0  0  0
129130  1  0  0  0  0
130131  2  0  0  0  0
131132  1  0  0  0  0
131133  1  0  0  0  0
133134  2  0  0  0  0
119135  1  0  0  0  0
135136  1  0  0  0  0
118137  1  0  0  0  0
137138  2  0  0  0  0
138139  1  0  0  0  0
139140  2  0  0  0  0
139141  1  0  0  0  0
141142  2  0  0  0  0
142143  1  0  0  0  0
143144  2  0  0  0  0
144145  1  0  0  0  0
145146  2  0  0  0  0
146147  1  0  0  0  0
147148  2  0  0  0  0
148149  1  0  0  0  0
149150  3  0  0  0  0
148151  1  0  0  0  0
151152  3  0  0  0  0
144153  1  0  0  0  0
153154  1  0  0  0  0
154155  1  0  0  0  0
155156  2  0  0  0  0
156157  1  0  0  0  0
157158  1  0  0  0  0
157159  1  0  0  0  0
 13  2  1  0  0  0  0
 56 19  1  0  0  0  0
 98 57  1  0  0  0  0
136 99  1  0  0  0  0
147138  1  0  0  0  0
159153  1  0  0  0  0
 12  5  1  0  0  0  0
 28 22  1  0  0  0  0
 35 29  1  0  0  0  0
 55 36  2  0  0  0  0
 67 60  1  0  0  0  0
 75 68  1  0  0  0  0
 97 76  2  0  0  0  0
108102  1  0  0  0  0
115109  1  0  0  0  0
135116  2  0  0  0  0
146141  1  0  0  0  0
158154  1  0  0  0  0
 47 41  1  0  0  0  0
 54 48  1  0  0  0  0
 88 81  1  0  0  0  0
 96 89  1  0  0  0  0
127121  1  0  0  0  0
134128  1  0  0  0  0
159143  1  0  0  0  0
  1160  1  0  0  0  0
  6161  1  0  0  0  0
 11162  1  0  0  0  0
 23163  1  0  0  0  0
 24164  1  0  0  0  0
 26165  1  0  0  0  0
 26166  1  0  0  0  0
 26167  1  0  0  0  0
 27168  1  0  0  0  0
 28169  1  0  0  0  0
 30170  1  0  0  0  0
 31171  1  0  0  0  0
 33172  1  0  0  0  0
 33173  1  0  0  0  0
 33174  1  0  0  0  0
 34175  1  0  0  0  0
 35176  1  0  0  0  0
 42177  1  0  0  0  0
 43178  1  0  0  0  0
 45179  1  0  0  0  0
 45180  1  0  0  0  0
 45181  1  0  0  0  0
 46182  1  0  0  0  0
 47183  1  0  0  0  0
 49184  1  0  0  0  0
 50185  1  0  0  0  0
 52186  1  0  0  0  0
 52187  1  0  0  0  0
 52188  1  0  0  0  0
 53189  1  0  0  0  0
 54190  1  0  0  0  0
 61191  1  0  0  0  0
 62192  1  0  0  0  0
 65193  1  0  0  0  0
 65194  1  0  0  0  0
 65195  1  0  0  0  0
 66196  1  0  0  0  0
 67197  1  0  0  0  0
 69198  1  0  0  0  0
 70199  1  0  0  0  0
 73200  1  0  0  0  0
 73201  1  0  0  0  0
 73202  1  0  0  0  0
 74203  1  0  0  0  0
 75204  1  0  0  0  0
 82205  1  0  0  0  0
 83206  1  0  0  0  0
 86207  1  0  0  0  0
 86208  1  0  0  0  0
 86209  1  0  0  0  0
 87210  1  0  0  0  0
 88211  1  0  0  0  0
 90212  1  0  0  0  0
 91213  1  0  0  0  0
 94214  1  0  0  0  0
 94215  1  0  0  0  0
 94216  1  0  0  0  0
 95217  1  0  0  0  0
 96218  1  0  0  0  0
103219  1  0  0  0  0
104220  1  0  0  0  0
106221  1  0  0  0  0
106222  1  0  0  0  0
106223  1  0  0  0  0
107224  1  0  0  0  0
108225  1  0  0  0  0
110226  1  0  0  0  0
111227  1  0  0  0  0
113228  1  0  0  0  0
113229  1  0  0  0  0
113230  1  0  0  0  0
114231  1  0  0  0  0
115232  1  0  0  0  0
122233  1  0  0  0  0
123234  1  0  0  0  0
125235  1  0  0  0  0
125236  1  0  0  0  0
125237  1  0  0  0  0
126238  1  0  0  0  0
127239  1  0  0  0  0
129240  1  0  0  0  0
130241  1  0  0  0  0
132242  1  0  0  0  0
132243  1  0  0  0  0
132244  1  0  0  0  0
133245  1  0  0  0  0
134246  1  0  0  0  0
137247  1  0  0  0  0
142248  1  0  0  0  0
145249  1  0  0  0  0
153250  1  0  0  0  0
154251  1  0  0  0  0
155252  1  0  0  0  0
156253  1  0  0  0  0
157254  1  0  0  0  0
158255  1  0  0  0  0
158256  1  0  0  0  0
159257  1  0  0  0  0
M  END
