257

C          1.38610        7.87620       -6.69490
C          2.71690        8.27450       -6.69920
C          3.78950        7.50060       -6.07180
O          3.69660        6.47990       -5.41290
C          5.04760        8.16420       -6.48800
C          6.34550        7.81340       -6.19170
C          7.37340        8.61320       -6.68230
Cl         9.00770        8.21450       -6.31980
C          7.07390        9.73100       -7.45900
Br         8.47310       10.82100       -8.12230
C          5.76220       10.07700       -7.76820
C          4.74160        9.28570       -7.27650
C          3.28710        9.38050       -7.40340
C          2.59550       10.42890       -7.96470
C          1.19180       10.53530       -7.95390
N          0.05400       10.69550       -7.95550
C          3.20760       11.55520       -8.54110
N          3.65870       12.50520       -9.00450
C          0.81070        7.05480       -5.73900
C          1.22000        6.75780       -4.41070
N          2.02990        7.51480       -3.63630
C          2.41440        8.83190       -3.94910
C          1.49700        9.77290       -4.41150
C          1.91740       11.04670       -4.73040
C          3.25400       11.42030       -4.60130
C          3.69810       12.79070       -5.00320
C          4.15120       10.48840       -4.09750
C          3.74110        9.21030       -3.76520
C          2.48810        7.02180       -2.38520
C          3.33120        5.92120       -2.31940
C          3.75900        5.46490       -1.08640
C          3.35470        6.08340        0.08960
C          3.81870        5.57730        1.42020
C          2.53000        7.20050        0.00420
C          2.10340        7.67530       -1.22030
C          0.52870        5.62120       -3.94050
S          0.67340        4.61730       -2.54100
C         -0.59810        3.55480       -3.13350
C         -1.21030        4.06340       -4.27160
N         -2.38290        3.57420       -4.84160
C         -3.57440        3.67210       -4.10530
C         -4.69810        2.95120       -4.50540
C         -5.90310        3.12230       -3.85650
C         -6.02270        3.98840       -2.77510
C         -7.34900        4.23260       -2.12190
C         -4.88330        4.65040       -2.33890
C         -3.67610        4.50540       -2.99380
C         -2.42260        3.54790       -6.25000
C         -1.38550        2.92040       -6.93200
C         -1.36100        2.90890       -8.31270
C         -2.37150        3.51190       -9.04890
C         -2.34240        3.52310      -10.54630
C         -3.40950        4.12980       -8.35930
C         -3.43970        4.15680       -6.98020
C         -0.50050        5.18110       -4.76380
S         -0.62480        6.11620       -6.20880
C         -0.76740        2.31060       -2.46440
C          0.27480        1.59810       -1.87940
N          1.63460        1.82580       -2.04020
C          2.44530        1.44730       -0.94540
C          3.33850        0.38620       -1.05020
C          4.00130       -0.07510        0.06920
C          3.77410        0.51970        1.30420
S          4.48670       -0.08850        2.80140
C          4.71760       -1.85410        2.43450
C          2.95130        1.63980        1.39210
C          2.29330        2.10290        0.27290
C          2.23120        2.17710       -3.25000
C          1.57470        2.04970       -4.47400
C          2.14890        2.53120       -5.63310
C          3.39890        3.13450       -5.60290
S          4.15030        3.84490       -7.03370
C          2.70290        4.39150       -7.98570
C          4.10500        3.16310       -4.40570
C          3.52880        2.69380       -3.24610
C         -0.22510        0.51210       -1.12780
S          0.53530       -0.60540       -0.06340
C         -1.02070       -1.33180        0.29600
C         -2.04440       -0.83330       -0.50170
N         -3.24420       -1.50600       -0.62670
C         -4.41740       -0.97680       -1.16910
C         -4.80510        0.34310       -0.95130
C         -6.00760        0.80470       -1.43900
C         -6.84790       -0.03180       -2.16790
S         -8.38030        0.65070       -2.72490
C         -9.27520       -0.77110       -3.41050
C         -6.45300       -1.33830       -2.41720
C         -5.25240       -1.80320       -1.92100
C         -3.21630       -2.89550       -0.35390
C         -4.15500       -3.45550        0.50420
C         -4.06250       -4.78780        0.86000
C         -3.02640       -5.56970        0.36620
S         -2.77370       -7.23680        0.90240
C         -3.10390       -7.08520        2.68670
C         -2.14620       -5.03620       -0.56880
C         -2.24390       -3.71100       -0.92970
C         -1.59050        0.29140       -1.24550
S         -2.31900        1.50090       -2.25930
C         -1.03860       -2.29070        1.36290
C         -1.77410       -2.27640        2.54110
N         -2.68210       -1.29610        2.89990
C         -3.68160       -1.56060        3.84950
C         -4.02000       -0.59990        4.80110
C         -5.00470       -0.85870        5.73140
C         -5.67620       -2.07640        5.75260
C         -6.72040       -2.35480        6.78930
C         -5.33190       -3.02960        4.80470
C         -4.35180       -2.78030        3.86320
C         -2.47830        0.02950        2.47450
C         -3.56440        0.81660        2.10430
C         -3.36260        2.09170        1.61130
C         -2.08160        2.60930        1.45590
C         -1.87750        3.95890        0.83820
C         -1.00970        1.84340        1.89440
C         -1.19960        0.57630        2.40930
C         -1.37970       -3.34230        3.38850
S         -1.81290       -3.80630        4.99470
C         -0.57860       -5.07930        4.99470
C          0.18140       -5.06830        3.80620
N          1.33740       -5.75130        3.56660
C          2.20330       -6.17180        4.58460
C          2.45000       -5.37530        5.70260
C          3.27970       -5.82770        6.70620
C          3.88760       -7.07920        6.63150
C          4.73930       -7.57390        7.75760
C          3.67270       -7.84640        5.49470
C          2.84620       -7.40320        4.47910
C          1.72590       -5.99550        2.23030
C          3.01440       -5.68050        1.81280
C          3.39010       -5.92070        0.50560
C          2.50170       -6.48290       -0.40400
C          2.90700       -6.71760       -1.82660
C          1.22300       -6.80940        0.03300
C          0.83100       -6.56840        1.33410
C         -0.33000       -4.10840        2.90160
S          0.19360       -3.54560        1.35250
C         -0.47640       -5.85320        6.15190
C          0.10170       -7.10250        6.24390
C          0.17680       -8.05550        5.12900
O         -0.22900       -7.89280        3.99070
C          0.71130       -9.30750        5.70250
C          0.95600      -10.50130        5.03220
C          1.47350      -11.49490        5.82980
C          1.71890      -11.31710        7.19620
C          1.47490      -10.14370        7.87120
C          0.95620       -9.12070        7.07650
C          0.60020       -7.74640        7.42550
C          0.86010       -7.12630        8.62430
C          0.63010       -5.75840        8.86910
N          0.49960       -4.64680        9.12910
C          1.46710       -7.74980        9.72870
N          1.97670       -8.19470       10.65810
C          2.21750      -12.72980        7.37320
C          1.26020      -13.75650        8.02700
C         -0.14170      -13.27850        7.74140
C         -0.37090      -13.44710        6.44600
C          0.87220      -14.04190        5.83230
C          1.36940      -14.90050        7.00620
C          1.94740      -12.92740        5.84810
H          0.75690        8.15760       -7.53030
H          6.55940        6.94210       -5.59350
H          5.57310       10.94360       -8.38130
H          0.45730        9.50480       -4.52400
H          1.19760       11.76540       -5.09350
H          3.05170       13.54760       -4.56230
H          4.72290       12.97610       -4.69200
H          3.64310       12.90310       -6.08670
H          5.18890       10.75970       -3.96940
H          4.44850        8.49310       -3.37680
H          3.64600        5.44890       -3.23650
H          4.42290        4.61530       -1.03250
H          3.04320        5.70100        2.17300
H          4.09330        4.52660        1.36210
H          4.69370        6.13930        1.74810
H          2.21670        7.70240        0.90800
H          1.46390        8.54380       -1.28160
H         -4.62260        2.27460       -5.34340
H         -6.77070        2.57610       -4.19440
H         -7.23270        4.41810       -1.05580
H         -8.01680        3.38700       -2.26750
H         -7.81940        5.11260       -2.56250
H         -4.94510        5.31630       -1.48930
H         -2.81640        5.06630       -2.65680
H         -0.60250        2.44290       -6.36410
H         -0.54690        2.41720       -8.82670
H         -3.32680        3.29980      -10.95270
H         -2.05000        4.51000      -10.90590
H         -1.63040        2.79590      -10.92900
H         -4.20130        4.61100       -8.91480
H         -4.24360        4.66000       -6.46440
H          3.48670       -0.09280       -2.00650
H          4.67380       -0.91250       -0.02420
H          5.60220       -2.00420        1.82210
H          3.82830       -2.23740        1.94230
H          4.85330       -2.34030        3.39580
H          2.81920        2.12070        2.34960
H          1.64150        2.96250        0.32480
H          0.61070        1.56500       -4.51750
H          1.62060        2.42840       -6.56780
H          2.25620        3.55780       -8.52010
H          1.98830        4.85160       -7.31060
H          3.06840        5.12670       -8.69620
H          5.09910        3.58190       -4.39140
H          4.07300        2.74510       -2.31640
H         -4.17690        0.99580       -0.37080
H         -6.30960        1.82000       -1.24520
H         -9.36440       -1.54850       -2.65740
H         -8.77180       -1.13760       -4.30060
H        -10.25960       -0.39670       -3.67390
H         -7.06670       -2.00890       -2.99700
H         -4.95920       -2.82330       -2.12050
H         -4.94580       -2.83630        0.90140
H         -4.79090       -5.21560        1.53260
H         -4.12680       -7.37550        2.90920
H         -2.40390       -7.74850        3.18660
H         -2.91480       -6.06200        2.99440
H         -1.37280       -5.66050       -0.98610
H         -1.54120       -3.28910       -1.63290
H         -3.50100        0.34710        4.81120
H         -5.25050       -0.10380        6.46420
H         -6.24520       -2.66460        7.72060
H         -7.38650       -3.15190        6.46790
H         -7.30900       -1.46340        6.99550
H         -5.83870       -3.98410        4.79880
H         -4.10380       -3.52950        3.12880
H         -4.56400        0.41560        2.18660
H         -4.21460        2.68960        1.31920
H         -0.84930        4.08540        0.50580
H         -2.53880        4.08660       -0.01740
H         -2.10340        4.74590        1.55820
H         -0.00670        2.23680        1.83180
H         -0.35180        0.00330        2.75480
H          1.98670       -4.40340        5.78480
H          3.45360       -5.20260        7.57000
H          5.47920       -6.82560        8.03630
H          4.12490       -7.77150        8.63640
H          5.25130       -8.49290        7.48440
H          4.14350       -8.81470        5.40640
H          2.68000       -8.01420        3.60460
H          3.71340       -5.24790        2.51450
H          4.39130       -5.66810        0.18670
H          3.97810       -6.88860       -1.90440
H          2.38050       -7.57270       -2.24370
H          2.66040       -5.84350       -2.43050
H          0.52710       -7.27500       -0.64970
H         -0.15120       -6.84980        1.67680
H         -0.92110       -5.42280        7.04120
H          0.75250      -10.59860        3.97690
H          1.65930      -10.02320        8.92590
H          3.24120      -12.83470        7.72780
H          1.48650      -13.98740        9.06450
H         -0.78160      -12.82660        8.47650
H         -1.24050      -13.16360        5.88240
H          0.74520      -14.53360        4.87120
H          0.70330      -15.73200        7.23200
H          2.38600      -15.26880        6.87450
H          2.79560      -13.16040        5.20680
