222

C          0.72030       -0.85080        8.66650
C          1.29760        0.34230        9.07630
C          1.62540        1.44250        8.16720
O          1.42300        1.51610        6.96770
C          2.36670        2.42680        8.99290
C          2.90250        3.63820        8.61670
C          3.54150        4.40790        9.58410
Cl         4.20760        5.93480        9.15270
C          3.63470        3.94000       10.89390
Br         4.50360        4.98780       12.21000
C          3.10060        2.71190       11.27070
C          2.45870        1.95180       10.31140
C          1.77990        0.65800       10.38700
C          1.51470       -0.04160       11.54050
C          0.73850       -1.21550       11.58770
N          0.09410       -2.15950       11.70420
C          1.91560        0.37620       12.82200
N          2.20330        0.68210       13.89150
C         -0.06490       -1.01910        7.53580
C         -0.79260       -0.07930        6.76020
N         -1.18920        1.14860        7.16810
C         -1.17640        1.56460        8.51310
C         -1.61540        0.73640        9.54390
C         -1.55750        1.17210       10.85080
C         -1.06470        2.43610       11.17060
C         -0.95370        2.86610       12.59850
C         -0.67760        3.27220       10.13210
C         -0.73740        2.85030        8.81670
C         -1.77760        2.05670        6.25330
C         -1.09810        2.48220        5.11770
C         -1.72070        3.34720        4.23750
C         -3.01090        3.80910        4.47400
C         -3.69340        4.70500        3.49130
C         -3.66020        3.40440        5.63400
C         -3.05420        2.53680        6.52010
C         -1.18360       -0.67020        5.53610
S         -1.90310       -0.07070        4.08230
C         -1.81760       -1.66810        3.34050
C         -1.38780       -2.64200        4.23920
N         -1.43710       -4.01750        4.08730
C         -0.37580       -4.71780        4.71360
C          0.92480       -4.47140        4.28970
C          1.98730       -5.11220        4.89850
C          1.78060       -6.00690        5.93990
C          2.92850       -6.68840        6.61770
C          0.47590       -6.23920        6.36380
C         -0.59300       -5.60200        5.76730
C         -2.61200       -4.68580        3.72160
C         -2.61760       -6.07860        3.62760
C         -3.76870       -6.75640        3.29050
C         -4.95210       -6.08320        3.01100
C         -6.18160       -6.84300        2.62110
C         -4.94390       -4.70040        3.10770
C         -3.80150       -4.00880        3.46470
C         -0.94970       -2.03630        5.44580
S         -0.17510       -2.65400        6.85860
C         -1.97620       -1.68130        1.92510
C         -1.36740       -2.47840        0.97040
N         -0.59350       -3.63890        1.19050
C          0.74290       -3.44110        0.77140
C          1.35870       -4.23870       -0.18760
C          2.63410       -3.95120       -0.63270
C          3.31440       -2.84750       -0.13810
S          4.92450       -2.36080       -0.67720
C          5.19170       -3.35560       -2.17270
C          2.71000       -2.05380        0.83440
C          1.44070       -2.34500        1.28220
C         -1.20950       -4.88060        0.98230
C         -0.52730       -6.05260        1.29840
C         -1.10520       -7.28830        1.08210
C         -2.38910       -7.37480        0.56360
S         -3.24590       -8.89090        0.26370
C         -2.08210      -10.16960        0.81630
C         -3.08490       -6.20620        0.26930
C         -2.50420       -4.97540        0.47290
C         -1.44800       -1.89310       -0.31050
S         -0.75060       -2.30460       -1.83280
C         -1.31310       -0.79150       -2.52360
C         -2.10070       -0.06290       -1.63140
N         -2.72740        1.15830       -1.87620
C         -3.61430        1.29490       -2.94630
C         -4.23350        0.16840       -3.49350
C         -5.02950        0.28150       -4.61080
C         -5.24290        1.52110       -5.21050
S         -6.24280        1.55130       -6.66340
C         -5.96560        3.21720       -7.33030
C         -4.67340        2.65200       -4.64300
C         -3.86710        2.53680       -3.52930
C         -2.34200        2.24080       -1.07380
C         -1.01220        2.35890       -0.67690
C         -0.58380        3.44660        0.05820
C         -1.48020        4.44910        0.39710
S         -1.03100        5.92870        1.25580
C          0.74360        5.73850        1.57870
C         -2.82100        4.31750        0.03760
C         -3.25250        3.22030       -0.67380
C         -2.13250       -0.68900       -0.36670
S         -2.74160       -0.26510        1.19750
C         -0.76330       -0.39870       -3.77290
C         -0.97790        0.73790       -4.50420
C         -0.12060        0.87530       -5.61440
C         -0.11990        1.92370       -6.55930
C         -0.98710        3.07390       -6.41780
C         -1.72610        3.71930       -7.36820
C         -2.43730        4.82780       -6.87540
C         -2.22480        5.04540       -5.54290
S         -3.01000        6.26520       -4.57320
C         -1.95470        6.27430       -3.07320
C         -2.48930        7.29350       -2.08830
S         -1.13840        3.87040       -4.87170
C          0.78090        1.80930       -7.60740
C          1.70910        0.73540       -7.72210
C          1.71490       -0.31600       -6.76450
C          2.64460       -1.41370       -6.83460
C          3.23550       -2.09760       -5.79840
C          4.14060       -3.08160       -6.21220
C          4.24040       -3.17180       -7.57740
S          5.31210       -4.23450       -8.44410
C          5.30070       -3.51740      -10.12870
C          4.16190       -4.04750      -10.97750
S          3.18320       -2.05380       -8.36360
C          0.78280       -0.20910       -5.73880
S          0.52800       -1.36850       -4.46070
C          2.59150        0.92340       -8.79380
C          2.35680        2.06240       -9.53330
S          0.99620        2.97550       -8.87610
C          3.00580        2.59460      -10.65960
C          4.04750        2.12510      -11.42520
C          4.77190        0.84320      -11.33350
O          4.68520       -0.04900      -10.51080
C          5.68950        0.81700      -12.49230
C          6.55670       -0.18880      -12.86450
C          7.33230       -0.00450      -14.00270
Cl         8.42400       -1.23530      -14.50040
C          7.21760        1.18020      -14.73400
Br         8.26960        1.43050      -16.28600
C          6.34490        2.19350      -14.35480
C          5.57170        2.01080      -13.21990
C          4.58210        2.86140      -12.56080
C          4.27670        4.13900      -12.95400
C          4.85730        4.77720      -14.07160
N          5.28840        5.35550      -14.96440
C          3.38030        5.02970      -12.32430
N          2.68600        5.83460      -11.88870
H          0.93820       -1.74930        9.23070
H          2.82380        3.98560        7.59880
H          3.20180        2.38220       12.29220
H         -1.99830       -0.24810        9.32110
H         -1.89420        0.51750       11.64120
H         -1.87360        2.64880       13.13780
H         -0.74380        3.92990       12.67100
H         -0.14760        2.32380       13.09390
H         -0.31430        4.26540       10.35200
H         -0.43170        3.50820        8.01700
H         -0.08720        2.14060        4.95490
H         -1.20270        3.66730        3.34640
H         -3.01610        5.47700        3.13360
H         -4.01490        4.11950        2.63000
H         -4.56720        5.17600        3.93360
H         -4.65680        3.76450        5.84220
H         -3.56770        2.21730        7.41530
H          1.09830       -3.77580        3.48300
H          2.99200       -4.91030        4.55590
H          3.09680       -6.24420        7.59880
H          2.71740       -7.74580        6.76460
H          3.84120       -6.58770        6.03610
H          0.29750       -6.91930        7.18380
H         -1.59800       -5.77450        6.12250
H         -1.71170       -6.63330        3.81180
H         -3.74960       -7.83490        3.23380
H         -5.95380       -7.54230        1.81790
H         -6.96810       -6.16950        2.29050
H         -6.55490       -7.41990        3.46730
H         -5.84860       -4.14420        2.90710
H         -3.85130       -2.93470        3.55170
H          0.82760       -5.07650       -0.61260
H          3.07470       -4.58790       -1.38250
H          5.34100       -4.39930       -1.91050
H          6.09320       -2.96000       -2.63030
H          4.34870       -3.23440       -2.84650
H          3.24400       -1.20100        1.22460
H          0.97000       -1.70880        2.01840
H          0.46400       -5.99410        1.72300
H         -0.54280       -8.17310        1.33410
H         -1.17840      -10.13610        0.21480
H         -1.85930      -10.03830        1.87140
H         -2.59180      -11.11550        0.66180
H         -4.08540       -6.27450       -0.12860
H         -3.06150       -4.08220        0.23580
H         -4.07650       -0.80070       -3.04500
H         -5.49340       -0.59450       -5.03690
H         -4.89890        3.39660       -7.43000
H         -6.43770        3.22300       -8.30780
H         -6.43260        3.96250       -6.69300
H         -4.83440        3.63200       -5.06190
H         -3.41050        3.42530       -3.12400
H         -0.29920        1.60120       -0.96670
H          0.45550        3.50580        0.33760
H          0.91970        4.86580        2.20110
H          1.28800        5.67320        0.64100
H          1.03820        6.63610        2.11380
H         -3.51800        5.09130        0.32030
H         -4.29600        3.11880       -0.92960
H         -1.74070        1.45100       -4.27020
H         -1.77970        3.39020       -8.39050
H         -3.07610        5.45210       -7.47290
H         -1.97000        5.26960       -2.64750
H         -0.94110        6.51660       -3.39320
H         -1.88820        7.28180       -1.18230
H         -2.45990        8.29190       -2.51800
H         -3.51840        7.06130       -1.82450
H          3.06910       -1.85000       -4.76570
H          4.72260       -3.69240       -5.54660
H          6.26560       -3.80550      -10.54650
H          5.25390       -2.43300      -10.02470
H          4.21630       -3.60990      -11.97210
H          3.20060       -3.78610      -10.54180
H          4.22250       -5.12990      -11.06720
H          3.40820        0.27190       -9.03460
H          2.58650        3.54270      -10.97390
H          6.63010       -1.09530      -12.28460
H          6.29030        3.08940      -14.95130
