102

C          4.57200        3.65280        1.01580
C          5.43010        4.56480        1.56960
C          5.69570        4.81310        3.00320
O          5.33560        4.17600        3.96900
C          6.50350        6.05340        3.04330
C          6.95970        6.73760        4.15080
C          7.69460        7.90110        3.95370
Cl         8.27660        8.78370        5.30760
C          7.95190        8.34710        2.65430
Br         8.94060        9.93670        2.38580
C          7.49560        7.65470        1.53970
C          6.76420        6.49430        1.73560
C          6.15080        5.56120        0.79410
C          6.29410        5.61090       -0.56790
C          5.76780        4.68720       -1.49690
N          5.39420        3.98600       -2.32670
C          7.03370        6.60440       -1.24570
N          7.61600        7.38110       -1.85780
C          3.79610        2.62970        1.59160
C          3.79600        2.01520        2.83200
C          2.84190        1.00150        2.95920
C          2.77330        0.14170        4.14190
C          2.87500        0.69290        5.41630
C          2.84060       -0.12290        6.53120
C          2.71710       -1.49480        6.38830
C          2.63200       -2.05130        5.12270
C          2.66060       -1.24030        4.00480
C          2.07180        0.84750        1.80440
S          2.61400        1.88140        0.53570
C          0.91680        0.02780        1.55830
C         -0.01760       -0.35470        2.50910
F          0.08540        0.06350        3.77920
C         -1.14720       -1.12140        2.19510
F         -1.96870       -1.40600        3.21880
C         -1.44960       -1.53240        0.90290
C         -0.52140       -1.12080       -0.09910
N         -0.76330       -1.44190       -1.37420
C          0.03090       -1.03660       -2.33200
C         -0.32080       -1.48160       -3.71420
C          0.37620       -2.80860       -4.03000
C          1.18760       -0.26520       -2.01260
N          1.44710        0.03400       -0.76440
C          0.62430       -0.35890        0.21640
C          2.13420        0.28120       -3.03310
C          1.68020        1.67970       -3.46220
C         -2.62630       -2.25940        0.51840
C         -3.58270       -2.82740        1.34660
C         -4.63370       -3.41850        0.65470
C         -5.76930       -4.05200        1.32520
C         -5.54320       -4.98610        2.33410
C         -6.60660       -5.60240        2.96500
C         -7.90700       -5.28590        2.60820
C         -8.14120       -4.34070        1.62400
C         -7.08110       -3.72580        0.98560
C         -4.48300       -3.31780       -0.74250
S         -3.01560       -2.46310       -1.15490
C         -5.36940       -3.92930       -1.64080
C         -5.41870       -3.89680       -3.01230
C         -4.52570       -3.14560       -3.90470
O         -3.55490       -2.47380       -3.60580
C         -5.03530       -3.36550       -5.27020
C         -4.55860       -2.85990       -6.46460
C         -5.21010       -3.20490       -7.63740
C         -6.31770       -4.04410       -7.58990
Cl        -7.11700       -4.46080       -9.05760
C         -6.80610       -4.56090       -6.39310
C         -6.15390       -4.21460       -5.22200
C         -6.41010       -4.57570       -3.82540
C         -7.41110       -5.41030       -3.40280
C         -7.68240       -5.78860       -2.06990
N         -7.98610       -6.16040       -1.02610
C         -8.33920       -6.03310       -4.26580
N         -9.12670       -6.57160       -4.90400
H          4.41330        3.74250       -0.05260
H          6.74770        6.37710        5.14490
H          7.71470        8.03720        0.55600
H          4.48490        2.27460        3.61390
H          2.96040        1.76330        5.52700
H          2.90910        0.31330        7.51660
H          2.68890       -2.13050        7.26060
H          2.54420       -3.12170        5.00640
H          2.60830       -1.67700        3.01660
H         -1.39920       -1.63770       -3.74920
H         -0.03500       -0.72630       -4.44580
H          1.45860       -2.71260       -3.96710
H          0.11410       -3.13410       -5.03300
H          0.05430       -3.57010       -3.32450
H          2.19230       -0.37500       -3.90030
H          3.12110        0.36020       -2.57640
H          2.38400        2.09230       -4.17930
H          1.64270        2.33700       -2.59730
H          0.69260        1.64690       -3.91750
H         -3.54130       -2.80560        2.41990
H         -4.52830       -5.24290        2.60050
H         -6.42010       -6.33550        3.73590
H         -8.73640       -5.77250        3.09830
H         -9.15290       -4.08370        1.34970
H         -7.26600       -2.96860        0.23650
H         -6.13800       -4.51490       -1.15010
H         -3.69780       -2.20930       -6.47260
H         -4.86850       -2.82840       -8.58850
H         -7.66790       -5.20690       -6.40410
