
  xtb     02032219053D
 energy: -406.127258467535 gnorm: 0.000609149336 xtb: 6.4.1 (unknown)
232256  0     0  0            999 V2000
    2.7153   -9.4269    9.5601 C   0  0  0  0  0  0  0  0  0  0  0  0
    3.4027   -9.2565   10.7236 C   0  0  0  0  0  0  0  0  0  0  0  0
    3.3619  -10.3030   11.7762 C   0  0  0  0  0  0  0  0  0  0  0  0
    2.9904  -11.4470   11.6602 O   0  0  0  0  0  0  0  0  0  0  0  0
    3.8145   -9.6162   13.0100 C   0  0  0  0  0  0  0  0  0  0  0  0
    3.8553  -10.0965   14.3025 C   0  0  0  0  0  0  0  0  0  0  0  0
    4.2957   -9.2472   15.3121 C   0  0  0  0  0  0  0  0  0  0  0  0
    4.3581   -9.8127   16.9339 Cl  0  0  0  0  0  0  0  0  0  0  0  0
    4.6825   -7.9401   15.0041 C   0  0  0  0  0  0  0  0  0  0  0  0
    5.2600   -6.7819   16.3818 Br  0  0  0  0  0  0  0  0  0  0  0  0
    4.6545   -7.4584   13.7014 C   0  0  0  0  0  0  0  0  0  0  0  0
    4.2183   -8.3048   12.6971 C   0  0  0  0  0  0  0  0  0  0  0  0
    4.1212   -8.1164   11.2530 C   0  0  0  0  0  0  0  0  0  0  0  0
    4.8202   -7.1907   10.5246 C   0  0  0  0  0  0  0  0  0  0  0  0
    4.9852   -7.2732    9.1242 C   0  0  0  0  0  0  0  0  0  0  0  0
    5.2138   -7.3470    8.0018 N   0  0  0  0  0  0  0  0  0  0  0  0
    5.5203   -6.1067   11.0876 C   0  0  0  0  0  0  0  0  0  0  0  0
    6.0725   -5.1825   11.4866 N   0  0  0  0  0  0  0  0  0  0  0  0
    2.2866   -8.4392    8.6408 C   0  0  0  0  0  0  0  0  0  0  0  0
    1.8855   -8.6624    7.3456 C   0  0  0  0  0  0  0  0  0  0  0  0
    1.5227   -7.4910    6.6497 C   0  0  0  0  0  0  0  0  0  0  0  0
    1.1071   -7.3689    5.3086 C   0  0  0  0  0  0  0  0  0  0  0  0
    0.9005   -8.5477    4.4620 C   0  0  0  0  0  0  0  0  0  0  0  0
    0.1089   -9.6196    4.9354 C   0  0  0  0  0  0  0  0  0  0  0  0
   -0.1036  -10.7241    4.1655 C   0  0  0  0  0  0  0  0  0  0  0  0
    0.4661  -10.8327    2.8766 C   0  0  0  0  0  0  0  0  0  0  0  0
    0.2745  -11.9606    2.0666 C   0  0  0  0  0  0  0  0  0  0  0  0
    0.8398  -12.0425    0.8105 C   0  0  0  0  0  0  0  0  0  0  0  0
    0.5925  -13.1803    0.1135 O   0  0  0  0  0  0  0  0  0  0  0  0
    1.1486  -13.3447   -1.1766 C   0  0  0  0  0  0  0  0  0  0  0  0
    0.7141  -14.7074   -1.6929 C   0  0  0  0  0  0  0  0  0  0  0  0
    1.6212  -10.9700    0.3318 C   0  0  0  0  0  0  0  0  0  0  0  0
    1.8202   -9.8620    1.1070 C   0  0  0  0  0  0  0  0  0  0  0  0
    1.2568   -9.7558    2.3934 C   0  0  0  0  0  0  0  0  0  0  0  0
    1.4542   -8.6252    3.2061 C   0  0  0  0  0  0  0  0  0  0  0  0
    0.8968   -6.0801    4.8458 C   0  0  0  0  0  0  0  0  0  0  0  0
    1.0549   -4.9232    5.6525 C   0  0  0  0  0  0  0  0  0  0  0  0
    1.4294   -5.0470    7.0032 C   0  0  0  0  0  0  0  0  0  0  0  0
    1.5881   -3.8831    7.8843 C   0  0  0  0  0  0  0  0  0  0  0  0
    2.7319   -3.7264    8.6312 C   0  0  0  0  0  0  0  0  0  0  0  0
    2.8867   -2.6364    9.5061 C   0  0  0  0  0  0  0  0  0  0  0  0
    4.0381   -2.4691   10.3003 C   0  0  0  0  0  0  0  0  0  0  0  0
    4.1634   -1.4093   11.1541 C   0  0  0  0  0  0  0  0  0  0  0  0
    3.1362   -0.4472   11.2517 C   0  0  0  0  0  0  0  0  0  0  0  0
    3.1781    0.6366   12.0676 O   0  0  0  0  0  0  0  0  0  0  0  0
    4.3008    0.8353   12.9060 C   0  0  0  0  0  0  0  0  0  0  0  0
    4.0530    2.1012   13.7114 C   0  0  0  0  0  0  0  0  0  0  0  0
    2.0001   -0.5881   10.4813 C   0  0  0  0  0  0  0  0  0  0  0  0
    1.8470   -1.6730    9.6064 C   0  0  0  0  0  0  0  0  0  0  0  0
    0.6848   -1.8514    8.8223 C   0  0  0  0  0  0  0  0  0  0  0  0
    0.5560   -2.9243    7.9903 C   0  0  0  0  0  0  0  0  0  0  0  0
    1.6569   -6.3324    7.4590 C   0  0  0  0  0  0  0  0  0  0  0  0
    2.1402   -6.7438    9.0804 S   0  0  0  0  0  0  0  0  0  0  0  0
    0.8213   -3.7340    4.9246 C   0  0  0  0  0  0  0  0  0  0  0  0
    0.4605   -3.9518    3.6236 C   0  0  0  0  0  0  0  0  0  0  0  0
    0.3987   -5.6545    3.2290 S   0  0  0  0  0  0  0  0  0  0  0  0
    0.1819   -2.9705    2.6257 C   0  0  0  0  0  0  0  0  0  0  0  0
    0.2435   -1.6120    2.7536 C   0  0  0  0  0  0  0  0  0  0  0  0
   -0.0563   -0.9138    1.5597 C   0  0  0  0  0  0  0  0  0  0  0  0
   -0.0451    0.4814    1.3495 C   0  0  0  0  0  0  0  0  0  0  0  0
    0.3622    1.4037    2.3869 C   0  0  0  0  0  0  0  0  0  0  0  0
    1.4003    1.2891    3.2760 C   0  0  0  0  0  0  0  0  0  0  0  0
    1.5277    2.3975    4.1232 C   0  0  0  0  0  0  0  0  0  0  0  0
    0.6022    3.3878    3.8897 C   0  0  0  0  0  0  0  0  0  0  0  0
    0.4523    4.5889    4.6594 C   0  0  0  0  0  0  0  0  0  0  0  0
   -0.2683    5.6882    4.3718 C   0  0  0  0  0  0  0  0  0  0  0  0
   -0.9367    5.9698    3.1281 C   0  0  0  0  0  0  0  0  0  0  0  0
   -0.4868    5.8022    1.8466 C   0  0  0  0  0  0  0  0  0  0  0  0
   -1.4115    6.1923    0.8666 C   0  0  0  0  0  0  0  0  0  0  0  0
   -2.5777    6.6643    1.3962 C   0  0  0  0  0  0  0  0  0  0  0  0
   -4.0282    7.1805    0.5711 S   0  0  0  0  0  0  0  0  0  0  0  0
   -3.9997    6.1060   -0.9101 C   0  0  0  0  0  0  0  0  0  0  0  0
   -4.0252    4.6303   -0.5670 C   0  0  0  0  0  0  0  0  0  0  0  0
   -2.5382    6.6669    3.1288 S   0  0  0  0  0  0  0  0  0  0  0  0
   -0.4687    2.9177    2.6029 S   0  0  0  0  0  0  0  0  0  0  0  0
   -0.4144    0.9139    0.0800 C   0  0  0  0  0  0  0  0  0  0  0  0
   -0.7457    0.0329   -0.9792 C   0  0  0  0  0  0  0  0  0  0  0  0
   -0.7555   -1.3637   -0.7718 C   0  0  0  0  0  0  0  0  0  0  0  0
   -1.1376   -2.2994   -1.8059 C   0  0  0  0  0  0  0  0  0  0  0  0
   -1.8838   -3.4446   -1.6636 C   0  0  0  0  0  0  0  0  0  0  0  0
   -2.1280   -4.1023   -2.8710 C   0  0  0  0  0  0  0  0  0  0  0  0
   -1.5734   -3.4844   -3.9740 C   0  0  0  0  0  0  0  0  0  0  0  0
   -1.6651   -3.9946   -5.3032 C   0  0  0  0  0  0  0  0  0  0  0  0
   -1.2605   -3.5191   -6.5028 C   0  0  0  0  0  0  0  0  0  0  0  0
   -0.6675   -2.2782   -6.8913 C   0  0  0  0  0  0  0  0  0  0  0  0
   -0.7036   -1.0046   -6.3823 C   0  0  0  0  0  0  0  0  0  0  0  0
    0.0213   -0.0670   -7.1289 C   0  0  0  0  0  0  0  0  0  0  0  0
    0.6143   -0.6063   -8.2384 C   0  0  0  0  0  0  0  0  0  0  0  0
    1.6315    0.2495   -9.3585 S   0  0  0  0  0  0  0  0  0  0  0  0
    1.7870   -0.9914  -10.7007 C   0  0  0  0  0  0  0  0  0  0  0  0
    2.5783   -0.4029  -11.8509 C   0  0  0  0  0  0  0  0  0  0  0  0
    0.2700   -2.2979   -8.3751 S   0  0  0  0  0  0  0  0  0  0  0  0
   -0.7026   -2.0671   -3.4759 S   0  0  0  0  0  0  0  0  0  0  0  0
   -0.4070   -1.7934    0.5063 C   0  0  0  0  0  0  0  0  0  0  0  0
   -0.2898   -3.4559    1.0132 S   0  0  0  0  0  0  0  0  0  0  0  0
   -1.0438    0.7390   -2.1673 C   0  0  0  0  0  0  0  0  0  0  0  0
   -0.9250    2.0918   -2.0528 C   0  0  0  0  0  0  0  0  0  0  0  0
   -0.4681    2.5797   -0.4358 S   0  0  0  0  0  0  0  0  0  0  0  0
   -1.1222    3.0513   -3.0856 C   0  0  0  0  0  0  0  0  0  0  0  0
   -1.1417    4.4103   -2.9759 C   0  0  0  0  0  0  0  0  0  0  0  0
   -1.3704    5.0768   -4.2026 C   0  0  0  0  0  0  0  0  0  0  0  0
   -1.4610    6.4619   -4.4218 C   0  0  0  0  0  0  0  0  0  0  0  0
   -1.2818    7.3999   -3.3051 C   0  0  0  0  0  0  0  0  0  0  0  0
   -0.1080    7.3296   -2.5207 C   0  0  0  0  0  0  0  0  0  0  0  0
    0.0372    8.1117   -1.4130 C   0  0  0  0  0  0  0  0  0  0  0  0
   -0.9927    8.9896   -1.0048 C   0  0  0  0  0  0  0  0  0  0  0  0
   -0.9175    9.7240    0.1858 C   0  0  0  0  0  0  0  0  0  0  0  0
   -1.9487   10.5494    0.5843 C   0  0  0  0  0  0  0  0  0  0  0  0
   -1.7787   11.1713    1.7794 O   0  0  0  0  0  0  0  0  0  0  0  0
   -2.7520   12.0779    2.2581 C   0  0  0  0  0  0  0  0  0  0  0  0
   -2.6650   13.4439    1.5828 C   0  0  0  0  0  0  0  0  0  0  0  0
   -3.0870   10.6756   -0.2391 C   0  0  0  0  0  0  0  0  0  0  0  0
   -3.1774    9.9718   -1.4064 C   0  0  0  0  0  0  0  0  0  0  0  0
   -2.1509    9.1014   -1.8193 C   0  0  0  0  0  0  0  0  0  0  0  0
   -2.2624    8.3034   -2.9736 C   0  0  0  0  0  0  0  0  0  0  0  0
   -1.7413    6.8659   -5.7147 C   0  0  0  0  0  0  0  0  0  0  0  0
   -1.8650    5.9576   -6.8045 C   0  0  0  0  0  0  0  0  0  0  0  0
   -1.7396    4.5669   -6.5897 C   0  0  0  0  0  0  0  0  0  0  0  0
   -1.7531    3.5952   -7.6868 C   0  0  0  0  0  0  0  0  0  0  0  0
   -2.4578    2.4179   -7.5798 C   0  0  0  0  0  0  0  0  0  0  0  0
   -2.3665    1.4218   -8.5674 C   0  0  0  0  0  0  0  0  0  0  0  0
   -3.0062    0.1741   -8.4350 C   0  0  0  0  0  0  0  0  0  0  0  0
   -2.8325   -0.8170   -9.3591 C   0  0  0  0  0  0  0  0  0  0  0  0
   -2.0227   -0.5969  -10.4922 C   0  0  0  0  0  0  0  0  0  0  0  0
   -1.7361   -1.5342  -11.4399 O   0  0  0  0  0  0  0  0  0  0  0  0
   -2.3560   -2.8035  -11.3958 C   0  0  0  0  0  0  0  0  0  0  0  0
   -3.8006   -2.7709  -11.8854 C   0  0  0  0  0  0  0  0  0  0  0  0
   -1.4248    0.6334  -10.6671 C   0  0  0  0  0  0  0  0  0  0  0  0
   -1.5605    1.6512   -9.7128 C   0  0  0  0  0  0  0  0  0  0  0  0
   -0.8825    2.8852   -9.8240 C   0  0  0  0  0  0  0  0  0  0  0  0
   -0.9645    3.8232   -8.8389 C   0  0  0  0  0  0  0  0  0  0  0  0
   -1.5328    4.1671   -5.2796 C   0  0  0  0  0  0  0  0  0  0  0  0
   -1.3782    2.5148   -4.7322 S   0  0  0  0  0  0  0  0  0  0  0  0
   -2.1325    6.6179   -8.0171 C   0  0  0  0  0  0  0  0  0  0  0  0
   -2.1896    7.9890   -7.9021 C   0  0  0  0  0  0  0  0  0  0  0  0
   -1.9431    8.5106   -6.2335 S   0  0  0  0  0  0  0  0  0  0  0  0
   -2.4498    9.0056   -8.8426 C   0  0  0  0  0  0  0  0  0  0  0  0
   -2.4613    8.9763  -10.2122 C   0  0  0  0  0  0  0  0  0  0  0  0
   -1.9791    7.8988  -11.1032 C   0  0  0  0  0  0  0  0  0  0  0  0
   -1.6489    6.7651  -10.8284 O   0  0  0  0  0  0  0  0  0  0  0  0
   -1.9306    8.5005  -12.4553 C   0  0  0  0  0  0  0  0  0  0  0  0
   -1.4917    7.9229  -13.6285 C   0  0  0  0  0  0  0  0  0  0  0  0
   -1.5226    8.6833  -14.7916 C   0  0  0  0  0  0  0  0  0  0  0  0
   -0.9841    7.9997  -16.2732 Cl  0  0  0  0  0  0  0  0  0  0  0  0
   -1.9894    9.9997  -14.7481 C   0  0  0  0  0  0  0  0  0  0  0  0
   -2.0200   11.0377  -16.3288 Br  0  0  0  0  0  0  0  0  0  0  0  0
   -2.4351   10.5790  -13.5664 C   0  0  0  0  0  0  0  0  0  0  0  0
   -2.4070    9.8204  -12.4076 C   0  0  0  0  0  0  0  0  0  0  0  0
   -2.8014   10.1252  -11.0350 C   0  0  0  0  0  0  0  0  0  0  0  0
   -3.4490   11.2643  -10.6354 C   0  0  0  0  0  0  0  0  0  0  0  0
   -3.9384   11.5227   -9.3363 C   0  0  0  0  0  0  0  0  0  0  0  0
   -4.3960   11.8029   -8.3211 N   0  0  0  0  0  0  0  0  0  0  0  0
   -3.7605   12.3358  -11.4997 C   0  0  0  0  0  0  0  0  0  0  0  0
   -4.0323   13.2407  -12.1511 N   0  0  0  0  0  0  0  0  0  0  0  0
    2.3904  -10.4414    9.3516 H   0  0  0  0  0  0  0  0  0  0  0  0
    3.5530  -11.1078   14.5238 H   0  0  0  0  0  0  0  0  0  0  0  0
    4.9573   -6.4429   13.5003 H   0  0  0  0  0  0  0  0  0  0  0  0
    1.9123   -9.6379    6.8929 H   0  0  0  0  0  0  0  0  0  0  0  0
   -0.3507   -9.5360    5.9098 H   0  0  0  0  0  0  0  0  0  0  0  0
   -0.7167  -11.5352    4.5306 H   0  0  0  0  0  0  0  0  0  0  0  0
   -0.3225  -12.7860    2.4226 H   0  0  0  0  0  0  0  0  0  0  0  0
    2.2452  -13.2922   -1.1259 H   0  0  0  0  0  0  0  0  0  0  0  0
    0.7876  -12.5532   -1.8483 H   0  0  0  0  0  0  0  0  0  0  0  0
    1.1210  -14.8736   -2.6862 H   0  0  0  0  0  0  0  0  0  0  0  0
   -0.3703  -14.7585   -1.7371 H   0  0  0  0  0  0  0  0  0  0  0  0
    1.0700  -15.4873   -1.0254 H   0  0  0  0  0  0  0  0  0  0  0  0
    2.0673  -11.0171   -0.6494 H   0  0  0  0  0  0  0  0  0  0  0  0
    2.4188   -9.0438    0.7333 H   0  0  0  0  0  0  0  0  0  0  0  0
    2.0792   -7.8251    2.8367 H   0  0  0  0  0  0  0  0  0  0  0  0
    3.5457   -4.4318    8.5359 H   0  0  0  0  0  0  0  0  0  0  0  0
    4.8290   -3.2025   10.2382 H   0  0  0  0  0  0  0  0  0  0  0  0
    5.0557   -1.3190   11.7526 H   0  0  0  0  0  0  0  0  0  0  0  0
    4.4263   -0.0229   13.5802 H   0  0  0  0  0  0  0  0  0  0  0  0
    5.2109    0.9448   12.2999 H   0  0  0  0  0  0  0  0  0  0  0  0
    4.8956    2.2904   14.3703 H   0  0  0  0  0  0  0  0  0  0  0  0
    3.9245    2.9478   13.0425 H   0  0  0  0  0  0  0  0  0  0  0  0
    3.1510    1.9911   14.3071 H   0  0  0  0  0  0  0  0  0  0  0  0
    1.2189    0.1517   10.5658 H   0  0  0  0  0  0  0  0  0  0  0  0
   -0.1101   -1.1237    8.9018 H   0  0  0  0  0  0  0  0  0  0  0  0
   -0.3501   -3.0686    7.4194 H   0  0  0  0  0  0  0  0  0  0  0  0
    0.9322   -2.7543    5.3513 H   0  0  0  0  0  0  0  0  0  0  0  0
    0.4804   -1.1216    3.6787 H   0  0  0  0  0  0  0  0  0  0  0  0
    2.0812    0.4565    3.2844 H   0  0  0  0  0  0  0  0  0  0  0  0
    2.2908    2.4812    4.8771 H   0  0  0  0  0  0  0  0  0  0  0  0
    0.9702    4.5583    5.6102 H   0  0  0  0  0  0  0  0  0  0  0  0
   -0.3780    6.4431    5.1398 H   0  0  0  0  0  0  0  0  0  0  0  0
    0.4937    5.4284    1.6120 H   0  0  0  0  0  0  0  0  0  0  0  0
   -1.2148    6.1403   -0.1870 H   0  0  0  0  0  0  0  0  0  0  0  0
   -3.1268    6.3752   -1.5026 H   0  0  0  0  0  0  0  0  0  0  0  0
   -4.8965    6.3995   -1.4549 H   0  0  0  0  0  0  0  0  0  0  0  0
   -3.1431    4.3489    0.0052 H   0  0  0  0  0  0  0  0  0  0  0  0
   -4.9090    4.3908    0.0196 H   0  0  0  0  0  0  0  0  0  0  0  0
   -4.0423    4.0437   -1.4837 H   0  0  0  0  0  0  0  0  0  0  0  0
   -2.2844   -3.7740   -0.7220 H   0  0  0  0  0  0  0  0  0  0  0  0
   -2.7112   -5.0032   -2.9450 H   0  0  0  0  0  0  0  0  0  0  0  0
   -2.1277   -4.9754   -5.3219 H   0  0  0  0  0  0  0  0  0  0  0  0
   -1.3689   -4.2087   -7.3333 H   0  0  0  0  0  0  0  0  0  0  0  0
   -1.2818   -0.7279   -5.5222 H   0  0  0  0  0  0  0  0  0  0  0  0
    0.1026    0.9733   -6.8740 H   0  0  0  0  0  0  0  0  0  0  0  0
    0.7770   -1.2612  -11.0095 H   0  0  0  0  0  0  0  0  0  0  0  0
    2.2885   -1.8637  -10.2796 H   0  0  0  0  0  0  0  0  0  0  0  0
    3.5754   -0.1176  -11.5235 H   0  0  0  0  0  0  0  0  0  0  0  0
    2.0793    0.4794  -12.2443 H   0  0  0  0  0  0  0  0  0  0  0  0
    2.6682   -1.1376  -12.6479 H   0  0  0  0  0  0  0  0  0  0  0  0
   -1.3441    0.2780   -3.0890 H   0  0  0  0  0  0  0  0  0  0  0  0
   -1.0018    4.9099   -2.0350 H   0  0  0  0  0  0  0  0  0  0  0  0
    0.6763    6.6487   -2.8197 H   0  0  0  0  0  0  0  0  0  0  0  0
    0.9339    8.0511   -0.8135 H   0  0  0  0  0  0  0  0  0  0  0  0
   -0.0501    9.6316    0.8212 H   0  0  0  0  0  0  0  0  0  0  0  0
   -3.7587   11.6537    2.1617 H   0  0  0  0  0  0  0  0  0  0  0  0
   -2.5245   12.1779    3.3233 H   0  0  0  0  0  0  0  0  0  0  0  0
   -3.3936   14.1180    2.0250 H   0  0  0  0  0  0  0  0  0  0  0  0
   -2.8578   13.3660    0.5156 H   0  0  0  0  0  0  0  0  0  0  0  0
   -1.6699   13.8593    1.7209 H   0  0  0  0  0  0  0  0  0  0  0  0
   -3.9054   11.3155    0.0496 H   0  0  0  0  0  0  0  0  0  0  0  0
   -4.0582   10.0665   -2.0248 H   0  0  0  0  0  0  0  0  0  0  0  0
   -3.1618    8.3722   -3.5695 H   0  0  0  0  0  0  0  0  0  0  0  0
   -3.0993    2.2400   -6.7288 H   0  0  0  0  0  0  0  0  0  0  0  0
   -3.6226   -0.0056   -7.5658 H   0  0  0  0  0  0  0  0  0  0  0  0
   -3.3116   -1.7705   -9.2015 H   0  0  0  0  0  0  0  0  0  0  0  0
   -1.7515   -3.4203  -12.0671 H   0  0  0  0  0  0  0  0  0  0  0  0
   -2.2901   -3.2311  -10.3876 H   0  0  0  0  0  0  0  0  0  0  0  0
   -3.8366   -2.3763  -12.8978 H   0  0  0  0  0  0  0  0  0  0  0  0
   -4.4145   -2.1376  -11.2494 H   0  0  0  0  0  0  0  0  0  0  0  0
   -4.2107   -3.7771  -11.8836 H   0  0  0  0  0  0  0  0  0  0  0  0
   -0.8145    0.7974  -11.5420 H   0  0  0  0  0  0  0  0  0  0  0  0
   -0.2678    3.0641  -10.6931 H   0  0  0  0  0  0  0  0  0  0  0  0
   -0.3988    4.7388   -8.9161 H   0  0  0  0  0  0  0  0  0  0  0  0
   -2.3003    6.1054   -8.9452 H   0  0  0  0  0  0  0  0  0  0  0  0
   -2.6324    9.9713   -8.3848 H   0  0  0  0  0  0  0  0  0  0  0  0
   -1.1335    6.9058  -13.6393 H   0  0  0  0  0  0  0  0  0  0  0  0
   -2.7833   11.5991  -13.5774 H   0  0  0  0  0  0  0  0  0  0  0  0
  1  2  2  0  0  0  0
  2  3  1  0  0  0  0
  3  4  2  0  0  0  0
  3  5  1  0  0  0  0
  5  6  2  0  0  0  0
  6  7  1  0  0  0  0
  7  8  1  0  0  0  0
  7  9  2  0  0  0  0
  9 10  1  0  0  0  0
  9 11  1  0  0  0  0
 11 12  2  0  0  0  0
 12 13  1  0  0  0  0
 13 14  2  0  0  0  0
 14 15  1  0  0  0  0
 15 16  3  0  0  0  0
 14 17  1  0  0  0  0
 17 18  3  0  0  0  0
  1 19  1  0  0  0  0
 19 20  2  0  0  0  0
 20 21  1  0  0  0  0
 21 22  2  0  0  0  0
 22 23  1  0  0  0  0
 23 24  2  0  0  0  0
 24 25  1  0  0  0  0
 25 26  2  0  0  0  0
 26 27  1  0  0  0  0
 27 28  2  0  0  0  0
 28 29  1  0  0  0  0
 29 30  1  0  0  0  0
 30 31  1  0  0  0  0
 28 32  1  0  0  0  0
 32 33  2  0  0  0  0
 33 34  1  0  0  0  0
 34 35  2  0  0  0  0
 22 36  1  0  0  0  0
 36 37  2  0  0  0  0
 37 38  1  0  0  0  0
 38 39  1  0  0  0  0
 39 40  2  0  0  0  0
 40 41  1  0  0  0  0
 41 42  2  0  0  0  0
 42 43  1  0  0  0  0
 43 44  2  0  0  0  0
 44 45  1  0  0  0  0
 45 46  1  0  0  0  0
 46 47  1  0  0  0  0
 44 48  1  0  0  0  0
 48 49  2  0  0  0  0
 49 50  1  0  0  0  0
 50 51  2  0  0  0  0
 38 52  2  0  0  0  0
 52 53  1  0  0  0  0
 37 54  1  0  0  0  0
 54 55  2  0  0  0  0
 55 56  1  0  0  0  0
 55 57  1  0  0  0  0
 57 58  2  0  0  0  0
 58 59  1  0  0  0  0
 59 60  2  0  0  0  0
 60 61  1  0  0  0  0
 61 62  2  0  0  0  0
 62 63  1  0  0  0  0
 63 64  2  0  0  0  0
 64 65  1  0  0  0  0
 65 66  2  0  0  0  0
 66 67  1  0  0  0  0
 67 68  2  0  0  0  0
 68 69  1  0  0  0  0
 69 70  2  0  0  0  0
 70 71  1  0  0  0  0
 71 72  1  0  0  0  0
 72 73  1  0  0  0  0
 70 74  1  0  0  0  0
 64 75  1  0  0  0  0
 60 76  1  0  0  0  0
 76 77  2  0  0  0  0
 77 78  1  0  0  0  0
 78 79  1  0  0  0  0
 79 80  2  0  0  0  0
 80 81  1  0  0  0  0
 81 82  2  0  0  0  0
 82 83  1  0  0  0  0
 83 84  2  0  0  0  0
 84 85  1  0  0  0  0
 85 86  2  0  0  0  0
 86 87  1  0  0  0  0
 87 88  2  0  0  0  0
 88 89  1  0  0  0  0
 89 90  1  0  0  0  0
 90 91  1  0  0  0  0
 88 92  1  0  0  0  0
 82 93  1  0  0  0  0
 78 94  2  0  0  0  0
 94 95  1  0  0  0  0
 77 96  1  0  0  0  0
 96 97  2  0  0  0  0
 97 98  1  0  0  0  0
 97 99  1  0  0  0  0
 99100  2  0  0  0  0
100101  1  0  0  0  0
101102  2  0  0  0  0
102103  1  0  0  0  0
103104  2  0  0  0  0
104105  1  0  0  0  0
105106  2  0  0  0  0
106107  1  0  0  0  0
107108  2  0  0  0  0
108109  1  0  0  0  0
109110  1  0  0  0  0
110111  1  0  0  0  0
108112  1  0  0  0  0
112113  2  0  0  0  0
113114  1  0  0  0  0
114115  2  0  0  0  0
102116  1  0  0  0  0
116117  2  0  0  0  0
117118  1  0  0  0  0
118119  1  0  0  0  0
119120  2  0  0  0  0
120121  1  0  0  0  0
121122  2  0  0  0  0
122123  1  0  0  0  0
123124  2  0  0  0  0
124125  1  0  0  0  0
125126  1  0  0  0  0
126127  1  0  0  0  0
124128  1  0  0  0  0
128129  2  0  0  0  0
129130  1  0  0  0  0
130131  2  0  0  0  0
118132  2  0  0  0  0
132133  1  0  0  0  0
117134  1  0  0  0  0
134135  2  0  0  0  0
135136  1  0  0  0  0
135137  1  0  0  0  0
137138  2  0  0  0  0
138139  1  0  0  0  0
139140  2  0  0  0  0
139141  1  0  0  0  0
141142  2  0  0  0  0
142143  1  0  0  0  0
143144  1  0  0  0  0
143145  2  0  0  0  0
145146  1  0  0  0  0
145147  1  0  0  0  0
147148  2  0  0  0  0
148149  1  0  0  0  0
149150  2  0  0  0  0
150151  1  0  0  0  0
151152  3  0  0  0  0
150153  1  0  0  0  0
153154  3  0  0  0  0
 13  2  1  0  0  0  0
 53 19  1  0  0  0  0
 95 57  1  0  0  0  0
133 99  1  0  0  0  0
149138  1  0  0  0  0
 12  5  1  0  0  0  0
 52 21  1  0  0  0  0
 94 59  1  0  0  0  0
132101  1  0  0  0  0
148141  1  0  0  0  0
 35 23  1  0  0  0  0
 56 36  1  0  0  0  0
 75 61  1  0  0  0  0
 98 76  1  0  0  0  0
115103  1  0  0  0  0
136116  1  0  0  0  0
 34 26  1  0  0  0  0
 51 39  1  0  0  0  0
 74 67  1  0  0  0  0
 93 79  1  0  0  0  0
114106  1  0  0  0  0
131119  1  0  0  0  0
 49 41  1  0  0  0  0
 92 85  1  0  0  0  0
129121  1  0  0  0  0
  1155  1  0  0  0  0
  6156  1  0  0  0  0
 11157  1  0  0  0  0
 20158  1  0  0  0  0
 24159  1  0  0  0  0
 25160  1  0  0  0  0
 27161  1  0  0  0  0
 30162  1  0  0  0  0
 30163  1  0  0  0  0
 31164  1  0  0  0  0
 31165  1  0  0  0  0
 31166  1  0  0  0  0
 32167  1  0  0  0  0
 33168  1  0  0  0  0
 35169  1  0  0  0  0
 40170  1  0  0  0  0
 42171  1  0  0  0  0
 43172  1  0  0  0  0
 46173  1  0  0  0  0
 46174  1  0  0  0  0
 47175  1  0  0  0  0
 47176  1  0  0  0  0
 47177  1  0  0  0  0
 48178  1  0  0  0  0
 50179  1  0  0  0  0
 51180  1  0  0  0  0
 54181  1  0  0  0  0
 58182  1  0  0  0  0
 62183  1  0  0  0  0
 63184  1  0  0  0  0
 65185  1  0  0  0  0
 66186  1  0  0  0  0
 68187  1  0  0  0  0
 69188  1  0  0  0  0
 72189  1  0  0  0  0
 72190  1  0  0  0  0
 73191  1  0  0  0  0
 73192  1  0  0  0  0
 73193  1  0  0  0  0
 80194  1  0  0  0  0
 81195  1  0  0  0  0
 83196  1  0  0  0  0
 84197  1  0  0  0  0
 86198  1  0  0  0  0
 87199  1  0  0  0  0
 90200  1  0  0  0  0
 90201  1  0  0  0  0
 91202  1  0  0  0  0
 91203  1  0  0  0  0
 91204  1  0  0  0  0
 96205  1  0  0  0  0
100206  1  0  0  0  0
104207  1  0  0  0  0
105208  1  0  0  0  0
107209  1  0  0  0  0
110210  1  0  0  0  0
110211  1  0  0  0  0
111212  1  0  0  0  0
111213  1  0  0  0  0
111214  1  0  0  0  0
112215  1  0  0  0  0
113216  1  0  0  0  0
115217  1  0  0  0  0
120218  1  0  0  0  0
122219  1  0  0  0  0
123220  1  0  0  0  0
126221  1  0  0  0  0
126222  1  0  0  0  0
127223  1  0  0  0  0
127224  1  0  0  0  0
127225  1  0  0  0  0
128226  1  0  0  0  0
130227  1  0  0  0  0
131228  1  0  0  0  0
134229  1  0  0  0  0
137230  1  0  0  0  0
142231  1  0  0  0  0
147232  1  0  0  0  0
M  END
