
  xtb     02092212193D
 energy: -407.911399855317 gnorm: 0.000557927702 xtb: 6.4.1 (unknown)
232252  0     0  0            999 V2000
   -1.9351   -7.6684   -9.6559 C   0  0  0  0  0  0  0  0  0  0  0  0
   -2.1120   -7.3520  -10.9711 C   0  0  0  0  0  0  0  0  0  0  0  0
   -1.9272   -8.4025  -12.0060 C   0  0  0  0  0  0  0  0  0  0  0  0
   -1.8450   -9.5948  -11.8304 O   0  0  0  0  0  0  0  0  0  0  0  0
   -1.8086   -7.6634  -13.2849 C   0  0  0  0  0  0  0  0  0  0  0  0
   -1.5227   -8.1511  -14.5429 C   0  0  0  0  0  0  0  0  0  0  0  0
   -1.4340   -7.2500  -15.5990 C   0  0  0  0  0  0  0  0  0  0  0  0
   -1.0807   -7.8226  -17.1794 Cl  0  0  0  0  0  0  0  0  0  0  0  0
   -1.6304   -5.8853  -15.3692 C   0  0  0  0  0  0  0  0  0  0  0  0
   -1.4877   -4.6606  -16.8020 Br  0  0  0  0  0  0  0  0  0  0  0  0
   -1.9299   -5.3941  -14.1043 C   0  0  0  0  0  0  0  0  0  0  0  0
   -2.0228   -6.2920  -13.0550 C   0  0  0  0  0  0  0  0  0  0  0  0
   -2.3609   -6.0980  -11.6469 C   0  0  0  0  0  0  0  0  0  0  0  0
   -3.0303   -5.0129  -11.1432 C   0  0  0  0  0  0  0  0  0  0  0  0
   -3.2678   -3.8235  -11.8595 C   0  0  0  0  0  0  0  0  0  0  0  0
   -3.4550   -2.8132  -12.3718 N   0  0  0  0  0  0  0  0  0  0  0  0
   -3.6185   -4.9832   -9.8623 C   0  0  0  0  0  0  0  0  0  0  0  0
   -4.1573   -4.9103   -8.8511 N   0  0  0  0  0  0  0  0  0  0  0  0
   -1.6776   -6.7994   -8.5712 C   0  0  0  0  0  0  0  0  0  0  0  0
   -1.1627   -5.5245   -8.5918 C   0  0  0  0  0  0  0  0  0  0  0  0
   -0.9932   -4.9565   -7.3163 C   0  0  0  0  0  0  0  0  0  0  0  0
   -0.5255   -3.6622   -7.0062 C   0  0  0  0  0  0  0  0  0  0  0  0
   -0.2539   -2.6818   -8.0613 C   0  0  0  0  0  0  0  0  0  0  0  0
   -1.1944   -2.4614   -9.0707 C   0  0  0  0  0  0  0  0  0  0  0  0
   -0.9568   -1.5448  -10.0680 C   0  0  0  0  0  0  0  0  0  0  0  0
    0.2288   -0.8043  -10.1178 C   0  0  0  0  0  0  0  0  0  0  0  0
    0.3748    0.2708  -11.5029 S   0  0  0  0  0  0  0  0  0  0  0  0
    1.6195    1.5478  -11.0861 C   0  0  0  0  0  0  0  0  0  0  0  0
    3.0043    1.2112  -11.6025 C   0  0  0  0  0  0  0  0  0  0  0  0
    1.1504   -1.0279   -9.0984 C   0  0  0  0  0  0  0  0  0  0  0  0
    2.3362   -0.3789   -9.0684 F   0  0  0  0  0  0  0  0  0  0  0  0
    0.9173   -1.9336   -8.0820 C   0  0  0  0  0  0  0  0  0  0  0  0
   -0.4158   -3.3576   -5.6619 C   0  0  0  0  0  0  0  0  0  0  0  0
   -0.8363   -4.2322   -4.6264 C   0  0  0  0  0  0  0  0  0  0  0  0
   -1.3383   -5.5095   -4.9379 C   0  0  0  0  0  0  0  0  0  0  0  0
   -1.8291   -6.4108   -3.8897 C   0  0  0  0  0  0  0  0  0  0  0  0
   -1.4059   -7.7365   -3.8143 C   0  0  0  0  0  0  0  0  0  0  0  0
   -1.8621   -8.5614   -2.8094 C   0  0  0  0  0  0  0  0  0  0  0  0
   -2.7712   -8.1123   -1.8514 C   0  0  0  0  0  0  0  0  0  0  0  0
   -3.3022   -9.2817   -0.6403 S   0  0  0  0  0  0  0  0  0  0  0  0
   -3.5117   -8.3027    0.8917 C   0  0  0  0  0  0  0  0  0  0  0  0
   -2.2429   -7.5777    1.2893 C   0  0  0  0  0  0  0  0  0  0  0  0
   -3.2176   -6.7993   -1.9682 C   0  0  0  0  0  0  0  0  0  0  0  0
   -2.7487   -5.9532   -2.9514 C   0  0  0  0  0  0  0  0  0  0  0  0
   -4.1445   -6.2972   -1.1217 F   0  0  0  0  0  0  0  0  0  0  0  0
   -1.3693   -5.8534   -6.2795 C   0  0  0  0  0  0  0  0  0  0  0  0
   -1.9299   -7.3664   -6.9295 S   0  0  0  0  0  0  0  0  0  0  0  0
   -0.6906   -3.6387   -3.3546 C   0  0  0  0  0  0  0  0  0  0  0  0
   -0.2032   -2.3569   -3.3826 C   0  0  0  0  0  0  0  0  0  0  0  0
    0.1451   -1.8373   -5.0199 S   0  0  0  0  0  0  0  0  0  0  0  0
   -0.0256   -1.5323   -2.2363 C   0  0  0  0  0  0  0  0  0  0  0  0
    0.6033   -0.3081   -2.0481 C   0  0  0  0  0  0  0  0  0  0  0  0
    1.3590    0.4258   -2.9582 N   0  0  0  0  0  0  0  0  0  0  0  0
    2.6434    0.8007   -2.5301 C   0  0  0  0  0  0  0  0  0  0  0  0
    3.4161   -0.1045   -1.8010 C   0  0  0  0  0  0  0  0  0  0  0  0
    4.6896    0.2318   -1.4017 C   0  0  0  0  0  0  0  0  0  0  0  0
    5.2229    1.4767   -1.7249 C   0  0  0  0  0  0  0  0  0  0  0  0
    6.8870    1.7844   -1.2270 S   0  0  0  0  0  0  0  0  0  0  0  0
    7.3872    3.1718   -2.2860 C   0  0  0  0  0  0  0  0  0  0  0  0
    4.4434    2.3970   -2.4134 C   0  0  0  0  0  0  0  0  0  0  0  0
    3.1643    2.0607   -2.8105 C   0  0  0  0  0  0  0  0  0  0  0  0
    0.8541    0.8362   -4.1877 C   0  0  0  0  0  0  0  0  0  0  0  0
    1.7045    1.0524   -5.2752 C   0  0  0  0  0  0  0  0  0  0  0  0
    1.1864    1.3959   -6.5014 C   0  0  0  0  0  0  0  0  0  0  0  0
   -0.1895    1.5220   -6.6806 C   0  0  0  0  0  0  0  0  0  0  0  0
   -0.7634    1.9274   -8.3016 S   0  0  0  0  0  0  0  0  0  0  0  0
   -2.4309    1.2143   -8.3351 C   0  0  0  0  0  0  0  0  0  0  0  0
   -1.0377    1.3448   -5.5976 C   0  0  0  0  0  0  0  0  0  0  0  0
   -0.5179    1.0101   -4.3628 C   0  0  0  0  0  0  0  0  0  0  0  0
    0.4878    0.1188   -0.7025 C   0  0  0  0  0  0  0  0  0  0  0  0
    0.9980    1.5516    0.1087 S   0  0  0  0  0  0  0  0  0  0  0  0
    0.2228    0.9981    1.5915 C   0  0  0  0  0  0  0  0  0  0  0  0
   -0.2973   -0.2829    1.4769 C   0  0  0  0  0  0  0  0  0  0  0  0
   -0.7122   -1.0287    2.5646 N   0  0  0  0  0  0  0  0  0  0  0  0
   -1.6767   -2.0347    2.4533 C   0  0  0  0  0  0  0  0  0  0  0  0
   -2.6954   -1.9450    1.5108 C   0  0  0  0  0  0  0  0  0  0  0  0
   -3.6744   -2.9158    1.4227 C   0  0  0  0  0  0  0  0  0  0  0  0
   -3.6597   -3.9969    2.2912 C   0  0  0  0  0  0  0  0  0  0  0  0
   -4.8897   -5.2599    2.3287 S   0  0  0  0  0  0  0  0  0  0  0  0
   -6.1051   -4.7270    1.0928 C   0  0  0  0  0  0  0  0  0  0  0  0
   -2.6238   -4.1078    3.2187 C   0  0  0  0  0  0  0  0  0  0  0  0
   -1.6403   -3.1490    3.2949 C   0  0  0  0  0  0  0  0  0  0  0  0
   -0.0473   -0.8142    3.7876 C   0  0  0  0  0  0  0  0  0  0  0  0
    1.3330   -0.6363    3.8132 C   0  0  0  0  0  0  0  0  0  0  0  0
    1.9867   -0.3143    4.9851 C   0  0  0  0  0  0  0  0  0  0  0  0
    1.2670   -0.1826    6.1641 C   0  0  0  0  0  0  0  0  0  0  0  0
    1.9739    0.3279    7.6985 S   0  0  0  0  0  0  0  0  0  0  0  0
    3.7337    0.5500    7.3145 C   0  0  0  0  0  0  0  0  0  0  0  0
   -0.1015   -0.4470    6.1606 C   0  0  0  0  0  0  0  0  0  0  0  0
   -0.7545   -0.7565    4.9865 C   0  0  0  0  0  0  0  0  0  0  0  0
   -0.1902   -0.7458    0.1392 C   0  0  0  0  0  0  0  0  0  0  0  0
   -0.7312   -2.1386   -0.7296 S   0  0  0  0  0  0  0  0  0  0  0  0
    0.2591    1.8759    2.7260 C   0  0  0  0  0  0  0  0  0  0  0  0
   -0.7588    2.3774    3.5275 C   0  0  0  0  0  0  0  0  0  0  0  0
   -2.1122    2.1301    3.4351 N   0  0  0  0  0  0  0  0  0  0  0  0
   -2.7799    1.7283    2.2754 C   0  0  0  0  0  0  0  0  0  0  0  0
   -3.9565    0.9859    2.4099 C   0  0  0  0  0  0  0  0  0  0  0  0
   -4.6439    0.5574    1.2984 C   0  0  0  0  0  0  0  0  0  0  0  0
   -4.1579    0.8300    0.0211 C   0  0  0  0  0  0  0  0  0  0  0  0
   -5.0440    0.1293   -1.3408 S   0  0  0  0  0  0  0  0  0  0  0  0
   -3.7735    0.0469   -2.6364 C   0  0  0  0  0  0  0  0  0  0  0  0
   -3.0244    1.6181   -0.1208 C   0  0  0  0  0  0  0  0  0  0  0  0
   -2.3538    2.0793    0.9972 C   0  0  0  0  0  0  0  0  0  0  0  0
   -2.9390    2.5315    4.5211 C   0  0  0  0  0  0  0  0  0  0  0  0
   -3.8948    3.5223    4.3271 C   0  0  0  0  0  0  0  0  0  0  0  0
   -4.6598    3.9734    5.3837 C   0  0  0  0  0  0  0  0  0  0  0  0
   -4.4827    3.4326    6.6508 C   0  0  0  0  0  0  0  0  0  0  0  0
   -5.3737    3.9824    8.0670 S   0  0  0  0  0  0  0  0  0  0  0  0
   -5.8800    5.6631    7.5945 C   0  0  0  0  0  0  0  0  0  0  0  0
   -3.5678    2.4017    6.8356 C   0  0  0  0  0  0  0  0  0  0  0  0
   -2.7971    1.9589    5.7818 C   0  0  0  0  0  0  0  0  0  0  0  0
   -0.2299    3.2553    4.5134 C   0  0  0  0  0  0  0  0  0  0  0  0
   -0.9470    4.1730    5.7871 S   0  0  0  0  0  0  0  0  0  0  0  0
    0.6330    4.7908    6.2676 C   0  0  0  0  0  0  0  0  0  0  0  0
    1.6714    4.2484    5.4667 C   0  0  0  0  0  0  0  0  0  0  0  0
    3.0158    4.4461    5.6513 N   0  0  0  0  0  0  0  0  0  0  0  0
    3.8488    4.4731    4.5192 C   0  0  0  0  0  0  0  0  0  0  0  0
    5.0798    3.8253    4.5219 C   0  0  0  0  0  0  0  0  0  0  0  0
    5.9044    3.8777    3.4154 C   0  0  0  0  0  0  0  0  0  0  0  0
    5.5086    4.5840    2.2865 C   0  0  0  0  0  0  0  0  0  0  0  0
    6.4898    4.7566    0.8375 S   0  0  0  0  0  0  0  0  0  0  0  0
    8.0788    4.0062    1.2890 C   0  0  0  0  0  0  0  0  0  0  0  0
    4.2685    5.2212    2.2751 C   0  0  0  0  0  0  0  0  0  0  0  0
    3.4484    5.1696    3.3778 C   0  0  0  0  0  0  0  0  0  0  0  0
    3.5879    4.5628    6.9300 C   0  0  0  0  0  0  0  0  0  0  0  0
    4.6734    5.4085    7.1386 C   0  0  0  0  0  0  0  0  0  0  0  0
    5.2063    5.5655    8.4035 C   0  0  0  0  0  0  0  0  0  0  0  0
    4.6460    4.8972    9.4832 C   0  0  0  0  0  0  0  0  0  0  0  0
    5.1890    5.1095   11.1473 S   0  0  0  0  0  0  0  0  0  0  0  0
    6.0302    6.7177   11.1004 C   0  0  0  0  0  0  0  0  0  0  0  0
    3.5937    4.0070    9.2669 C   0  0  0  0  0  0  0  0  0  0  0  0
    3.0750    3.8330    8.0052 C   0  0  0  0  0  0  0  0  0  0  0  0
    1.1467    3.4229    4.4575 C   0  0  0  0  0  0  0  0  0  0  0  0
    1.8435    2.5314    3.1502 S   0  0  0  0  0  0  0  0  0  0  0  0
    0.8314    5.7228    7.2820 C   0  0  0  0  0  0  0  0  0  0  0  0
   -0.0499    6.2256    8.2187 C   0  0  0  0  0  0  0  0  0  0  0  0
   -1.4659    5.8885    8.3575 C   0  0  0  0  0  0  0  0  0  0  0  0
   -2.1867    5.3007    7.5701 O   0  0  0  0  0  0  0  0  0  0  0  0
   -1.8923    6.4537    9.6547 C   0  0  0  0  0  0  0  0  0  0  0  0
   -3.1192    6.3525   10.2738 C   0  0  0  0  0  0  0  0  0  0  0  0
   -3.2913    6.9868   11.4996 C   0  0  0  0  0  0  0  0  0  0  0  0
   -4.8084    6.8865   12.3022 Cl  0  0  0  0  0  0  0  0  0  0  0  0
   -2.2339    7.6999   12.0671 C   0  0  0  0  0  0  0  0  0  0  0  0
   -2.4728    8.5695   13.7304 Br  0  0  0  0  0  0  0  0  0  0  0  0
   -0.9937    7.7925   11.4440 C   0  0  0  0  0  0  0  0  0  0  0  0
   -0.8198    7.1595   10.2258 C   0  0  0  0  0  0  0  0  0  0  0  0
    0.3295    7.0718    9.3245 C   0  0  0  0  0  0  0  0  0  0  0  0
    1.5337    7.7043    9.5212 C   0  0  0  0  0  0  0  0  0  0  0  0
    2.5892    7.7643    8.5935 C   0  0  0  0  0  0  0  0  0  0  0  0
    3.4864    7.9065    7.8878 N   0  0  0  0  0  0  0  0  0  0  0  0
    1.8710    8.4279   10.6824 C   0  0  0  0  0  0  0  0  0  0  0  0
    2.2301    9.0108   11.6045 N   0  0  0  0  0  0  0  0  0  0  0  0
   -1.9266   -8.7306   -9.4337 H   0  0  0  0  0  0  0  0  0  0  0  0
   -1.3728   -9.2071  -14.7026 H   0  0  0  0  0  0  0  0  0  0  0  0
   -2.0713   -4.3339  -13.9652 H   0  0  0  0  0  0  0  0  0  0  0  0
   -0.8547   -5.0310   -9.4967 H   0  0  0  0  0  0  0  0  0  0  0  0
   -2.1370   -2.9868   -9.0408 H   0  0  0  0  0  0  0  0  0  0  0  0
   -1.6926   -1.3808  -10.8409 H   0  0  0  0  0  0  0  0  0  0  0  0
    1.2331    2.4441  -11.5721 H   0  0  0  0  0  0  0  0  0  0  0  0
    1.5936    1.6981  -10.0104 H   0  0  0  0  0  0  0  0  0  0  0  0
    3.6807    2.0372  -11.3919 H   0  0  0  0  0  0  0  0  0  0  0  0
    3.3939    0.3173  -11.1238 H   0  0  0  0  0  0  0  0  0  0  0  0
    2.9777    1.0477  -12.6776 H   0  0  0  0  0  0  0  0  0  0  0  0
    1.6804   -2.0685   -7.3314 H   0  0  0  0  0  0  0  0  0  0  0  0
   -0.6902   -8.1122   -4.5289 H   0  0  0  0  0  0  0  0  0  0  0  0
   -1.5179   -9.5816   -2.7435 H   0  0  0  0  0  0  0  0  0  0  0  0
   -4.3478   -7.6185    0.7714 H   0  0  0  0  0  0  0  0  0  0  0  0
   -3.7785   -9.0577    1.6310 H   0  0  0  0  0  0  0  0  0  0  0  0
   -1.4134   -8.2757    1.3816 H   0  0  0  0  0  0  0  0  0  0  0  0
   -2.3982   -7.0832    2.2453 H   0  0  0  0  0  0  0  0  0  0  0  0
   -1.9786   -6.8188    0.5553 H   0  0  0  0  0  0  0  0  0  0  0  0
   -3.1406   -4.9489   -3.0015 H   0  0  0  0  0  0  0  0  0  0  0  0
   -0.9291   -4.1418   -2.4346 H   0  0  0  0  0  0  0  0  0  0  0  0
    3.0192   -1.0822   -1.5698 H   0  0  0  0  0  0  0  0  0  0  0  0
    5.2942   -0.4742   -0.8532 H   0  0  0  0  0  0  0  0  0  0  0  0
    8.4679    3.2337   -2.2038 H   0  0  0  0  0  0  0  0  0  0  0  0
    7.1073    2.9586   -3.3130 H   0  0  0  0  0  0  0  0  0  0  0  0
    6.9360    4.0949   -1.9329 H   0  0  0  0  0  0  0  0  0  0  0  0
    4.8179    3.3830   -2.6362 H   0  0  0  0  0  0  0  0  0  0  0  0
    2.5616    2.7815   -3.3423 H   0  0  0  0  0  0  0  0  0  0  0  0
    2.7685    0.9169   -5.1590 H   0  0  0  0  0  0  0  0  0  0  0  0
    1.8463    1.5501   -7.3404 H   0  0  0  0  0  0  0  0  0  0  0  0
   -3.1273    1.8496   -7.7952 H   0  0  0  0  0  0  0  0  0  0  0  0
   -2.3983    0.2133   -7.9152 H   0  0  0  0  0  0  0  0  0  0  0  0
   -2.7122    1.1682   -9.3824 H   0  0  0  0  0  0  0  0  0  0  0  0
   -2.1042    1.4651   -5.7057 H   0  0  0  0  0  0  0  0  0  0  0  0
   -1.1792    0.8680   -3.5218 H   0  0  0  0  0  0  0  0  0  0  0  0
   -2.7409   -1.0910    0.8576 H   0  0  0  0  0  0  0  0  0  0  0  0
   -4.4464   -2.8027    0.6795 H   0  0  0  0  0  0  0  0  0  0  0  0
   -6.4903   -3.7455    1.3528 H   0  0  0  0  0  0  0  0  0  0  0  0
   -5.6549   -4.7317    0.1057 H   0  0  0  0  0  0  0  0  0  0  0  0
   -6.9042   -5.4607    1.1354 H   0  0  0  0  0  0  0  0  0  0  0  0
   -2.6038   -4.9568    3.8850 H   0  0  0  0  0  0  0  0  0  0  0  0
   -0.8412   -3.2559    4.0128 H   0  0  0  0  0  0  0  0  0  0  0  0
    1.9029   -0.7285    2.9002 H   0  0  0  0  0  0  0  0  0  0  0  0
    3.0531   -0.1628    4.9575 H   0  0  0  0  0  0  0  0  0  0  0  0
    3.8519    1.2904    6.5283 H   0  0  0  0  0  0  0  0  0  0  0  0
    4.1741   -0.4019    7.0322 H   0  0  0  0  0  0  0  0  0  0  0  0
    4.1891    0.9127    8.2309 H   0  0  0  0  0  0  0  0  0  0  0  0
   -0.6450   -0.3894    7.0919 H   0  0  0  0  0  0  0  0  0  0  0  0
   -1.8177   -0.9463    4.9834 H   0  0  0  0  0  0  0  0  0  0  0  0
   -4.3196    0.7391    3.3957 H   0  0  0  0  0  0  0  0  0  0  0  0
   -5.5465   -0.0235    1.4053 H   0  0  0  0  0  0  0  0  0  0  0  0
   -2.8685   -0.3884   -2.2214 H   0  0  0  0  0  0  0  0  0  0  0  0
   -4.1737   -0.6011   -3.4100 H   0  0  0  0  0  0  0  0  0  0  0  0
   -3.5886    1.0353   -3.0476 H   0  0  0  0  0  0  0  0  0  0  0  0
   -2.6598    1.8964   -1.0973 H   0  0  0  0  0  0  0  0  0  0  0  0
   -1.5095    2.7380    0.8704 H   0  0  0  0  0  0  0  0  0  0  0  0
   -4.0242    3.9526    3.3445 H   0  0  0  0  0  0  0  0  0  0  0  0
   -5.3808    4.7555    5.2093 H   0  0  0  0  0  0  0  0  0  0  0  0
   -6.6862    5.6291    6.8675 H   0  0  0  0  0  0  0  0  0  0  0  0
   -5.0143    6.1902    7.2044 H   0  0  0  0  0  0  0  0  0  0  0  0
   -6.2349    6.1391    8.5038 H   0  0  0  0  0  0  0  0  0  0  0  0
   -3.4476    1.9717    7.8178 H   0  0  0  0  0  0  0  0  0  0  0  0
   -2.0549    1.1935    5.9350 H   0  0  0  0  0  0  0  0  0  0  0  0
    5.3954    3.2796    5.3994 H   0  0  0  0  0  0  0  0  0  0  0  0
    6.8485    3.3587    3.4454 H   0  0  0  0  0  0  0  0  0  0  0  0
    8.4601    4.4718    2.1928 H   0  0  0  0  0  0  0  0  0  0  0  0
    7.9620    2.9326    1.4049 H   0  0  0  0  0  0  0  0  0  0  0  0
    8.7481    4.2117    0.4598 H   0  0  0  0  0  0  0  0  0  0  0  0
    3.9668    5.7682    1.3955 H   0  0  0  0  0  0  0  0  0  0  0  0
    2.4995    5.6847    3.3733 H   0  0  0  0  0  0  0  0  0  0  0  0
    5.0859    5.9663    6.3126 H   0  0  0  0  0  0  0  0  0  0  0  0
    6.0381    6.2368    8.5366 H   0  0  0  0  0  0  0  0  0  0  0  0
    6.1440    7.0206   12.1366 H   0  0  0  0  0  0  0  0  0  0  0  0
    5.4090    7.4339   10.5707 H   0  0  0  0  0  0  0  0  0  0  0  0
    7.0074    6.6216   10.6359 H   0  0  0  0  0  0  0  0  0  0  0  0
    3.1848    3.4607   10.1029 H   0  0  0  0  0  0  0  0  0  0  0  0
    2.2507    3.1530    7.8524 H   0  0  0  0  0  0  0  0  0  0  0  0
    1.8519    6.0716    7.3722 H   0  0  0  0  0  0  0  0  0  0  0  0
   -3.9187    5.7848    9.8246 H   0  0  0  0  0  0  0  0  0  0  0  0
   -0.2030    8.3487   11.9214 H   0  0  0  0  0  0  0  0  0  0  0  0
  1  2  2  0  0  0  0
  2  3  1  0  0  0  0
  3  4  2  0  0  0  0
  3  5  1  0  0  0  0
  5  6  2  0  0  0  0
  6  7  1  0  0  0  0
  7  8  1  0  0  0  0
  7  9  2  0  0  0  0
  9 10  1  0  0  0  0
  9 11  1  0  0  0  0
 11 12  2  0  0  0  0
 12 13  1  0  0  0  0
 13 14  2  0  0  0  0
 14 15  1  0  0  0  0
 15 16  3  0  0  0  0
 14 17  1  0  0  0  0
 17 18  3  0  0  0  0
  1 19  1  0  0  0  0
 19 20  2  0  0  0  0
 20 21  1  0  0  0  0
 21 22  2  0  0  0  0
 22 23  1  0  0  0  0
 23 24  2  0  0  0  0
 24 25  1  0  0  0  0
 25 26  2  0  0  0  0
 26 27  1  0  0  0  0
 27 28  1  0  0  0  0
 28 29  1  0  0  0  0
 26 30  1  0  0  0  0
 30 31  1  0  0  0  0
 30 32  2  0  0  0  0
 22 33  1  0  0  0  0
 33 34  2  0  0  0  0
 34 35  1  0  0  0  0
 35 36  1  0  0  0  0
 36 37  2  0  0  0  0
 37 38  1  0  0  0  0
 38 39  2  0  0  0  0
 39 40  1  0  0  0  0
 40 41  1  0  0  0  0
 41 42  1  0  0  0  0
 39 43  1  0  0  0  0
 43 44  2  0  0  0  0
 43 45  1  0  0  0  0
 35 46  2  0  0  0  0
 46 47  1  0  0  0  0
 34 48  1  0  0  0  0
 48 49  2  0  0  0  0
 49 50  1  0  0  0  0
 49 51  1  0  0  0  0
 51 52  2  0  0  0  0
 52 53  1  0  0  0  0
 53 54  1  0  0  0  0
 54 55  2  0  0  0  0
 55 56  1  0  0  0  0
 56 57  2  0  0  0  0
 57 58  1  0  0  0  0
 58 59  1  0  0  0  0
 57 60  1  0  0  0  0
 60 61  2  0  0  0  0
 53 62  1  0  0  0  0
 62 63  2  0  0  0  0
 63 64  1  0  0  0  0
 64 65  2  0  0  0  0
 65 66  1  0  0  0  0
 66 67  1  0  0  0  0
 65 68  1  0  0  0  0
 68 69  2  0  0  0  0
 52 70  1  0  0  0  0
 70 71  1  0  0  0  0
 71 72  1  0  0  0  0
 72 73  2  0  0  0  0
 73 74  1  0  0  0  0
 74 75  1  0  0  0  0
 75 76  2  0  0  0  0
 76 77  1  0  0  0  0
 77 78  2  0  0  0  0
 78 79  1  0  0  0  0
 79 80  1  0  0  0  0
 78 81  1  0  0  0  0
 81 82  2  0  0  0  0
 74 83  1  0  0  0  0
 83 84  2  0  0  0  0
 84 85  1  0  0  0  0
 85 86  2  0  0  0  0
 86 87  1  0  0  0  0
 87 88  1  0  0  0  0
 86 89  1  0  0  0  0
 89 90  2  0  0  0  0
 73 91  1  0  0  0  0
 91 92  1  0  0  0  0
 72 93  1  0  0  0  0
 93 94  2  0  0  0  0
 94 95  1  0  0  0  0
 95 96  1  0  0  0  0
 96 97  2  0  0  0  0
 97 98  1  0  0  0  0
 98 99  2  0  0  0  0
 99100  1  0  0  0  0
100101  1  0  0  0  0
 99102  1  0  0  0  0
102103  2  0  0  0  0
 95104  1  0  0  0  0
104105  2  0  0  0  0
105106  1  0  0  0  0
106107  2  0  0  0  0
107108  1  0  0  0  0
108109  1  0  0  0  0
107110  1  0  0  0  0
110111  2  0  0  0  0
 94112  1  0  0  0  0
112113  1  0  0  0  0
113114  1  0  0  0  0
114115  2  0  0  0  0
115116  1  0  0  0  0
116117  1  0  0  0  0
117118  2  0  0  0  0
118119  1  0  0  0  0
119120  2  0  0  0  0
120121  1  0  0  0  0
121122  1  0  0  0  0
120123  1  0  0  0  0
123124  2  0  0  0  0
116125  1  0  0  0  0
125126  2  0  0  0  0
126127  1  0  0  0  0
127128  2  0  0  0  0
128129  1  0  0  0  0
129130  1  0  0  0  0
128131  1  0  0  0  0
131132  2  0  0  0  0
115133  1  0  0  0  0
133134  1  0  0  0  0
114135  1  0  0  0  0
135136  2  0  0  0  0
136137  1  0  0  0  0
137138  2  0  0  0  0
137139  1  0  0  0  0
139140  2  0  0  0  0
140141  1  0  0  0  0
141142  1  0  0  0  0
141143  2  0  0  0  0
143144  1  0  0  0  0
143145  1  0  0  0  0
145146  2  0  0  0  0
146147  1  0  0  0  0
147148  2  0  0  0  0
148149  1  0  0  0  0
149150  3  0  0  0  0
148151  1  0  0  0  0
151152  3  0  0  0  0
 13  2  1  0  0  0  0
 47 19  1  0  0  0  0
 92 51  1  0  0  0  0
134 93  1  0  0  0  0
147136  1  0  0  0  0
 12  5  1  0  0  0  0
 46 21  1  0  0  0  0
 61 54  1  0  0  0  0
 69 62  1  0  0  0  0
 91 70  2  0  0  0  0
103 96  1  0  0  0  0
111104  1  0  0  0  0
133112  2  0  0  0  0
146139  1  0  0  0  0
 32 23  1  0  0  0  0
 50 33  1  0  0  0  0
 82 75  1  0  0  0  0
 90 83  1  0  0  0  0
124117  1  0  0  0  0
132125  1  0  0  0  0
 44 36  1  0  0  0  0
  1153  1  0  0  0  0
  6154  1  0  0  0  0
 11155  1  0  0  0  0
 20156  1  0  0  0  0
 24157  1  0  0  0  0
 25158  1  0  0  0  0
 28159  1  0  0  0  0
 28160  1  0  0  0  0
 29161  1  0  0  0  0
 29162  1  0  0  0  0
 29163  1  0  0  0  0
 32164  1  0  0  0  0
 37165  1  0  0  0  0
 38166  1  0  0  0  0
 41167  1  0  0  0  0
 41168  1  0  0  0  0
 42169  1  0  0  0  0
 42170  1  0  0  0  0
 42171  1  0  0  0  0
 44172  1  0  0  0  0
 48173  1  0  0  0  0
 55174  1  0  0  0  0
 56175  1  0  0  0  0
 59176  1  0  0  0  0
 59177  1  0  0  0  0
 59178  1  0  0  0  0
 60179  1  0  0  0  0
 61180  1  0  0  0  0
 63181  1  0  0  0  0
 64182  1  0  0  0  0
 67183  1  0  0  0  0
 67184  1  0  0  0  0
 67185  1  0  0  0  0
 68186  1  0  0  0  0
 69187  1  0  0  0  0
 76188  1  0  0  0  0
 77189  1  0  0  0  0
 80190  1  0  0  0  0
 80191  1  0  0  0  0
 80192  1  0  0  0  0
 81193  1  0  0  0  0
 82194  1  0  0  0  0
 84195  1  0  0  0  0
 85196  1  0  0  0  0
 88197  1  0  0  0  0
 88198  1  0  0  0  0
 88199  1  0  0  0  0
 89200  1  0  0  0  0
 90201  1  0  0  0  0
 97202  1  0  0  0  0
 98203  1  0  0  0  0
101204  1  0  0  0  0
101205  1  0  0  0  0
101206  1  0  0  0  0
102207  1  0  0  0  0
103208  1  0  0  0  0
105209  1  0  0  0  0
106210  1  0  0  0  0
109211  1  0  0  0  0
109212  1  0  0  0  0
109213  1  0  0  0  0
110214  1  0  0  0  0
111215  1  0  0  0  0
118216  1  0  0  0  0
119217  1  0  0  0  0
122218  1  0  0  0  0
122219  1  0  0  0  0
122220  1  0  0  0  0
123221  1  0  0  0  0
124222  1  0  0  0  0
126223  1  0  0  0  0
127224  1  0  0  0  0
130225  1  0  0  0  0
130226  1  0  0  0  0
130227  1  0  0  0  0
131228  1  0  0  0  0
132229  1  0  0  0  0
135230  1  0  0  0  0
140231  1  0  0  0  0
145232  1  0  0  0  0
M  END
