
  xtb     02072208293D
 energy: -373.045153843012 gnorm: 0.000856827831 xtb: 6.4.1 (unknown)
228247  0     0  0            999 V2000
    5.5925   -3.2240  -11.6510 N   0  0  0  0  0  0  0  0  0  0  0  0
    5.6027   -2.6802  -10.6389 C   0  0  0  0  0  0  0  0  0  0  0  0
    5.5882   -1.9847   -9.4319 C   0  0  0  0  0  0  0  0  0  0  0  0
    6.5348   -1.1091   -8.9569 C   0  0  0  0  0  0  0  0  0  0  0  0
    6.1748   -0.5344   -7.7353 C   0  0  0  0  0  0  0  0  0  0  0  0
    4.9497   -0.9554   -7.2732 C   0  0  0  0  0  0  0  0  0  0  0  0
    4.2349   -2.1169   -8.3488 S   0  0  0  0  0  0  0  0  0  0  0  0
    4.2354   -0.4842   -6.1250 C   0  0  0  0  0  0  0  0  0  0  0  0
    4.0701    0.8330   -5.7232 C   0  0  0  0  0  0  0  0  0  0  0  0
    4.4978    1.9351   -6.4388 N   0  0  0  0  0  0  0  0  0  0  0  0
    4.8431    3.1152   -5.7725 C   0  0  0  0  0  0  0  0  0  0  0  0
    4.5615    4.3512   -6.3485 C   0  0  0  0  0  0  0  0  0  0  0  0
    4.8944    5.5249   -5.7018 C   0  0  0  0  0  0  0  0  0  0  0  0
    5.5168    5.4834   -4.4610 C   0  0  0  0  0  0  0  0  0  0  0  0
    5.9793    6.9135   -3.5338 S   0  0  0  0  0  0  0  0  0  0  0  0
    5.6891    8.2909   -4.6810 C   0  0  0  0  0  0  0  0  0  0  0  0
    5.8069    4.2493   -3.8837 C   0  0  0  0  0  0  0  0  0  0  0  0
    5.4814    3.0787   -4.5319 C   0  0  0  0  0  0  0  0  0  0  0  0
    4.5552    1.8814   -7.8424 C   0  0  0  0  0  0  0  0  0  0  0  0
    3.5661    1.2296   -8.5726 C   0  0  0  0  0  0  0  0  0  0  0  0
    3.6824    1.0770   -9.9396 C   0  0  0  0  0  0  0  0  0  0  0  0
    4.7898    1.5863  -10.6049 C   0  0  0  0  0  0  0  0  0  0  0  0
    5.0736    1.4003  -12.3358 S   0  0  0  0  0  0  0  0  0  0  0  0
    3.9111    0.0981  -12.8303 C   0  0  0  0  0  0  0  0  0  0  0  0
    5.7488    2.2978   -9.8865 C   0  0  0  0  0  0  0  0  0  0  0  0
    5.6369    2.4410   -8.5219 C   0  0  0  0  0  0  0  0  0  0  0  0
    3.3031    0.8979   -4.5306 C   0  0  0  0  0  0  0  0  0  0  0  0
    2.7663    2.1838   -3.5066 S   0  0  0  0  0  0  0  0  0  0  0  0
    1.8898    1.0475   -2.5079 C   0  0  0  0  0  0  0  0  0  0  0  0
    2.0537   -0.2607   -2.9155 C   0  0  0  0  0  0  0  0  0  0  0  0
    1.5281   -1.3686   -2.2177 N   0  0  0  0  0  0  0  0  0  0  0  0
    0.2576   -1.8679   -2.5871 C   0  0  0  0  0  0  0  0  0  0  0  0
    0.0341   -2.3762   -3.8610 C   0  0  0  0  0  0  0  0  0  0  0  0
   -1.2098   -2.8727   -4.2148 C   0  0  0  0  0  0  0  0  0  0  0  0
   -2.2499   -2.8590   -3.2968 C   0  0  0  0  0  0  0  0  0  0  0  0
   -3.8799   -3.4422   -3.6470 S   0  0  0  0  0  0  0  0  0  0  0  0
   -3.6316   -4.5292   -5.0824 C   0  0  0  0  0  0  0  0  0  0  0  0
   -2.0342   -2.3413   -2.0227 C   0  0  0  0  0  0  0  0  0  0  0  0
   -0.7926   -1.8665   -1.6705 C   0  0  0  0  0  0  0  0  0  0  0  0
    2.1909   -1.8784   -1.1092 C   0  0  0  0  0  0  0  0  0  0  0  0
    1.7158   -3.0265   -0.4645 C   0  0  0  0  0  0  0  0  0  0  0  0
    2.3888   -3.5618    0.6080 C   0  0  0  0  0  0  0  0  0  0  0  0
    3.5766   -2.9941    1.0609 C   0  0  0  0  0  0  0  0  0  0  0  0
    4.3523   -3.8134    2.4276 S   0  0  0  0  0  0  0  0  0  0  0  0
    5.8614   -2.8560    2.7403 C   0  0  0  0  0  0  0  0  0  0  0  0
    4.0719   -1.8752    0.4120 C   0  0  0  0  0  0  0  0  0  0  0  0
    3.3836   -1.3192   -0.6515 C   0  0  0  0  0  0  0  0  0  0  0  0
    2.8530   -0.3328   -4.0786 C   0  0  0  0  0  0  0  0  0  0  0  0
    3.3742   -1.6208   -5.1007 S   0  0  0  0  0  0  0  0  0  0  0  0
    1.0926    1.4126   -1.3605 C   0  0  0  0  0  0  0  0  0  0  0  0
   -0.2666    1.1742   -1.2493 C   0  0  0  0  0  0  0  0  0  0  0  0
   -1.1175    1.0699   -2.3296 N   0  0  0  0  0  0  0  0  0  0  0  0
   -2.5147    1.2580   -2.1683 C   0  0  0  0  0  0  0  0  0  0  0  0
   -3.0417    2.1881   -1.2792 C   0  0  0  0  0  0  0  0  0  0  0  0
   -4.4021    2.4258   -1.2303 C   0  0  0  0  0  0  0  0  0  0  0  0
   -5.2518    1.7529   -2.0950 C   0  0  0  0  0  0  0  0  0  0  0  0
   -6.9927    2.0523   -2.1676 S   0  0  0  0  0  0  0  0  0  0  0  0
   -7.1641    3.6937   -1.4056 C   0  0  0  0  0  0  0  0  0  0  0  0
   -4.7333    0.8023   -2.9703 C   0  0  0  0  0  0  0  0  0  0  0  0
   -3.3781    0.5600   -3.0084 C   0  0  0  0  0  0  0  0  0  0  0  0
   -0.6430    1.6272   -3.5619 C   0  0  0  0  0  0  0  0  0  0  0  0
   -0.4237    2.9962   -3.6457 C   0  0  0  0  0  0  0  0  0  0  0  0
    0.0759    3.5639   -4.8015 C   0  0  0  0  0  0  0  0  0  0  0  0
    0.3604    2.7593   -5.8964 C   0  0  0  0  0  0  0  0  0  0  0  0
    1.0746    3.3525   -7.3947 S   0  0  0  0  0  0  0  0  0  0  0  0
    1.1675    5.1478   -7.1517 C   0  0  0  0  0  0  0  0  0  0  0  0
    0.0915    1.3939   -5.8302 C   0  0  0  0  0  0  0  0  0  0  0  0
   -0.4158    0.8329   -4.6770 C   0  0  0  0  0  0  0  0  0  0  0  0
   -0.6304    1.0179    0.1120 C   0  0  0  0  0  0  0  0  0  0  0  0
   -1.9887    0.2697    0.8839 S   0  0  0  0  0  0  0  0  0  0  0  0
   -1.1359    0.2935    2.4244 C   0  0  0  0  0  0  0  0  0  0  0  0
    0.0509    1.0257    2.3595 C   0  0  0  0  0  0  0  0  0  0  0  0
    0.7496    1.4514    3.4725 N   0  0  0  0  0  0  0  0  0  0  0  0
    0.0536    1.9560    4.5836 C   0  0  0  0  0  0  0  0  0  0  0  0
    0.6208    1.8488    5.8569 C   0  0  0  0  0  0  0  0  0  0  0  0
   -0.0516    2.3126    6.9622 C   0  0  0  0  0  0  0  0  0  0  0  0
   -1.3134    2.8925    6.8319 C   0  0  0  0  0  0  0  0  0  0  0  0
   -2.0868    3.4328    8.3230 S   0  0  0  0  0  0  0  0  0  0  0  0
   -3.6859    4.0938    7.7749 C   0  0  0  0  0  0  0  0  0  0  0  0
   -1.8796    3.0075    5.5703 C   0  0  0  0  0  0  0  0  0  0  0  0
   -1.1994    2.5477    4.4589 C   0  0  0  0  0  0  0  0  0  0  0  0
    2.1360    1.6617    3.3957 C   0  0  0  0  0  0  0  0  0  0  0  0
    2.9688    0.7049    2.8269 C   0  0  0  0  0  0  0  0  0  0  0  0
    4.3321    0.9208    2.7620 C   0  0  0  0  0  0  0  0  0  0  0  0
    4.8852    2.0804    3.2823 C   0  0  0  0  0  0  0  0  0  0  0  0
    6.6158    2.4346    3.2942 S   0  0  0  0  0  0  0  0  0  0  0  0
    7.3839    0.8455    2.8745 C   0  0  0  0  0  0  0  0  0  0  0  0
    4.0511    3.0461    3.8411 C   0  0  0  0  0  0  0  0  0  0  0  0
    2.6915    2.8432    3.8890 C   0  0  0  0  0  0  0  0  0  0  0  0
    0.3867    1.3034    1.0117 C   0  0  0  0  0  0  0  0  0  0  0  0
    1.8594    1.7084    0.2016 S   0  0  0  0  0  0  0  0  0  0  0  0
   -1.5065   -0.6009    3.4565 C   0  0  0  0  0  0  0  0  0  0  0  0
   -2.5030   -1.5694    3.4041 C   0  0  0  0  0  0  0  0  0  0  0  0
   -3.4581   -1.6651    2.3836 N   0  0  0  0  0  0  0  0  0  0  0  0
   -3.3933   -2.8140    1.5823 C   0  0  0  0  0  0  0  0  0  0  0  0
   -2.1465   -3.3687    1.2827 C   0  0  0  0  0  0  0  0  0  0  0  0
   -2.0499   -4.4675    0.4597 C   0  0  0  0  0  0  0  0  0  0  0  0
   -3.1930   -5.0389   -0.0936 C   0  0  0  0  0  0  0  0  0  0  0  0
   -2.9428   -6.3876   -1.2038 S   0  0  0  0  0  0  0  0  0  0  0  0
   -4.5975   -6.6918   -1.8856 C   0  0  0  0  0  0  0  0  0  0  0  0
   -4.4381   -4.5295    0.2475 C   0  0  0  0  0  0  0  0  0  0  0  0
   -4.5355   -3.4362    1.0867 C   0  0  0  0  0  0  0  0  0  0  0  0
   -4.4481   -0.6949    2.2744 C   0  0  0  0  0  0  0  0  0  0  0  0
   -5.1478   -0.4984    1.0819 C   0  0  0  0  0  0  0  0  0  0  0  0
   -6.1424    0.4514    0.9988 C   0  0  0  0  0  0  0  0  0  0  0  0
   -6.4418    1.2476    2.0948 C   0  0  0  0  0  0  0  0  0  0  0  0
   -7.7057    2.4943    2.0314 S   0  0  0  0  0  0  0  0  0  0  0  0
   -9.0175    1.6325    1.1101 C   0  0  0  0  0  0  0  0  0  0  0  0
   -5.7156    1.0991    3.2687 C   0  0  0  0  0  0  0  0  0  0  0  0
   -4.7350    0.1350    3.3612 C   0  0  0  0  0  0  0  0  0  0  0  0
   -2.3729   -2.5039    4.4514 C   0  0  0  0  0  0  0  0  0  0  0  0
   -3.2643   -3.8947    4.9612 S   0  0  0  0  0  0  0  0  0  0  0  0
   -2.1442   -4.1455    6.2997 C   0  0  0  0  0  0  0  0  0  0  0  0
   -1.1721   -3.1587    6.3716 C   0  0  0  0  0  0  0  0  0  0  0  0
   -0.2202   -3.0060    7.3639 N   0  0  0  0  0  0  0  0  0  0  0  0
   -0.4869   -3.3781    8.6870 C   0  0  0  0  0  0  0  0  0  0  0  0
    0.5131   -3.9585    9.4676 C   0  0  0  0  0  0  0  0  0  0  0  0
    0.2206   -4.4396   10.7238 C   0  0  0  0  0  0  0  0  0  0  0  0
   -1.0755   -4.3603   11.2296 C   0  0  0  0  0  0  0  0  0  0  0  0
   -1.3571   -5.0866   12.8125 S   0  0  0  0  0  0  0  0  0  0  0  0
   -3.1651   -5.1969   12.9247 C   0  0  0  0  0  0  0  0  0  0  0  0
   -2.0578   -3.7226   10.4835 C   0  0  0  0  0  0  0  0  0  0  0  0
   -1.7612   -3.2289    9.2290 C   0  0  0  0  0  0  0  0  0  0  0  0
    1.0103   -2.4271    7.0125 C   0  0  0  0  0  0  0  0  0  0  0  0
    1.6461   -2.8008    5.8277 C   0  0  0  0  0  0  0  0  0  0  0  0
    2.8246   -2.1981    5.4491 C   0  0  0  0  0  0  0  0  0  0  0  0
    3.4005   -1.2177    6.2514 C   0  0  0  0  0  0  0  0  0  0  0  0
    4.9227   -0.5189    5.6854 S   0  0  0  0  0  0  0  0  0  0  0  0
    5.0857    1.0132    6.6424 C   0  0  0  0  0  0  0  0  0  0  0  0
    2.7881   -0.8611    7.4455 C   0  0  0  0  0  0  0  0  0  0  0  0
    1.5999   -1.4591    7.8198 C   0  0  0  0  0  0  0  0  0  0  0  0
   -1.3064   -2.2494    5.2980 C   0  0  0  0  0  0  0  0  0  0  0  0
   -0.4399   -0.8322    4.8314 S   0  0  0  0  0  0  0  0  0  0  0  0
   -2.3190   -5.2371    7.2071 C   0  0  0  0  0  0  0  0  0  0  0  0
   -1.3365   -6.0151    7.7771 C   0  0  0  0  0  0  0  0  0  0  0  0
   -1.8207   -6.9052    8.7376 C   0  0  0  0  0  0  0  0  0  0  0  0
   -3.1832   -6.8216    8.9015 C   0  0  0  0  0  0  0  0  0  0  0  0
   -3.9708   -7.5216    9.8121 C   0  0  0  0  0  0  0  0  0  0  0  0
   -4.6114   -8.0708   10.5923 N   0  0  0  0  0  0  0  0  0  0  0  0
   -3.8859   -5.6346    7.8427 S   0  0  0  0  0  0  0  0  0  0  0  0
    7.4483   -0.8959   -9.4823 H   0  0  0  0  0  0  0  0  0  0  0  0
    6.7927    0.1607   -7.1970 H   0  0  0  0  0  0  0  0  0  0  0  0
    4.0779    4.3858   -7.3131 H   0  0  0  0  0  0  0  0  0  0  0  0
    4.6576    6.4645   -6.1755 H   0  0  0  0  0  0  0  0  0  0  0  0
    6.2454    8.1298   -5.5997 H   0  0  0  0  0  0  0  0  0  0  0  0
    4.6262    8.4022   -4.8762 H   0  0  0  0  0  0  0  0  0  0  0  0
    6.0623    9.1753   -4.1740 H   0  0  0  0  0  0  0  0  0  0  0  0
    6.2998    4.2222   -2.9243 H   0  0  0  0  0  0  0  0  0  0  0  0
    5.7354    2.1286   -4.0864 H   0  0  0  0  0  0  0  0  0  0  0  0
    2.7019    0.8315   -8.0631 H   0  0  0  0  0  0  0  0  0  0  0  0
    2.9042    0.5566  -10.4741 H   0  0  0  0  0  0  0  0  0  0  0  0
    4.0614   -0.7831  -12.2134 H   0  0  0  0  0  0  0  0  0  0  0  0
    2.8889    0.4603  -12.7691 H   0  0  0  0  0  0  0  0  0  0  0  0
    4.1571   -0.1330  -13.8619 H   0  0  0  0  0  0  0  0  0  0  0  0
    6.5949    2.7133  -10.4118 H   0  0  0  0  0  0  0  0  0  0  0  0
    6.3998    2.9685   -7.9684 H   0  0  0  0  0  0  0  0  0  0  0  0
    0.8392   -2.3977   -4.5803 H   0  0  0  0  0  0  0  0  0  0  0  0
   -1.3498   -3.2659   -5.2095 H   0  0  0  0  0  0  0  0  0  0  0  0
   -4.5650   -5.0680   -5.2134 H   0  0  0  0  0  0  0  0  0  0  0  0
   -2.8261   -5.2254   -4.8690 H   0  0  0  0  0  0  0  0  0  0  0  0
   -3.4231   -3.9422   -5.9721 H   0  0  0  0  0  0  0  0  0  0  0  0
   -2.8474   -2.3155   -1.3149 H   0  0  0  0  0  0  0  0  0  0  0  0
   -0.6256   -1.5011   -0.6711 H   0  0  0  0  0  0  0  0  0  0  0  0
    0.8220   -3.5138   -0.8196 H   0  0  0  0  0  0  0  0  0  0  0  0
    2.0094   -4.4457    1.0985 H   0  0  0  0  0  0  0  0  0  0  0  0
    6.3911   -3.3957    3.5192 H   0  0  0  0  0  0  0  0  0  0  0  0
    5.6003   -1.8658    3.1020 H   0  0  0  0  0  0  0  0  0  0  0  0
    6.4698   -2.8131    1.8418 H   0  0  0  0  0  0  0  0  0  0  0  0
    5.0055   -1.4264    0.7115 H   0  0  0  0  0  0  0  0  0  0  0  0
    3.7936   -0.4456   -1.1358 H   0  0  0  0  0  0  0  0  0  0  0  0
   -2.3872    2.7560   -0.6347 H   0  0  0  0  0  0  0  0  0  0  0  0
   -4.7820    3.1484   -0.5260 H   0  0  0  0  0  0  0  0  0  0  0  0
   -8.1778    4.0153   -1.6243 H   0  0  0  0  0  0  0  0  0  0  0  0
   -6.4519    4.3747   -1.8612 H   0  0  0  0  0  0  0  0  0  0  0  0
   -7.0231    3.6350   -0.3295 H   0  0  0  0  0  0  0  0  0  0  0  0
   -5.4019    0.2681   -3.6277 H   0  0  0  0  0  0  0  0  0  0  0  0
   -2.9758   -0.1578   -3.7047 H   0  0  0  0  0  0  0  0  0  0  0  0
   -0.6238    3.6214   -2.7877 H   0  0  0  0  0  0  0  0  0  0  0  0
    0.2529    4.6264   -4.8260 H   0  0  0  0  0  0  0  0  0  0  0  0
    0.1719    5.5503   -6.9887 H   0  0  0  0  0  0  0  0  0  0  0  0
    1.5774    5.5457   -8.0752 H   0  0  0  0  0  0  0  0  0  0  0  0
    1.8318    5.3746   -6.3223 H   0  0  0  0  0  0  0  0  0  0  0  0
    0.2906    0.7762   -6.6930 H   0  0  0  0  0  0  0  0  0  0  0  0
   -0.6133   -0.2255   -4.6296 H   0  0  0  0  0  0  0  0  0  0  0  0
    1.5829    1.3722    5.9669 H   0  0  0  0  0  0  0  0  0  0  0  0
    0.3840    2.2195    7.9451 H   0  0  0  0  0  0  0  0  0  0  0  0
   -4.2657    3.3123    7.2926 H   0  0  0  0  0  0  0  0  0  0  0  0
   -4.1903    4.4221    8.6784 H   0  0  0  0  0  0  0  0  0  0  0  0
   -3.5321    4.9398    7.1113 H   0  0  0  0  0  0  0  0  0  0  0  0
   -2.8493    3.4571    5.4304 H   0  0  0  0  0  0  0  0  0  0  0  0
   -1.6553    2.6513    3.4855 H   0  0  0  0  0  0  0  0  0  0  0  0
    2.5518   -0.2148    2.4438 H   0  0  0  0  0  0  0  0  0  0  0  0
    4.9551    0.1707    2.3081 H   0  0  0  0  0  0  0  0  0  0  0  0
    8.4516    0.9945    2.9996 H   0  0  0  0  0  0  0  0  0  0  0  0
    7.1703    0.5861    1.8418 H   0  0  0  0  0  0  0  0  0  0  0  0
    7.0325    0.0801    3.5603 H   0  0  0  0  0  0  0  0  0  0  0  0
    4.4829    3.9557    4.2299 H   0  0  0  0  0  0  0  0  0  0  0  0
    2.0479    3.5990    4.3143 H   0  0  0  0  0  0  0  0  0  0  0  0
   -1.2482   -2.9214    1.6821 H   0  0  0  0  0  0  0  0  0  0  0  0
   -1.0843   -4.8857    0.2199 H   0  0  0  0  0  0  0  0  0  0  0  0
   -4.9866   -5.7719   -2.3127 H   0  0  0  0  0  0  0  0  0  0  0  0
   -4.4626   -7.4377   -2.6628 H   0  0  0  0  0  0  0  0  0  0  0  0
   -5.2550   -7.0822   -1.1142 H   0  0  0  0  0  0  0  0  0  0  0  0
   -5.3449   -4.9748   -0.1276 H   0  0  0  0  0  0  0  0  0  0  0  0
   -5.5113   -3.0650    1.3609 H   0  0  0  0  0  0  0  0  0  0  0  0
   -4.8997   -1.0776    0.2063 H   0  0  0  0  0  0  0  0  0  0  0  0
   -6.6772    0.5687    0.0705 H   0  0  0  0  0  0  0  0  0  0  0  0
   -9.1567    0.6455    1.5397 H   0  0  0  0  0  0  0  0  0  0  0  0
   -9.9157    2.2280    1.2381 H   0  0  0  0  0  0  0  0  0  0  0  0
   -8.7664    1.5637    0.0559 H   0  0  0  0  0  0  0  0  0  0  0  0
   -5.9378    1.7340    4.1130 H   0  0  0  0  0  0  0  0  0  0  0  0
   -4.1912    0.0135    4.2865 H   0  0  0  0  0  0  0  0  0  0  0  0
    1.5122   -4.0532    9.0685 H   0  0  0  0  0  0  0  0  0  0  0  0
    0.9873   -4.9094   11.3205 H   0  0  0  0  0  0  0  0  0  0  0  0
   -3.5578   -5.7210   12.0582 H   0  0  0  0  0  0  0  0  0  0  0  0
   -3.5994   -4.2061   13.0228 H   0  0  0  0  0  0  0  0  0  0  0  0
   -3.3652   -5.7743   13.8219 H   0  0  0  0  0  0  0  0  0  0  0  0
   -3.0590   -3.6076   10.8669 H   0  0  0  0  0  0  0  0  0  0  0  0
   -2.5318   -2.7347    8.6558 H   0  0  0  0  0  0  0  0  0  0  0  0
    1.2094   -3.5648    5.2018 H   0  0  0  0  0  0  0  0  0  0  0  0
    3.3101   -2.4919    4.5325 H   0  0  0  0  0  0  0  0  0  0  0  0
    5.3238    0.7879    7.6780 H   0  0  0  0  0  0  0  0  0  0  0  0
    4.1691    1.5901    6.5605 H   0  0  0  0  0  0  0  0  0  0  0  0
    5.9048    1.5623    6.1881 H   0  0  0  0  0  0  0  0  0  0  0  0
    3.2223   -0.1147    8.0920 H   0  0  0  0  0  0  0  0  0  0  0  0
    1.1195   -1.1710    8.7430 H   0  0  0  0  0  0  0  0  0  0  0  0
   -0.3017   -5.9446    7.4963 H   0  0  0  0  0  0  0  0  0  0  0  0
   -1.2057   -7.5852    9.2995 H   0  0  0  0  0  0  0  0  0  0  0  0
  1  2  3  0  0  0  0
  2  3  1  0  0  0  0
  3  4  2  0  0  0  0
  4  5  1  0  0  0  0
  5  6  2  0  0  0  0
  6  7  1  0  0  0  0
  6  8  1  0  0  0  0
  8  9  2  0  0  0  0
  9 10  1  0  0  0  0
 10 11  1  0  0  0  0
 11 12  2  0  0  0  0
 12 13  1  0  0  0  0
 13 14  2  0  0  0  0
 14 15  1  0  0  0  0
 15 16  1  0  0  0  0
 14 17  1  0  0  0  0
 17 18  2  0  0  0  0
 10 19  1  0  0  0  0
 19 20  2  0  0  0  0
 20 21  1  0  0  0  0
 21 22  2  0  0  0  0
 22 23  1  0  0  0  0
 23 24  1  0  0  0  0
 22 25  1  0  0  0  0
 25 26  2  0  0  0  0
  9 27  1  0  0  0  0
 27 28  1  0  0  0  0
 28 29  1  0  0  0  0
 29 30  2  0  0  0  0
 30 31  1  0  0  0  0
 31 32  1  0  0  0  0
 32 33  2  0  0  0  0
 33 34  1  0  0  0  0
 34 35  2  0  0  0  0
 35 36  1  0  0  0  0
 36 37  1  0  0  0  0
 35 38  1  0  0  0  0
 38 39  2  0  0  0  0
 31 40  1  0  0  0  0
 40 41  2  0  0  0  0
 41 42  1  0  0  0  0
 42 43  2  0  0  0  0
 43 44  1  0  0  0  0
 44 45  1  0  0  0  0
 43 46  1  0  0  0  0
 46 47  2  0  0  0  0
 30 48  1  0  0  0  0
 48 49  1  0  0  0  0
 29 50  1  0  0  0  0
 50 51  2  0  0  0  0
 51 52  1  0  0  0  0
 52 53  1  0  0  0  0
 53 54  2  0  0  0  0
 54 55  1  0  0  0  0
 55 56  2  0  0  0  0
 56 57  1  0  0  0  0
 57 58  1  0  0  0  0
 56 59  1  0  0  0  0
 59 60  2  0  0  0  0
 52 61  1  0  0  0  0
 61 62  2  0  0  0  0
 62 63  1  0  0  0  0
 63 64  2  0  0  0  0
 64 65  1  0  0  0  0
 65 66  1  0  0  0  0
 64 67  1  0  0  0  0
 67 68  2  0  0  0  0
 51 69  1  0  0  0  0
 69 70  1  0  0  0  0
 70 71  1  0  0  0  0
 71 72  2  0  0  0  0
 72 73  1  0  0  0  0
 73 74  1  0  0  0  0
 74 75  2  0  0  0  0
 75 76  1  0  0  0  0
 76 77  2  0  0  0  0
 77 78  1  0  0  0  0
 78 79  1  0  0  0  0
 77 80  1  0  0  0  0
 80 81  2  0  0  0  0
 73 82  1  0  0  0  0
 82 83  2  0  0  0  0
 83 84  1  0  0  0  0
 84 85  2  0  0  0  0
 85 86  1  0  0  0  0
 86 87  1  0  0  0  0
 85 88  1  0  0  0  0
 88 89  2  0  0  0  0
 72 90  1  0  0  0  0
 90 91  1  0  0  0  0
 71 92  1  0  0  0  0
 92 93  2  0  0  0  0
 93 94  1  0  0  0  0
 94 95  1  0  0  0  0
 95 96  2  0  0  0  0
 96 97  1  0  0  0  0
 97 98  2  0  0  0  0
 98 99  1  0  0  0  0
 99100  1  0  0  0  0
 98101  1  0  0  0  0
101102  2  0  0  0  0
 94103  1  0  0  0  0
103104  2  0  0  0  0
104105  1  0  0  0  0
105106  2  0  0  0  0
106107  1  0  0  0  0
107108  1  0  0  0  0
106109  1  0  0  0  0
109110  2  0  0  0  0
 93111  1  0  0  0  0
111112  1  0  0  0  0
112113  1  0  0  0  0
113114  2  0  0  0  0
114115  1  0  0  0  0
115116  1  0  0  0  0
116117  2  0  0  0  0
117118  1  0  0  0  0
118119  2  0  0  0  0
119120  1  0  0  0  0
120121  1  0  0  0  0
119122  1  0  0  0  0
122123  2  0  0  0  0
115124  1  0  0  0  0
124125  2  0  0  0  0
125126  1  0  0  0  0
126127  2  0  0  0  0
127128  1  0  0  0  0
128129  1  0  0  0  0
127130  1  0  0  0  0
130131  2  0  0  0  0
114132  1  0  0  0  0
132133  1  0  0  0  0
113134  1  0  0  0  0
134135  2  0  0  0  0
135136  1  0  0  0  0
136137  2  0  0  0  0
137138  1  0  0  0  0
138139  3  0  0  0  0
137140  1  0  0  0  0
  7  3  1  0  0  0  0
 49  8  1  0  0  0  0
 91 50  1  0  0  0  0
133 92  1  0  0  0  0
140134  1  0  0  0  0
 18 11  1  0  0  0  0
 26 19  1  0  0  0  0
 48 27  2  0  0  0  0
 60 53  1  0  0  0  0
 68 61  1  0  0  0  0
 90 69  2  0  0  0  0
102 95  1  0  0  0  0
110103  1  0  0  0  0
132111  2  0  0  0  0
 39 32  1  0  0  0  0
 47 40  1  0  0  0  0
 81 74  1  0  0  0  0
 89 82  1  0  0  0  0
123116  1  0  0  0  0
131124  1  0  0  0  0
  4141  1  0  0  0  0
  5142  1  0  0  0  0
 12143  1  0  0  0  0
 13144  1  0  0  0  0
 16145  1  0  0  0  0
 16146  1  0  0  0  0
 16147  1  0  0  0  0
 17148  1  0  0  0  0
 18149  1  0  0  0  0
 20150  1  0  0  0  0
 21151  1  0  0  0  0
 24152  1  0  0  0  0
 24153  1  0  0  0  0
 24154  1  0  0  0  0
 25155  1  0  0  0  0
 26156  1  0  0  0  0
 33157  1  0  0  0  0
 34158  1  0  0  0  0
 37159  1  0  0  0  0
 37160  1  0  0  0  0
 37161  1  0  0  0  0
 38162  1  0  0  0  0
 39163  1  0  0  0  0
 41164  1  0  0  0  0
 42165  1  0  0  0  0
 45166  1  0  0  0  0
 45167  1  0  0  0  0
 45168  1  0  0  0  0
 46169  1  0  0  0  0
 47170  1  0  0  0  0
 54171  1  0  0  0  0
 55172  1  0  0  0  0
 58173  1  0  0  0  0
 58174  1  0  0  0  0
 58175  1  0  0  0  0
 59176  1  0  0  0  0
 60177  1  0  0  0  0
 62178  1  0  0  0  0
 63179  1  0  0  0  0
 66180  1  0  0  0  0
 66181  1  0  0  0  0
 66182  1  0  0  0  0
 67183  1  0  0  0  0
 68184  1  0  0  0  0
 75185  1  0  0  0  0
 76186  1  0  0  0  0
 79187  1  0  0  0  0
 79188  1  0  0  0  0
 79189  1  0  0  0  0
 80190  1  0  0  0  0
 81191  1  0  0  0  0
 83192  1  0  0  0  0
 84193  1  0  0  0  0
 87194  1  0  0  0  0
 87195  1  0  0  0  0
 87196  1  0  0  0  0
 88197  1  0  0  0  0
 89198  1  0  0  0  0
 96199  1  0  0  0  0
 97200  1  0  0  0  0
100201  1  0  0  0  0
100202  1  0  0  0  0
100203  1  0  0  0  0
101204  1  0  0  0  0
102205  1  0  0  0  0
104206  1  0  0  0  0
105207  1  0  0  0  0
108208  1  0  0  0  0
108209  1  0  0  0  0
108210  1  0  0  0  0
109211  1  0  0  0  0
110212  1  0  0  0  0
117213  1  0  0  0  0
118214  1  0  0  0  0
121215  1  0  0  0  0
121216  1  0  0  0  0
121217  1  0  0  0  0
122218  1  0  0  0  0
123219  1  0  0  0  0
125220  1  0  0  0  0
126221  1  0  0  0  0
129222  1  0  0  0  0
129223  1  0  0  0  0
129224  1  0  0  0  0
130225  1  0  0  0  0
131226  1  0  0  0  0
135227  1  0  0  0  0
136228  1  0  0  0  0
M  END
