228

N          5.59250       -3.22400      -11.65100
C          5.60270       -2.68020      -10.63890
C          5.58820       -1.98470       -9.43190
C          6.53480       -1.10910       -8.95690
C          6.17480       -0.53440       -7.73530
C          4.94970       -0.95540       -7.27320
S          4.23490       -2.11690       -8.34880
C          4.23540       -0.48420       -6.12500
C          4.07010        0.83300       -5.72320
N          4.49780        1.93510       -6.43880
C          4.84310        3.11520       -5.77250
C          4.56150        4.35120       -6.34850
C          4.89440        5.52490       -5.70180
C          5.51680        5.48340       -4.46100
S          5.97930        6.91350       -3.53380
C          5.68910        8.29090       -4.68100
C          5.80690        4.24930       -3.88370
C          5.48140        3.07870       -4.53190
C          4.55520        1.88140       -7.84240
C          3.56610        1.22960       -8.57260
C          3.68240        1.07700       -9.93960
C          4.78980        1.58630      -10.60490
S          5.07360        1.40030      -12.33580
C          3.91110        0.09810      -12.83030
C          5.74880        2.29780       -9.88650
C          5.63690        2.44100       -8.52190
C          3.30310        0.89790       -4.53060
S          2.76630        2.18380       -3.50660
C          1.88980        1.04750       -2.50790
C          2.05370       -0.26070       -2.91550
N          1.52810       -1.36860       -2.21770
C          0.25760       -1.86790       -2.58710
C          0.03410       -2.37620       -3.86100
C         -1.20980       -2.87270       -4.21480
C         -2.24990       -2.85900       -3.29680
S         -3.87990       -3.44220       -3.64700
C         -3.63160       -4.52920       -5.08240
C         -2.03420       -2.34130       -2.02270
C         -0.79260       -1.86650       -1.67050
C          2.19090       -1.87840       -1.10920
C          1.71580       -3.02650       -0.46450
C          2.38880       -3.56180        0.60800
C          3.57660       -2.99410        1.06090
S          4.35230       -3.81340        2.42760
C          5.86140       -2.85600        2.74030
C          4.07190       -1.87520        0.41200
C          3.38360       -1.31920       -0.65150
C          2.85300       -0.33280       -4.07860
S          3.37420       -1.62080       -5.10070
C          1.09260        1.41260       -1.36050
C         -0.26660        1.17420       -1.24930
N         -1.11750        1.06990       -2.32960
C         -2.51470        1.25800       -2.16830
C         -3.04170        2.18810       -1.27920
C         -4.40210        2.42580       -1.23030
C         -5.25180        1.75290       -2.09500
S         -6.99270        2.05230       -2.16760
C         -7.16410        3.69370       -1.40560
C         -4.73330        0.80230       -2.97030
C         -3.37810        0.56000       -3.00840
C         -0.64300        1.62720       -3.56190
C         -0.42370        2.99620       -3.64570
C          0.07590        3.56390       -4.80150
C          0.36040        2.75930       -5.89640
S          1.07460        3.35250       -7.39470
C          1.16750        5.14780       -7.15170
C          0.09150        1.39390       -5.83020
C         -0.41580        0.83290       -4.67700
C         -0.63040        1.01790        0.11200
S         -1.98870        0.26970        0.88390
C         -1.13590        0.29350        2.42440
C          0.05090        1.02570        2.35950
N          0.74960        1.45140        3.47250
C          0.05360        1.95600        4.58360
C          0.62080        1.84880        5.85690
C         -0.05160        2.31260        6.96220
C         -1.31340        2.89250        6.83190
S         -2.08680        3.43280        8.32300
C         -3.68590        4.09380        7.77490
C         -1.87960        3.00750        5.57030
C         -1.19940        2.54770        4.45890
C          2.13600        1.66170        3.39570
C          2.96880        0.70490        2.82690
C          4.33210        0.92080        2.76200
C          4.88520        2.08040        3.28230
S          6.61580        2.43460        3.29420
C          7.38390        0.84550        2.87450
C          4.05110        3.04610        3.84110
C          2.69150        2.84320        3.88900
C          0.38670        1.30340        1.01170
S          1.85940        1.70840        0.20160
C         -1.50650       -0.60090        3.45650
C         -2.50300       -1.56940        3.40410
N         -3.45810       -1.66510        2.38360
C         -3.39330       -2.81400        1.58230
C         -2.14650       -3.36870        1.28270
C         -2.04990       -4.46750        0.45970
C         -3.19300       -5.03890       -0.09360
S         -2.94280       -6.38760       -1.20380
C         -4.59750       -6.69180       -1.88560
C         -4.43810       -4.52950        0.24750
C         -4.53550       -3.43620        1.08670
C         -4.44810       -0.69490        2.27440
C         -5.14780       -0.49840        1.08190
C         -6.14240        0.45140        0.99880
C         -6.44180        1.24760        2.09480
S         -7.70570        2.49430        2.03140
C         -9.01750        1.63250        1.11010
C         -5.71560        1.09910        3.26870
C         -4.73500        0.13500        3.36120
C         -2.37290       -2.50390        4.45140
S         -3.26430       -3.89470        4.96120
C         -2.14420       -4.14550        6.29970
C         -1.17210       -3.15870        6.37160
N         -0.22020       -3.00600        7.36390
C         -0.48690       -3.37810        8.68700
C          0.51310       -3.95850        9.46760
C          0.22060       -4.43960       10.72380
C         -1.07550       -4.36030       11.22960
S         -1.35710       -5.08660       12.81250
C         -3.16510       -5.19690       12.92470
C         -2.05780       -3.72260       10.48350
C         -1.76120       -3.22890        9.22900
C          1.01030       -2.42710        7.01250
C          1.64610       -2.80080        5.82770
C          2.82460       -2.19810        5.44910
C          3.40050       -1.21770        6.25140
S          4.92270       -0.51890        5.68540
C          5.08570        1.01320        6.64240
C          2.78810       -0.86110        7.44550
C          1.59990       -1.45910        7.81980
C         -1.30640       -2.24940        5.29800
S         -0.43990       -0.83220        4.83140
C         -2.31900       -5.23710        7.20710
C         -1.33650       -6.01510        7.77710
C         -1.82070       -6.90520        8.73760
C         -3.18320       -6.82160        8.90150
C         -3.97080       -7.52160        9.81210
N         -4.61140       -8.07080       10.59230
S         -3.88590       -5.63460        7.84270
H          7.44830       -0.89590       -9.48230
H          6.79270        0.16070       -7.19700
H          4.07790        4.38580       -7.31310
H          4.65760        6.46450       -6.17550
H          6.24540        8.12980       -5.59970
H          4.62620        8.40220       -4.87620
H          6.06230        9.17530       -4.17400
H          6.29980        4.22220       -2.92430
H          5.73540        2.12860       -4.08640
H          2.70190        0.83150       -8.06310
H          2.90420        0.55660      -10.47410
H          4.06140       -0.78310      -12.21340
H          2.88890        0.46030      -12.76910
H          4.15710       -0.13300      -13.86190
H          6.59490        2.71330      -10.41180
H          6.39980        2.96850       -7.96840
H          0.83920       -2.39770       -4.58030
H         -1.34980       -3.26590       -5.20950
H         -4.56500       -5.06800       -5.21340
H         -2.82610       -5.22540       -4.86900
H         -3.42310       -3.94220       -5.97210
H         -2.84740       -2.31550       -1.31490
H         -0.62560       -1.50110       -0.67110
H          0.82200       -3.51380       -0.81960
H          2.00940       -4.44570        1.09850
H          6.39110       -3.39570        3.51920
H          5.60030       -1.86580        3.10200
H          6.46980       -2.81310        1.84180
H          5.00550       -1.42640        0.71150
H          3.79360       -0.44560       -1.13580
H         -2.38720        2.75600       -0.63470
H         -4.78200        3.14840       -0.52600
H         -8.17780        4.01530       -1.62430
H         -6.45190        4.37470       -1.86120
H         -7.02310        3.63500       -0.32950
H         -5.40190        0.26810       -3.62770
H         -2.97580       -0.15780       -3.70470
H         -0.62380        3.62140       -2.78770
H          0.25290        4.62640       -4.82600
H          0.17190        5.55030       -6.98870
H          1.57740        5.54570       -8.07520
H          1.83180        5.37460       -6.32230
H          0.29060        0.77620       -6.69300
H         -0.61330       -0.22550       -4.62960
H          1.58290        1.37220        5.96690
H          0.38400        2.21950        7.94510
H         -4.26570        3.31230        7.29260
H         -4.19030        4.42210        8.67840
H         -3.53210        4.93980        7.11130
H         -2.84930        3.45710        5.43040
H         -1.65530        2.65130        3.48550
H          2.55180       -0.21480        2.44380
H          4.95510        0.17070        2.30810
H          8.45160        0.99450        2.99960
H          7.17030        0.58610        1.84180
H          7.03250        0.08010        3.56030
H          4.48290        3.95570        4.22990
H          2.04790        3.59900        4.31430
H         -1.24820       -2.92140        1.68210
H         -1.08430       -4.88570        0.21990
H         -4.98660       -5.77190       -2.31270
H         -4.46260       -7.43770       -2.66280
H         -5.25500       -7.08220       -1.11420
H         -5.34490       -4.97480       -0.12760
H         -5.51130       -3.06500        1.36090
H         -4.89970       -1.07760        0.20630
H         -6.67720        0.56870        0.07050
H         -9.15670        0.64550        1.53970
H         -9.91570        2.22800        1.23810
H         -8.76640        1.56370        0.05590
H         -5.93780        1.73400        4.11300
H         -4.19120        0.01350        4.28650
H          1.51220       -4.05320        9.06850
H          0.98730       -4.90940       11.32050
H         -3.55780       -5.72100       12.05820
H         -3.59940       -4.20610       13.02280
H         -3.36520       -5.77430       13.82190
H         -3.05900       -3.60760       10.86690
H         -2.53180       -2.73470        8.65580
H          1.20940       -3.56480        5.20180
H          3.31010       -2.49190        4.53250
H          5.32380        0.78790        7.67800
H          4.16910        1.59010        6.56050
H          5.90480        1.56230        6.18810
H          3.22230       -0.11470        8.09200
H          1.11950       -1.17100        8.74300
H         -0.30170       -5.94460        7.49630
H         -1.20570       -7.58520        9.29950
