
  xtb     02082223023D
 energy: -335.230717820842 gnorm: 0.000354085687 xtb: 6.4.1 (unknown)
202220  0     0  0            999 V2000
   -8.0998   -9.6464    5.3292 N   0  0  0  0  0  0  0  0  0  0  0  0
   -7.7359   -8.9208    4.5152 C   0  0  0  0  0  0  0  0  0  0  0  0
   -7.3167   -7.9919    3.5676 C   0  0  0  0  0  0  0  0  0  0  0  0
   -7.9030   -7.6788    2.3636 C   0  0  0  0  0  0  0  0  0  0  0  0
   -7.2882   -6.5974    1.7300 C   0  0  0  0  0  0  0  0  0  0  0  0
   -6.2497   -6.0549    2.4535 C   0  0  0  0  0  0  0  0  0  0  0  0
   -5.9563   -6.9644    3.9038 S   0  0  0  0  0  0  0  0  0  0  0  0
   -5.4707   -4.9047    2.1168 C   0  0  0  0  0  0  0  0  0  0  0  0
   -4.9851   -3.9014    2.9450 C   0  0  0  0  0  0  0  0  0  0  0  0
   -5.2508   -3.7703    4.2966 N   0  0  0  0  0  0  0  0  0  0  0  0
   -4.2819   -3.2177    5.1415 C   0  0  0  0  0  0  0  0  0  0  0  0
   -4.6607   -2.4271    6.2261 C   0  0  0  0  0  0  0  0  0  0  0  0
   -3.7052   -1.8866    7.0553 C   0  0  0  0  0  0  0  0  0  0  0  0
   -2.3510   -2.0892    6.8004 C   0  0  0  0  0  0  0  0  0  0  0  0
   -1.2051   -1.2745    7.8777 S   0  0  0  0  0  0  0  0  0  0  0  0
    0.3669   -2.1219    7.5600 C   0  0  0  0  0  0  0  0  0  0  0  0
   -1.9675   -2.8776    5.7265 C   0  0  0  0  0  0  0  0  0  0  0  0
   -2.9277   -3.4531    4.9173 C   0  0  0  0  0  0  0  0  0  0  0  0
   -6.4885   -4.1852    4.8134 C   0  0  0  0  0  0  0  0  0  0  0  0
   -7.6603   -3.9985    4.0800 C   0  0  0  0  0  0  0  0  0  0  0  0
   -8.8460   -4.5453    4.5155 C   0  0  0  0  0  0  0  0  0  0  0  0
   -8.8945   -5.2815    5.6984 C   0  0  0  0  0  0  0  0  0  0  0  0
  -10.4435   -6.0109    6.1207 S   0  0  0  0  0  0  0  0  0  0  0  0
  -10.0006   -7.2806    7.3400 C   0  0  0  0  0  0  0  0  0  0  0  0
   -7.7480   -5.3987    6.4731 C   0  0  0  0  0  0  0  0  0  0  0  0
   -6.5563   -4.8580    6.0318 C   0  0  0  0  0  0  0  0  0  0  0  0
   -4.2229   -2.9640    2.2005 C   0  0  0  0  0  0  0  0  0  0  0  0
   -3.3641   -1.5143    2.6049 S   0  0  0  0  0  0  0  0  0  0  0  0
   -2.9009   -1.3003    0.9241 C   0  0  0  0  0  0  0  0  0  0  0  0
   -3.4348   -2.2771    0.1062 C   0  0  0  0  0  0  0  0  0  0  0  0
   -3.2962   -2.2647   -1.2795 N   0  0  0  0  0  0  0  0  0  0  0  0
   -3.6441   -1.1010   -1.9722 C   0  0  0  0  0  0  0  0  0  0  0  0
   -2.9746   -0.7399   -3.1415 C   0  0  0  0  0  0  0  0  0  0  0  0
   -3.3524    0.3844   -3.8414 C   0  0  0  0  0  0  0  0  0  0  0  0
   -4.4006    1.1832   -3.3878 C   0  0  0  0  0  0  0  0  0  0  0  0
   -4.8226    2.5809   -4.3838 S   0  0  0  0  0  0  0  0  0  0  0  0
   -6.2075    3.3532   -3.5018 C   0  0  0  0  0  0  0  0  0  0  0  0
   -5.0433    0.8523   -2.2036 C   0  0  0  0  0  0  0  0  0  0  0  0
   -4.6678   -0.2787   -1.5059 C   0  0  0  0  0  0  0  0  0  0  0  0
   -2.9310   -3.4480   -1.9256 C   0  0  0  0  0  0  0  0  0  0  0  0
   -2.0786   -4.3482   -1.2848 C   0  0  0  0  0  0  0  0  0  0  0  0
   -1.7475   -5.5419   -1.8851 C   0  0  0  0  0  0  0  0  0  0  0  0
   -2.2496   -5.8626   -3.1429 C   0  0  0  0  0  0  0  0  0  0  0  0
   -1.7911   -7.4349   -3.8071 S   0  0  0  0  0  0  0  0  0  0  0  0
   -2.2652   -7.3119   -5.5550 C   0  0  0  0  0  0  0  0  0  0  0  0
   -3.0870   -4.9658   -3.7906 C   0  0  0  0  0  0  0  0  0  0  0  0
   -3.4261   -3.7724   -3.1857 C   0  0  0  0  0  0  0  0  0  0  0  0
   -4.1752   -3.2281    0.8420 C   0  0  0  0  0  0  0  0  0  0  0  0
   -5.0687   -4.6419    0.4222 S   0  0  0  0  0  0  0  0  0  0  0  0
   -1.8989   -0.3778    0.4633 C   0  0  0  0  0  0  0  0  0  0  0  0
   -1.7899    0.9952    0.5195 C   0  0  0  0  0  0  0  0  0  0  0  0
   -2.7507    1.8523    1.0385 N   0  0  0  0  0  0  0  0  0  0  0  0
   -3.0982    2.9970    0.3183 C   0  0  0  0  0  0  0  0  0  0  0  0
   -2.9241    3.0385   -1.0637 C   0  0  0  0  0  0  0  0  0  0  0  0
   -3.2323    4.1733   -1.7866 C   0  0  0  0  0  0  0  0  0  0  0  0
   -3.7575    5.2857   -1.1462 C   0  0  0  0  0  0  0  0  0  0  0  0
   -4.2439    6.7632   -1.9866 S   0  0  0  0  0  0  0  0  0  0  0  0
   -3.5735    6.5414   -3.6596 C   0  0  0  0  0  0  0  0  0  0  0  0
   -3.9451    5.2490    0.2336 C   0  0  0  0  0  0  0  0  0  0  0  0
   -3.6084    4.1279    0.9592 C   0  0  0  0  0  0  0  0  0  0  0  0
   -3.2696    1.6166    2.3211 C   0  0  0  0  0  0  0  0  0  0  0  0
   -4.6388    1.7203    2.5617 C   0  0  0  0  0  0  0  0  0  0  0  0
   -5.1307    1.5532    3.8368 C   0  0  0  0  0  0  0  0  0  0  0  0
   -4.2665    1.2812    4.8947 C   0  0  0  0  0  0  0  0  0  0  0  0
   -4.9735    1.1640    6.5086 S   0  0  0  0  0  0  0  0  0  0  0  0
   -3.6019    1.6965    7.5761 C   0  0  0  0  0  0  0  0  0  0  0  0
   -2.9087    1.1268    4.6525 C   0  0  0  0  0  0  0  0  0  0  0  0
   -2.4151    1.2968    3.3734 C   0  0  0  0  0  0  0  0  0  0  0  0
   -0.5981    1.4393   -0.1151 C   0  0  0  0  0  0  0  0  0  0  0  0
    0.1507    2.9850   -0.3283 S   0  0  0  0  0  0  0  0  0  0  0  0
    1.4846    2.2370   -1.1870 C   0  0  0  0  0  0  0  0  0  0  0  0
    1.3770    0.8583   -1.2499 C   0  0  0  0  0  0  0  0  0  0  0  0
    2.3289   -0.0142   -1.7588 N   0  0  0  0  0  0  0  0  0  0  0  0
    1.8825   -1.1145   -2.5067 C   0  0  0  0  0  0  0  0  0  0  0  0
    2.4895   -2.3589   -2.3690 C   0  0  0  0  0  0  0  0  0  0  0  0
    2.0501   -3.4437   -3.1020 C   0  0  0  0  0  0  0  0  0  0  0  0
    0.9955   -3.2993   -3.9935 C   0  0  0  0  0  0  0  0  0  0  0  0
    0.3679   -4.5965   -5.0075 S   0  0  0  0  0  0  0  0  0  0  0  0
    1.3443   -6.0458   -4.5225 C   0  0  0  0  0  0  0  0  0  0  0  0
    0.3859   -2.0552   -4.1349 C   0  0  0  0  0  0  0  0  0  0  0  0
    0.8174   -0.9756   -3.3973 C   0  0  0  0  0  0  0  0  0  0  0  0
    3.6937    0.2429   -1.5925 C   0  0  0  0  0  0  0  0  0  0  0  0
    4.1614    0.8632   -0.4310 C   0  0  0  0  0  0  0  0  0  0  0  0
    5.4793    1.2428   -0.3238 C   0  0  0  0  0  0  0  0  0  0  0  0
    6.3772    0.9818   -1.3570 C   0  0  0  0  0  0  0  0  0  0  0  0
    8.0189    1.5959   -1.1442 S   0  0  0  0  0  0  0  0  0  0  0  0
    8.8963    1.0201   -2.6246 C   0  0  0  0  0  0  0  0  0  0  0  0
    5.9380    0.2874   -2.4743 C   0  0  0  0  0  0  0  0  0  0  0  0
    4.6076   -0.0647   -2.5970 C   0  0  0  0  0  0  0  0  0  0  0  0
    0.1699    0.4230   -0.6516 C   0  0  0  0  0  0  0  0  0  0  0  0
   -0.5335   -1.1245   -0.3746 S   0  0  0  0  0  0  0  0  0  0  0  0
    2.6029    2.9806   -1.6883 C   0  0  0  0  0  0  0  0  0  0  0  0
    3.2335    2.7545   -2.8728 C   0  0  0  0  0  0  0  0  0  0  0  0
    4.4821    3.4133   -2.9903 C   0  0  0  0  0  0  0  0  0  0  0  0
    5.4386    3.2648   -4.0145 C   0  0  0  0  0  0  0  0  0  0  0  0
    5.1622    2.4751   -5.1930 C   0  0  0  0  0  0  0  0  0  0  0  0
    3.9976    2.4037   -5.9039 C   0  0  0  0  0  0  0  0  0  0  0  0
    3.9849    1.5045   -6.9885 C   0  0  0  0  0  0  0  0  0  0  0  0
    5.1438    0.8099   -7.1790 C   0  0  0  0  0  0  0  0  0  0  0  0
    5.3424   -0.4410   -8.3829 S   0  0  0  0  0  0  0  0  0  0  0  0
    7.1629   -0.5505   -8.4944 C   0  0  0  0  0  0  0  0  0  0  0  0
    7.7696    0.6477   -9.1950 C   0  0  0  0  0  0  0  0  0  0  0  0
    6.4417    1.2854   -5.9000 Se  0  0  0  0  0  2  0  0  0  0  0  0
    6.6719    3.8643   -3.7888 C   0  0  0  0  0  0  0  0  0  0  0  0
    6.9940    4.5794   -2.6131 C   0  0  0  0  0  0  0  0  0  0  0  0
    6.0360    4.7307   -1.5918 C   0  0  0  0  0  0  0  0  0  0  0  0
    6.3408    5.3496   -0.3204 C   0  0  0  0  0  0  0  0  0  0  0  0
    5.5306    6.1756    0.4074 C   0  0  0  0  0  0  0  0  0  0  0  0
    6.0279    6.5845    1.6615 C   0  0  0  0  0  0  0  0  0  0  0  0
    7.2456    6.0630    1.9879 C   0  0  0  0  0  0  0  0  0  0  0  0
    8.2266    6.3203    3.4120 S   0  0  0  0  0  0  0  0  0  0  0  0
    7.0395    7.0359    4.6032 C   0  0  0  0  0  0  0  0  0  0  0  0
    6.0111    6.0241    5.0681 C   0  0  0  0  0  0  0  0  0  0  0  0
    7.9155    4.9368    0.6469 Se  0  0  0  0  0  2  0  0  0  0  0  0
    4.7895    4.1605   -1.8302 C   0  0  0  0  0  0  0  0  0  0  0  0
    3.4828    4.1099   -0.6784 S   0  0  0  0  0  0  0  0  0  0  0  0
    8.3220    5.0710   -2.6413 C   0  0  0  0  0  0  0  0  0  0  0  0
    9.0064    4.7458   -3.7738 C   0  0  0  0  0  0  0  0  0  0  0  0
    8.0194    3.8231   -4.8950 S   0  0  0  0  0  0  0  0  0  0  0  0
   10.3537    5.0640   -4.1078 C   0  0  0  0  0  0  0  0  0  0  0  0
   11.0421    4.7279   -5.2525 C   0  0  0  0  0  0  0  0  0  0  0  0
   12.3583    5.1942   -5.2620 C   0  0  0  0  0  0  0  0  0  0  0  0
   12.6847    5.8894   -4.1205 C   0  0  0  0  0  0  0  0  0  0  0  0
   13.9103    6.4830   -3.8193 C   0  0  0  0  0  0  0  0  0  0  0  0
   14.9242    6.9675   -3.5829 N   0  0  0  0  0  0  0  0  0  0  0  0
   11.3481    5.9724   -3.0113 S   0  0  0  0  0  0  0  0  0  0  0  0
   -8.7598   -8.2022    1.9787 H   0  0  0  0  0  0  0  0  0  0  0  0
   -7.6126   -6.1857    0.7911 H   0  0  0  0  0  0  0  0  0  0  0  0
   -5.7059   -2.2353    6.4131 H   0  0  0  0  0  0  0  0  0  0  0  0
   -4.0032   -1.2916    7.9039 H   0  0  0  0  0  0  0  0  0  0  0  0
    0.2271   -3.1942    7.6586 H   0  0  0  0  0  0  0  0  0  0  0  0
    0.7444   -1.8611    6.5754 H   0  0  0  0  0  0  0  0  0  0  0  0
    1.0525   -1.7645    8.3222 H   0  0  0  0  0  0  0  0  0  0  0  0
   -0.9271   -3.0600    5.5102 H   0  0  0  0  0  0  0  0  0  0  0  0
   -2.6212   -4.0926    4.1027 H   0  0  0  0  0  0  0  0  0  0  0  0
   -7.6292   -3.4443    3.1538 H   0  0  0  0  0  0  0  0  0  0  0  0
   -9.7487   -4.4222    3.9373 H   0  0  0  0  0  0  0  0  0  0  0  0
   -9.2266   -7.9248    6.9323 H   0  0  0  0  0  0  0  0  0  0  0  0
  -10.9079   -7.8540    7.5024 H   0  0  0  0  0  0  0  0  0  0  0  0
   -9.6890   -6.8180    8.2720 H   0  0  0  0  0  0  0  0  0  0  0  0
   -7.7636   -5.9338    7.4084 H   0  0  0  0  0  0  0  0  0  0  0  0
   -5.6594   -4.9879    6.6187 H   0  0  0  0  0  0  0  0  0  0  0  0
   -2.1586   -1.3531   -3.4895 H   0  0  0  0  0  0  0  0  0  0  0  0
   -2.8384    0.6591   -4.7504 H   0  0  0  0  0  0  0  0  0  0  0  0
   -7.0335    2.6522   -3.4255 H   0  0  0  0  0  0  0  0  0  0  0  0
   -5.8811    3.6931   -2.5224 H   0  0  0  0  0  0  0  0  0  0  0  0
   -6.5055    4.2036   -4.1080 H   0  0  0  0  0  0  0  0  0  0  0  0
   -5.8436    1.4606   -1.8143 H   0  0  0  0  0  0  0  0  0  0  0  0
   -5.1864   -0.5333   -0.5933 H   0  0  0  0  0  0  0  0  0  0  0  0
   -1.6720   -4.0999   -0.3155 H   0  0  0  0  0  0  0  0  0  0  0  0
   -1.0939   -6.2403   -1.3844 H   0  0  0  0  0  0  0  0  0  0  0  0
   -1.8339   -6.4108   -5.9818 H   0  0  0  0  0  0  0  0  0  0  0  0
   -1.8497   -8.1916   -6.0368 H   0  0  0  0  0  0  0  0  0  0  0  0
   -3.3470   -7.3198   -5.6524 H   0  0  0  0  0  0  0  0  0  0  0  0
   -3.4952   -5.1886   -4.7628 H   0  0  0  0  0  0  0  0  0  0  0  0
   -4.0959   -3.0919   -3.6898 H   0  0  0  0  0  0  0  0  0  0  0  0
   -2.5502    2.1726   -1.5880 H   0  0  0  0  0  0  0  0  0  0  0  0
   -3.0696    4.1644   -2.8514 H   0  0  0  0  0  0  0  0  0  0  0  0
   -2.5031    6.3678   -3.6030 H   0  0  0  0  0  0  0  0  0  0  0  0
   -3.7712    7.4740   -4.1790 H   0  0  0  0  0  0  0  0  0  0  0  0
   -4.0775    5.7235   -4.1667 H   0  0  0  0  0  0  0  0  0  0  0  0
   -4.3464    6.1177    0.7326 H   0  0  0  0  0  0  0  0  0  0  0  0
   -3.7346    4.1278    2.0310 H   0  0  0  0  0  0  0  0  0  0  0  0
   -5.3051    1.9482    1.7430 H   0  0  0  0  0  0  0  0  0  0  0  0
   -6.1880    1.6436    4.0328 H   0  0  0  0  0  0  0  0  0  0  0  0
   -3.1600    2.5974    7.1623 H   0  0  0  0  0  0  0  0  0  0  0  0
   -2.8613    0.9085    7.6783 H   0  0  0  0  0  0  0  0  0  0  0  0
   -4.0456    1.9097    8.5436 H   0  0  0  0  0  0  0  0  0  0  0  0
   -2.2309    0.8827    5.4546 H   0  0  0  0  0  0  0  0  0  0  0  0
   -1.3562    1.1948    3.1854 H   0  0  0  0  0  0  0  0  0  0  0  0
    3.3123   -2.4739   -1.6789 H   0  0  0  0  0  0  0  0  0  0  0  0
    2.5387   -4.3948   -2.9660 H   0  0  0  0  0  0  0  0  0  0  0  0
    0.9708   -6.8686   -5.1236 H   0  0  0  0  0  0  0  0  0  0  0  0
    1.1810   -6.2614   -3.4709 H   0  0  0  0  0  0  0  0  0  0  0  0
    2.3945   -5.8759   -4.7411 H   0  0  0  0  0  0  0  0  0  0  0  0
   -0.4169   -1.9481   -4.8491 H   0  0  0  0  0  0  0  0  0  0  0  0
    0.3405   -0.0131   -3.5151 H   0  0  0  0  0  0  0  0  0  0  0  0
    3.4759    1.0696    0.3774 H   0  0  0  0  0  0  0  0  0  0  0  0
    5.8301    1.7569    0.5586 H   0  0  0  0  0  0  0  0  0  0  0  0
    8.4182    1.4044   -3.5235 H   0  0  0  0  0  0  0  0  0  0  0  0
    8.9312   -0.0653   -2.6348 H   0  0  0  0  0  0  0  0  0  0  0  0
    9.9014    1.4222   -2.5428 H   0  0  0  0  0  0  0  0  0  0  0  0
    6.6165    0.0316   -3.2741 H   0  0  0  0  0  0  0  0  0  0  0  0
    4.2709   -0.5628   -3.4948 H   0  0  0  0  0  0  0  0  0  0  0  0
    2.8386    2.0899   -3.6188 H   0  0  0  0  0  0  0  0  0  0  0  0
    3.1575    3.0426   -5.6875 H   0  0  0  0  0  0  0  0  0  0  0  0
    3.1302    1.3767   -7.6302 H   0  0  0  0  0  0  0  0  0  0  0  0
    7.5427   -0.6589   -7.4726 H   0  0  0  0  0  0  0  0  0  0  0  0
    7.3509   -1.4712   -9.0456 H   0  0  0  0  0  0  0  0  0  0  0  0
    7.3561    0.7515  -10.1954 H   0  0  0  0  0  0  0  0  0  0  0  0
    8.8477    0.5237   -9.2709 H   0  0  0  0  0  0  0  0  0  0  0  0
    7.5663    1.5625   -8.6381 H   0  0  0  0  0  0  0  0  0  0  0  0
    4.5885    6.5369    0.0299 H   0  0  0  0  0  0  0  0  0  0  0  0
    5.4803    7.2637    2.2912 H   0  0  0  0  0  0  0  0  0  0  0  0
    7.6684    7.3650    5.4301 H   0  0  0  0  0  0  0  0  0  0  0  0
    6.5831    7.9092    4.1393 H   0  0  0  0  0  0  0  0  0  0  0  0
    5.4190    5.6599    4.2312 H   0  0  0  0  0  0  0  0  0  0  0  0
    6.5033    5.1752    5.5371 H   0  0  0  0  0  0  0  0  0  0  0  0
    5.3428    6.4845    5.7932 H   0  0  0  0  0  0  0  0  0  0  0  0
    8.7599    5.6626   -1.8549 H   0  0  0  0  0  0  0  0  0  0  0  0
   10.5952    4.1629   -6.0512 H   0  0  0  0  0  0  0  0  0  0  0  0
   13.0544    5.0363   -6.0664 H   0  0  0  0  0  0  0  0  0  0  0  0
  1  2  3  0  0  0  0
  2  3  1  0  0  0  0
  3  4  2  0  0  0  0
  4  5  1  0  0  0  0
  5  6  2  0  0  0  0
  6  7  1  0  0  0  0
  6  8  1  0  0  0  0
  8  9  2  0  0  0  0
  9 10  1  0  0  0  0
 10 11  1  0  0  0  0
 11 12  2  0  0  0  0
 12 13  1  0  0  0  0
 13 14  2  0  0  0  0
 14 15  1  0  0  0  0
 15 16  1  0  0  0  0
 14 17  1  0  0  0  0
 17 18  2  0  0  0  0
 10 19  1  0  0  0  0
 19 20  2  0  0  0  0
 20 21  1  0  0  0  0
 21 22  2  0  0  0  0
 22 23  1  0  0  0  0
 23 24  1  0  0  0  0
 22 25  1  0  0  0  0
 25 26  2  0  0  0  0
  9 27  1  0  0  0  0
 27 28  1  0  0  0  0
 28 29  1  0  0  0  0
 29 30  2  0  0  0  0
 30 31  1  0  0  0  0
 31 32  1  0  0  0  0
 32 33  2  0  0  0  0
 33 34  1  0  0  0  0
 34 35  2  0  0  0  0
 35 36  1  0  0  0  0
 36 37  1  0  0  0  0
 35 38  1  0  0  0  0
 38 39  2  0  0  0  0
 31 40  1  0  0  0  0
 40 41  2  0  0  0  0
 41 42  1  0  0  0  0
 42 43  2  0  0  0  0
 43 44  1  0  0  0  0
 44 45  1  0  0  0  0
 43 46  1  0  0  0  0
 46 47  2  0  0  0  0
 30 48  1  0  0  0  0
 48 49  1  0  0  0  0
 29 50  1  0  0  0  0
 50 51  2  0  0  0  0
 51 52  1  0  0  0  0
 52 53  1  0  0  0  0
 53 54  2  0  0  0  0
 54 55  1  0  0  0  0
 55 56  2  0  0  0  0
 56 57  1  0  0  0  0
 57 58  1  0  0  0  0
 56 59  1  0  0  0  0
 59 60  2  0  0  0  0
 52 61  1  0  0  0  0
 61 62  2  0  0  0  0
 62 63  1  0  0  0  0
 63 64  2  0  0  0  0
 64 65  1  0  0  0  0
 65 66  1  0  0  0  0
 64 67  1  0  0  0  0
 67 68  2  0  0  0  0
 51 69  1  0  0  0  0
 69 70  1  0  0  0  0
 70 71  1  0  0  0  0
 71 72  2  0  0  0  0
 72 73  1  0  0  0  0
 73 74  1  0  0  0  0
 74 75  2  0  0  0  0
 75 76  1  0  0  0  0
 76 77  2  0  0  0  0
 77 78  1  0  0  0  0
 78 79  1  0  0  0  0
 77 80  1  0  0  0  0
 80 81  2  0  0  0  0
 73 82  1  0  0  0  0
 82 83  2  0  0  0  0
 83 84  1  0  0  0  0
 84 85  2  0  0  0  0
 85 86  1  0  0  0  0
 86 87  1  0  0  0  0
 85 88  1  0  0  0  0
 88 89  2  0  0  0  0
 72 90  1  0  0  0  0
 90 91  1  0  0  0  0
 71 92  1  0  0  0  0
 92 93  2  0  0  0  0
 93 94  1  0  0  0  0
 94 95  2  0  0  0  0
 95 96  1  0  0  0  0
 96 97  2  0  0  0  0
 97 98  1  0  0  0  0
 98 99  2  0  0  0  0
 99100  1  0  0  0  0
100101  1  0  0  0  0
101102  1  0  0  0  0
 99103  1  0  0  0  0
 95104  1  0  0  0  0
104105  2  0  0  0  0
105106  1  0  0  0  0
106107  1  0  0  0  0
107108  2  0  0  0  0
108109  1  0  0  0  0
109110  2  0  0  0  0
110111  1  0  0  0  0
111112  1  0  0  0  0
112113  1  0  0  0  0
110114  1  0  0  0  0
106115  2  0  0  0  0
115116  1  0  0  0  0
105117  1  0  0  0  0
117118  2  0  0  0  0
118119  1  0  0  0  0
118120  1  0  0  0  0
120121  2  0  0  0  0
121122  1  0  0  0  0
122123  2  0  0  0  0
123124  1  0  0  0  0
124125  3  0  0  0  0
123126  1  0  0  0  0
  7  3  1  0  0  0  0
 49  8  1  0  0  0  0
 91 50  1  0  0  0  0
116 92  1  0  0  0  0
126120  1  0  0  0  0
 18 11  1  0  0  0  0
 26 19  1  0  0  0  0
 48 27  2  0  0  0  0
 60 53  1  0  0  0  0
 68 61  1  0  0  0  0
 90 69  2  0  0  0  0
115 94  1  0  0  0  0
 39 32  1  0  0  0  0
 47 40  1  0  0  0  0
 81 74  1  0  0  0  0
 89 82  1  0  0  0  0
103 96  1  0  0  0  0
119104  1  0  0  0  0
114107  1  0  0  0  0
  4127  1  0  0  0  0
  5128  1  0  0  0  0
 12129  1  0  0  0  0
 13130  1  0  0  0  0
 16131  1  0  0  0  0
 16132  1  0  0  0  0
 16133  1  0  0  0  0
 17134  1  0  0  0  0
 18135  1  0  0  0  0
 20136  1  0  0  0  0
 21137  1  0  0  0  0
 24138  1  0  0  0  0
 24139  1  0  0  0  0
 24140  1  0  0  0  0
 25141  1  0  0  0  0
 26142  1  0  0  0  0
 33143  1  0  0  0  0
 34144  1  0  0  0  0
 37145  1  0  0  0  0
 37146  1  0  0  0  0
 37147  1  0  0  0  0
 38148  1  0  0  0  0
 39149  1  0  0  0  0
 41150  1  0  0  0  0
 42151  1  0  0  0  0
 45152  1  0  0  0  0
 45153  1  0  0  0  0
 45154  1  0  0  0  0
 46155  1  0  0  0  0
 47156  1  0  0  0  0
 54157  1  0  0  0  0
 55158  1  0  0  0  0
 58159  1  0  0  0  0
 58160  1  0  0  0  0
 58161  1  0  0  0  0
 59162  1  0  0  0  0
 60163  1  0  0  0  0
 62164  1  0  0  0  0
 63165  1  0  0  0  0
 66166  1  0  0  0  0
 66167  1  0  0  0  0
 66168  1  0  0  0  0
 67169  1  0  0  0  0
 68170  1  0  0  0  0
 75171  1  0  0  0  0
 76172  1  0  0  0  0
 79173  1  0  0  0  0
 79174  1  0  0  0  0
 79175  1  0  0  0  0
 80176  1  0  0  0  0
 81177  1  0  0  0  0
 83178  1  0  0  0  0
 84179  1  0  0  0  0
 87180  1  0  0  0  0
 87181  1  0  0  0  0
 87182  1  0  0  0  0
 88183  1  0  0  0  0
 89184  1  0  0  0  0
 93185  1  0  0  0  0
 97186  1  0  0  0  0
 98187  1  0  0  0  0
101188  1  0  0  0  0
101189  1  0  0  0  0
102190  1  0  0  0  0
102191  1  0  0  0  0
102192  1  0  0  0  0
108193  1  0  0  0  0
109194  1  0  0  0  0
112195  1  0  0  0  0
112196  1  0  0  0  0
113197  1  0  0  0  0
113198  1  0  0  0  0
113199  1  0  0  0  0
117200  1  0  0  0  0
121201  1  0  0  0  0
122202  1  0  0  0  0
M  END
