
  xtb     02052200453D
 energy: -219.067544794605 gnorm: 0.000626370049 xtb: 6.4.1 (unknown)
133143  0     0  0            999 V2000
   -2.4793   -6.3015   10.8746 N   0  0  0  0  0  0  0  0  0  0  0  0
   -2.3163   -5.5545   10.0171 C   0  0  0  0  0  0  0  0  0  0  0  0
   -2.1283   -4.6460    8.9772 C   0  0  0  0  0  0  0  0  0  0  0  0
   -2.8299   -3.4857    8.7442 C   0  0  0  0  0  0  0  0  0  0  0  0
   -2.3886   -2.8040    7.6087 C   0  0  0  0  0  0  0  0  0  0  0  0
   -1.3451   -3.4339    6.9653 C   0  0  0  0  0  0  0  0  0  0  0  0
   -0.8956   -4.9035    7.7749 S   0  0  0  0  0  0  0  0  0  0  0  0
   -0.6641   -3.0060    5.7911 C   0  0  0  0  0  0  0  0  0  0  0  0
    0.4565   -3.5343    5.2009 C   0  0  0  0  0  0  0  0  0  0  0  0
    0.8729   -2.8293    4.0583 C   0  0  0  0  0  0  0  0  0  0  0  0
    2.1524   -3.1109    3.3804 C   0  0  0  0  0  0  0  0  0  0  0  0
    3.1626   -2.1434    3.5549 C   0  0  0  0  0  0  0  0  0  0  0  0
    2.7833   -1.0166    4.2247 O   0  0  0  0  0  0  0  0  0  0  0  0
    3.7832   -0.2048    4.8115 C   0  0  0  0  0  0  0  0  0  0  0  0
    3.1067    0.6952    5.8340 C   0  0  0  0  0  0  0  0  0  0  0  0
    4.4471   -2.3706    3.0888 C   0  0  0  0  0  0  0  0  0  0  0  0
    4.7435   -3.5759    2.4710 C   0  0  0  0  0  0  0  0  0  0  0  0
    3.7682   -4.5264    2.2834 C   0  0  0  0  0  0  0  0  0  0  0  0
    2.4575   -4.2984    2.7140 C   0  0  0  0  0  0  0  0  0  0  0  0
    1.6006   -5.3148    2.4425 O   0  0  0  0  0  0  0  0  0  0  0  0
    0.2008   -5.1237    2.3978 C   0  0  0  0  0  0  0  0  0  0  0  0
   -0.3536   -6.0275    1.3049 C   0  0  0  0  0  0  0  0  0  0  0  0
    0.0692   -1.7399    3.7730 C   0  0  0  0  0  0  0  0  0  0  0  0
   -1.2277   -1.6088    4.9225 S   0  0  0  0  0  0  0  0  0  0  0  0
    0.1982   -0.9100    2.6097 C   0  0  0  0  0  0  0  0  0  0  0  0
    0.1511    0.4614    2.4326 C   0  0  0  0  0  0  0  0  0  0  0  0
   -0.0776    1.4133    3.4201 N   0  0  0  0  0  0  0  0  0  0  0  0
   -1.2023    1.2910    4.2451 C   0  0  0  0  0  0  0  0  0  0  0  0
   -2.4101    0.8419    3.7172 C   0  0  0  0  0  0  0  0  0  0  0  0
   -3.5077    0.6425    4.5336 C   0  0  0  0  0  0  0  0  0  0  0  0
   -3.4063    0.8839    5.8955 C   0  0  0  0  0  0  0  0  0  0  0  0
   -4.7067    0.5826    7.0527 S   0  0  0  0  0  0  0  0  0  0  0  0
   -5.9385   -0.3365    6.0861 C   0  0  0  0  0  0  0  0  0  0  0  0
   -2.2148    1.3867    6.4191 C   0  0  0  0  0  0  0  0  0  0  0  0
   -1.1262    1.5961    5.6053 C   0  0  0  0  0  0  0  0  0  0  0  0
    0.7138    2.5640    3.4427 C   0  0  0  0  0  0  0  0  0  0  0  0
    0.1958    3.7864    3.8740 C   0  0  0  0  0  0  0  0  0  0  0  0
    0.9855    4.9135    3.8752 C   0  0  0  0  0  0  0  0  0  0  0  0
    2.3071    4.8570    3.4377 C   0  0  0  0  0  0  0  0  0  0  0  0
    3.2218    6.3677    3.4802 S   0  0  0  0  0  0  0  0  0  0  0  0
    4.6848    6.0080    2.4662 C   0  0  0  0  0  0  0  0  0  0  0  0
    2.8306    3.6437    3.0149 C   0  0  0  0  0  0  0  0  0  0  0  0
    2.0411    2.5108    3.0199 C   0  0  0  0  0  0  0  0  0  0  0  0
    0.4311    0.8122    1.0859 C   0  0  0  0  0  0  0  0  0  0  0  0
    0.5334    2.3156    0.2375 S   0  0  0  0  0  0  0  0  0  0  0  0
    0.8836    1.4645   -1.2651 C   0  0  0  0  0  0  0  0  0  0  0  0
    0.8517    0.0846   -1.1152 C   0  0  0  0  0  0  0  0  0  0  0  0
    0.9185   -0.8523   -2.1304 N   0  0  0  0  0  0  0  0  0  0  0  0
    0.4310   -0.5702   -3.4110 C   0  0  0  0  0  0  0  0  0  0  0  0
    1.1256   -1.0197   -4.5364 C   0  0  0  0  0  0  0  0  0  0  0  0
    0.7392   -0.6216   -5.7967 C   0  0  0  0  0  0  0  0  0  0  0  0
   -0.3535    0.2247   -5.9641 C   0  0  0  0  0  0  0  0  0  0  0  0
   -0.6818    0.8089   -7.6012 S   0  0  0  0  0  0  0  0  0  0  0  0
   -2.4710    1.1354   -7.5696 C   0  0  0  0  0  0  0  0  0  0  0  0
   -1.0938    0.6120   -4.8550 C   0  0  0  0  0  0  0  0  0  0  0  0
   -0.7080    0.2121   -3.5915 C   0  0  0  0  0  0  0  0  0  0  0  0
    1.4599   -2.1194   -1.8586 C   0  0  0  0  0  0  0  0  0  0  0  0
    2.6184   -2.2515   -1.0936 C   0  0  0  0  0  0  0  0  0  0  0  0
    3.1376   -3.4994   -0.8334 C   0  0  0  0  0  0  0  0  0  0  0  0
    2.5115   -4.6440   -1.3239 C   0  0  0  0  0  0  0  0  0  0  0  0
    3.2711   -6.1843   -0.9300 S   0  0  0  0  0  0  0  0  0  0  0  0
    2.2108   -7.4214   -1.7309 C   0  0  0  0  0  0  0  0  0  0  0  0
    1.3587   -4.5153   -2.0883 C   0  0  0  0  0  0  0  0  0  0  0  0
    0.8404   -3.2628   -2.3525 C   0  0  0  0  0  0  0  0  0  0  0  0
    0.6355   -0.2633    0.2423 C   0  0  0  0  0  0  0  0  0  0  0  0
    0.5263   -1.7572    1.0964 S   0  0  0  0  0  0  0  0  0  0  0  0
    1.1248    2.2314   -2.4444 C   0  0  0  0  0  0  0  0  0  0  0  0
    0.5354    3.4138   -2.8148 C   0  0  0  0  0  0  0  0  0  0  0  0
    0.9086    3.8411   -4.0977 C   0  0  0  0  0  0  0  0  0  0  0  0
    0.2523    5.2859   -4.8795 S   0  0  0  0  0  0  0  0  0  0  0  0
   -1.2042    4.5380   -5.7061 C   0  0  0  0  0  0  0  0  0  0  0  0
   -2.3199    4.2426   -4.7242 C   0  0  0  0  0  0  0  0  0  0  0  0
    1.8197    3.0091   -4.7163 C   0  0  0  0  0  0  0  0  0  0  0  0
    2.2688    1.7084   -3.6540 S   0  0  0  0  0  0  0  0  0  0  0  0
    2.3307    3.0409   -6.0422 C   0  0  0  0  0  0  0  0  0  0  0  0
    3.1744    2.1115   -6.6150 C   0  0  0  0  0  0  0  0  0  0  0  0
    3.4553    2.3705   -7.9558 C   0  0  0  0  0  0  0  0  0  0  0  0
    2.8241    3.5012   -8.4197 C   0  0  0  0  0  0  0  0  0  0  0  0
    2.8833    4.0330   -9.7062 C   0  0  0  0  0  0  0  0  0  0  0  0
    2.9377    4.4666  -10.7688 N   0  0  0  0  0  0  0  0  0  0  0  0
    1.8728    4.2666   -7.1809 S   0  0  0  0  0  0  0  0  0  0  0  0
   -3.6297   -3.1504    9.3801 H   0  0  0  0  0  0  0  0  0  0  0  0
   -2.8015   -1.8718    7.2664 H   0  0  0  0  0  0  0  0  0  0  0  0
    0.9837   -4.3874    5.5922 H   0  0  0  0  0  0  0  0  0  0  0  0
    4.2819    0.4029    4.0432 H   0  0  0  0  0  0  0  0  0  0  0  0
    4.5364   -0.8358    5.3015 H   0  0  0  0  0  0  0  0  0  0  0  0
    2.5992    0.0893    6.5801 H   0  0  0  0  0  0  0  0  0  0  0  0
    3.8483    1.3200    6.3234 H   0  0  0  0  0  0  0  0  0  0  0  0
    2.3752    1.3315    5.3439 H   0  0  0  0  0  0  0  0  0  0  0  0
    5.2188   -1.6280    3.2130 H   0  0  0  0  0  0  0  0  0  0  0  0
    5.7496   -3.7627    2.1268 H   0  0  0  0  0  0  0  0  0  0  0  0
    3.9808   -5.4629    1.7944 H   0  0  0  0  0  0  0  0  0  0  0  0
   -0.0411   -4.0812    2.1698 H   0  0  0  0  0  0  0  0  0  0  0  0
   -0.2411   -5.3847    3.3692 H   0  0  0  0  0  0  0  0  0  0  0  0
   -0.0406   -7.0527    1.4825 H   0  0  0  0  0  0  0  0  0  0  0  0
    0.0246   -5.7028    0.3386 H   0  0  0  0  0  0  0  0  0  0  0  0
   -1.4388   -5.9789    1.2976 H   0  0  0  0  0  0  0  0  0  0  0  0
   -2.4848    0.6352    2.6596 H   0  0  0  0  0  0  0  0  0  0  0  0
   -4.4271    0.2911    4.0944 H   0  0  0  0  0  0  0  0  0  0  0  0
   -5.4711   -1.2010    5.6234 H   0  0  0  0  0  0  0  0  0  0  0  0
   -6.6897   -0.6589    6.8005 H   0  0  0  0  0  0  0  0  0  0  0  0
   -6.3941    0.3119    5.3434 H   0  0  0  0  0  0  0  0  0  0  0  0
   -2.1532    1.5911    7.4770 H   0  0  0  0  0  0  0  0  0  0  0  0
   -0.2005    1.9659    6.0191 H   0  0  0  0  0  0  0  0  0  0  0  0
   -0.8330    3.8503    4.1939 H   0  0  0  0  0  0  0  0  0  0  0  0
    0.5821    5.8591    4.2029 H   0  0  0  0  0  0  0  0  0  0  0  0
    4.3728    5.6054    1.5072 H   0  0  0  0  0  0  0  0  0  0  0  0
    5.1842    6.9612    2.3232 H   0  0  0  0  0  0  0  0  0  0  0  0
    5.3474    5.3225    2.9870 H   0  0  0  0  0  0  0  0  0  0  0  0
    3.8539    3.5633    2.6847 H   0  0  0  0  0  0  0  0  0  0  0  0
    2.4590    1.5691    2.6969 H   0  0  0  0  0  0  0  0  0  0  0  0
    1.9919   -1.6505   -4.4069 H   0  0  0  0  0  0  0  0  0  0  0  0
    1.2962   -0.9385   -6.6645 H   0  0  0  0  0  0  0  0  0  0  0  0
   -2.9799    0.2974   -7.1036 H   0  0  0  0  0  0  0  0  0  0  0  0
   -2.7723    1.2239   -8.6086 H   0  0  0  0  0  0  0  0  0  0  0  0
   -2.6838    2.0642   -7.0483 H   0  0  0  0  0  0  0  0  0  0  0  0
   -1.9672    1.2343   -4.9662 H   0  0  0  0  0  0  0  0  0  0  0  0
   -1.2795    0.5310   -2.7322 H   0  0  0  0  0  0  0  0  0  0  0  0
    3.1149   -1.3698   -0.7167 H   0  0  0  0  0  0  0  0  0  0  0  0
    4.0364   -3.6017   -0.2472 H   0  0  0  0  0  0  0  0  0  0  0  0
    1.2110   -7.3863   -1.3080 H   0  0  0  0  0  0  0  0  0  0  0  0
    2.1942   -7.2613   -2.8051 H   0  0  0  0  0  0  0  0  0  0  0  0
    2.6679   -8.3810   -1.5103 H   0  0  0  0  0  0  0  0  0  0  0  0
    0.8504   -5.3803   -2.4835 H   0  0  0  0  0  0  0  0  0  0  0  0
   -0.0567   -3.1672   -2.9466 H   0  0  0  0  0  0  0  0  0  0  0  0
   -0.1749    3.9367   -2.1999 H   0  0  0  0  0  0  0  0  0  0  0  0
   -0.8579    3.6415   -6.2202 H   0  0  0  0  0  0  0  0  0  0  0  0
   -1.5090    5.2797   -6.4429 H   0  0  0  0  0  0  0  0  0  0  0  0
   -3.1922    3.8569   -5.2505 H   0  0  0  0  0  0  0  0  0  0  0  0
   -1.9986    3.5064   -3.9897 H   0  0  0  0  0  0  0  0  0  0  0  0
   -2.6093    5.1503   -4.1999 H   0  0  0  0  0  0  0  0  0  0  0  0
    3.5618    1.2709   -6.0669 H   0  0  0  0  0  0  0  0  0  0  0  0
    4.0901    1.7596   -8.5726 H   0  0  0  0  0  0  0  0  0  0  0  0
  1  2  3  0  0  0  0
  2  3  1  0  0  0  0
  3  4  2  0  0  0  0
  4  5  1  0  0  0  0
  5  6  2  0  0  0  0
  6  7  1  0  0  0  0
  6  8  1  0  0  0  0
  8  9  2  0  0  0  0
  9 10  1  0  0  0  0
 10 11  1  0  0  0  0
 11 12  2  0  0  0  0
 12 13  1  0  0  0  0
 13 14  1  0  0  0  0
 14 15  1  0  0  0  0
 12 16  1  0  0  0  0
 16 17  2  0  0  0  0
 17 18  1  0  0  0  0
 18 19  2  0  0  0  0
 19 20  1  0  0  0  0
 20 21  1  0  0  0  0
 21 22  1  0  0  0  0
 10 23  2  0  0  0  0
 23 24  1  0  0  0  0
 23 25  1  0  0  0  0
 25 26  2  0  0  0  0
 26 27  1  0  0  0  0
 27 28  1  0  0  0  0
 28 29  2  0  0  0  0
 29 30  1  0  0  0  0
 30 31  2  0  0  0  0
 31 32  1  0  0  0  0
 32 33  1  0  0  0  0
 31 34  1  0  0  0  0
 34 35  2  0  0  0  0
 27 36  1  0  0  0  0
 36 37  2  0  0  0  0
 37 38  1  0  0  0  0
 38 39  2  0  0  0  0
 39 40  1  0  0  0  0
 40 41  1  0  0  0  0
 39 42  1  0  0  0  0
 42 43  2  0  0  0  0
 26 44  1  0  0  0  0
 44 45  1  0  0  0  0
 45 46  1  0  0  0  0
 46 47  2  0  0  0  0
 47 48  1  0  0  0  0
 48 49  1  0  0  0  0
 49 50  2  0  0  0  0
 50 51  1  0  0  0  0
 51 52  2  0  0  0  0
 52 53  1  0  0  0  0
 53 54  1  0  0  0  0
 52 55  1  0  0  0  0
 55 56  2  0  0  0  0
 48 57  1  0  0  0  0
 57 58  2  0  0  0  0
 58 59  1  0  0  0  0
 59 60  2  0  0  0  0
 60 61  1  0  0  0  0
 61 62  1  0  0  0  0
 60 63  1  0  0  0  0
 63 64  2  0  0  0  0
 47 65  1  0  0  0  0
 65 66  1  0  0  0  0
 46 67  1  0  0  0  0
 67 68  2  0  0  0  0
 68 69  1  0  0  0  0
 69 70  1  0  0  0  0
 70 71  1  0  0  0  0
 71 72  1  0  0  0  0
 69 73  2  0  0  0  0
 73 74  1  0  0  0  0
 73 75  1  0  0  0  0
 75 76  2  0  0  0  0
 76 77  1  0  0  0  0
 77 78  2  0  0  0  0
 78 79  1  0  0  0  0
 79 80  3  0  0  0  0
 78 81  1  0  0  0  0
  7  3  1  0  0  0  0
 24  8  1  0  0  0  0
 66 25  1  0  0  0  0
 74 67  1  0  0  0  0
 81 75  1  0  0  0  0
 19 11  1  0  0  0  0
 35 28  1  0  0  0  0
 43 36  1  0  0  0  0
 65 44  2  0  0  0  0
 56 49  1  0  0  0  0
 64 57  1  0  0  0  0
  4 82  1  0  0  0  0
  5 83  1  0  0  0  0
  9 84  1  0  0  0  0
 14 85  1  0  0  0  0
 14 86  1  0  0  0  0
 15 87  1  0  0  0  0
 15 88  1  0  0  0  0
 15 89  1  0  0  0  0
 16 90  1  0  0  0  0
 17 91  1  0  0  0  0
 18 92  1  0  0  0  0
 21 93  1  0  0  0  0
 21 94  1  0  0  0  0
 22 95  1  0  0  0  0
 22 96  1  0  0  0  0
 22 97  1  0  0  0  0
 29 98  1  0  0  0  0
 30 99  1  0  0  0  0
 33100  1  0  0  0  0
 33101  1  0  0  0  0
 33102  1  0  0  0  0
 34103  1  0  0  0  0
 35104  1  0  0  0  0
 37105  1  0  0  0  0
 38106  1  0  0  0  0
 41107  1  0  0  0  0
 41108  1  0  0  0  0
 41109  1  0  0  0  0
 42110  1  0  0  0  0
 43111  1  0  0  0  0
 50112  1  0  0  0  0
 51113  1  0  0  0  0
 54114  1  0  0  0  0
 54115  1  0  0  0  0
 54116  1  0  0  0  0
 55117  1  0  0  0  0
 56118  1  0  0  0  0
 58119  1  0  0  0  0
 59120  1  0  0  0  0
 62121  1  0  0  0  0
 62122  1  0  0  0  0
 62123  1  0  0  0  0
 63124  1  0  0  0  0
 64125  1  0  0  0  0
 68126  1  0  0  0  0
 71127  1  0  0  0  0
 71128  1  0  0  0  0
 72129  1  0  0  0  0
 72130  1  0  0  0  0
 72131  1  0  0  0  0
 76132  1  0  0  0  0
 77133  1  0  0  0  0
M  END
