
  xtb     02042221103D
 energy: -217.781088149240 gnorm: 0.000844396740 xtb: 6.4.1 (unknown)
126139  0     0  0            999 V2000
   -1.6802   -3.0705   14.1071 N   0  0  0  0  0  0  0  0  0  0  0  0
   -1.8196   -3.4806   13.0431 C   0  0  0  0  0  0  0  0  0  0  0  0
   -1.9934   -3.9848   11.7551 C   0  0  0  0  0  0  0  0  0  0  0  0
   -2.4693   -5.2232   11.3980 C   0  0  0  0  0  0  0  0  0  0  0  0
   -2.5228   -5.4037   10.0122 C   0  0  0  0  0  0  0  0  0  0  0  0
   -2.0881   -4.3147    9.2931 C   0  0  0  0  0  0  0  0  0  0  0  0
   -1.5985   -3.0309   10.3584 S   0  0  0  0  0  0  0  0  0  0  0  0
   -2.0146   -4.1434    7.8584 C   0  0  0  0  0  0  0  0  0  0  0  0
   -1.3065   -3.0673    7.3249 C   0  0  0  0  0  0  0  0  0  0  0  0
   -1.2643   -2.9118    5.9514 C   0  0  0  0  0  0  0  0  0  0  0  0
   -0.6406   -1.9490    5.1977 N   0  0  0  0  0  0  0  0  0  0  0  0
    0.0664   -0.7992    5.6979 C   0  0  0  0  0  0  0  0  0  0  0  0
   -0.8474    0.4210    5.8046 C   0  0  0  0  0  0  0  0  0  0  0  0
   -0.9283   -2.1807    3.8750 C   0  0  0  0  0  0  0  0  0  0  0  0
   -1.7287   -3.3447    3.7601 C   0  0  0  0  0  0  0  0  0  0  0  0
   -1.9371   -3.8195    5.0923 C   0  0  0  0  0  0  0  0  0  0  0  0
   -2.6360   -4.8918    5.6347 C   0  0  0  0  0  0  0  0  0  0  0  0
   -2.6691   -5.0473    7.0013 C   0  0  0  0  0  0  0  0  0  0  0  0
   -2.1772   -3.7507    2.5079 C   0  0  0  0  0  0  0  0  0  0  0  0
   -1.8304   -3.0120    1.4009 C   0  0  0  0  0  0  0  0  0  0  0  0
   -1.0077   -1.8757    1.5084 C   0  0  0  0  0  0  0  0  0  0  0  0
   -0.5591   -1.4547    2.7583 C   0  0  0  0  0  0  0  0  0  0  0  0
   -0.6837   -1.0804    0.3444 C   0  0  0  0  0  0  0  0  0  0  0  0
   -0.5571   -1.4531   -0.9831 C   0  0  0  0  0  0  0  0  0  0  0  0
   -0.5537   -2.7578   -1.4569 N   0  0  0  0  0  0  0  0  0  0  0  0
    0.0723   -3.7754   -0.7276 C   0  0  0  0  0  0  0  0  0  0  0  0
   -0.4304   -5.0738   -0.7594 C   0  0  0  0  0  0  0  0  0  0  0  0
    0.1532   -6.0796   -0.0147 C   0  0  0  0  0  0  0  0  0  0  0  0
    1.2520   -5.8032    0.7860 C   0  0  0  0  0  0  0  0  0  0  0  0
    2.0671   -6.9942    1.8036 S   0  0  0  0  0  0  0  0  0  0  0  0
    1.2372   -8.5574    1.3983 C   0  0  0  0  0  0  0  0  0  0  0  0
    1.7655   -4.5084    0.8143 C   0  0  0  0  0  0  0  0  0  0  0  0
    1.1890   -3.5089    0.0652 C   0  0  0  0  0  0  0  0  0  0  0  0
   -1.1250   -3.0179   -2.7091 C   0  0  0  0  0  0  0  0  0  0  0  0
   -0.5311   -3.9168   -3.5959 C   0  0  0  0  0  0  0  0  0  0  0  0
   -1.0967   -4.1496   -4.8283 C   0  0  0  0  0  0  0  0  0  0  0  0
   -2.2623   -3.4875   -5.2109 C   0  0  0  0  0  0  0  0  0  0  0  0
   -2.8937   -3.8695   -6.8156 S   0  0  0  0  0  0  0  0  0  0  0  0
   -4.1945   -2.6291   -7.0743 C   0  0  0  0  0  0  0  0  0  0  0  0
   -2.8598   -2.5967   -4.3313 C   0  0  0  0  0  0  0  0  0  0  0  0
   -2.2955   -2.3681   -3.0913 C   0  0  0  0  0  0  0  0  0  0  0  0
   -0.3553   -0.3230   -1.8167 C   0  0  0  0  0  0  0  0  0  0  0  0
   -0.1383   -0.1018   -3.5212 S   0  0  0  0  0  0  0  0  0  0  0  0
   -0.0172    1.6315   -3.2930 C   0  0  0  0  0  0  0  0  0  0  0  0
   -0.0296    2.0033   -1.9499 C   0  0  0  0  0  0  0  0  0  0  0  0
    0.2953    3.2520   -1.4583 N   0  0  0  0  0  0  0  0  0  0  0  0
    1.1623    4.1008   -2.1571 C   0  0  0  0  0  0  0  0  0  0  0  0
    2.2456    3.5895   -2.8767 C   0  0  0  0  0  0  0  0  0  0  0  0
    2.9967    4.4137   -3.6819 C   0  0  0  0  0  0  0  0  0  0  0  0
    2.7031    5.7745   -3.7772 C   0  0  0  0  0  0  0  0  0  0  0  0
    3.6749    6.7080   -4.9121 S   0  0  0  0  0  0  0  0  0  0  0  0
    2.9143    8.3549   -4.8843 C   0  0  0  0  0  0  0  0  0  0  0  0
    1.6897    6.3037   -2.9896 C   0  0  0  0  0  0  0  0  0  0  0  0
    0.9301    5.4732   -2.1875 C   0  0  0  0  0  0  0  0  0  0  0  0
   -0.2519    3.6572   -0.2342 C   0  0  0  0  0  0  0  0  0  0  0  0
   -1.5852    3.3879    0.0619 C   0  0  0  0  0  0  0  0  0  0  0  0
   -2.1090    3.7052    1.2997 C   0  0  0  0  0  0  0  0  0  0  0  0
   -1.3037    4.3013    2.2605 C   0  0  0  0  0  0  0  0  0  0  0  0
   -1.8461    4.6981    3.8929 S   0  0  0  0  0  0  0  0  0  0  0  0
   -3.4185    3.8032    4.0496 C   0  0  0  0  0  0  0  0  0  0  0  0
    0.0166    4.6225    1.9475 C   0  0  0  0  0  0  0  0  0  0  0  0
    0.5394    4.3053    0.7147 C   0  0  0  0  0  0  0  0  0  0  0  0
   -0.2735    0.8777   -1.1293 C   0  0  0  0  0  0  0  0  0  0  0  0
   -0.4437    0.6444    0.5733 S   0  0  0  0  0  0  0  0  0  0  0  0
    0.1309    2.5072   -4.4104 C   0  0  0  0  0  0  0  0  0  0  0  0
   -0.4718    3.7801   -4.4482 C   0  0  0  0  0  0  0  0  0  0  0  0
   -0.1230    4.7889   -5.4293 C   0  0  0  0  0  0  0  0  0  0  0  0
   -0.8200    5.9131   -5.2382 N   0  0  0  0  0  0  0  0  0  0  0  0
   -1.8200    5.7111   -3.9968 S   0  0  0  0  0  4  0  0  0  0  0  0
   -1.4203    4.2080   -3.6112 N   0  0  0  0  0  0  0  0  0  0  0  0
    0.8503    4.5571   -6.4214 C   0  0  0  0  0  0  0  0  0  0  0  0
    1.3408    3.2395   -6.4625 C   0  0  0  0  0  0  0  0  0  0  0  0
    2.2300    2.7760   -7.3439 N   0  0  0  0  0  0  0  0  0  0  0  0
    2.5601    1.2408   -7.0052 S   0  0  0  0  0  0  0  0  0  0  0  0
    1.6114    1.0736   -5.7238 N   0  0  0  0  0  0  0  0  0  0  0  0
    0.9703    2.2233   -5.5000 C   0  0  0  0  0  0  0  0  0  0  0  0
    1.3503    5.5660   -7.2944 C   0  0  0  0  0  0  0  0  0  0  0  0
    0.9333    6.8802   -7.4013 C   0  0  0  0  0  0  0  0  0  0  0  0
    1.6705    7.6163   -8.3244 C   0  0  0  0  0  0  0  0  0  0  0  0
    2.6587    6.8687   -8.9310 C   0  0  0  0  0  0  0  0  0  0  0  0
    3.5617    7.3143   -9.8933 C   0  0  0  0  0  0  0  0  0  0  0  0
    4.3011    7.7004  -10.6838 N   0  0  0  0  0  0  0  0  0  0  0  0
    2.6743    5.2271   -8.3614 S   0  0  0  0  0  0  0  0  0  0  0  0
   -2.7647   -5.9648   12.1191 H   0  0  0  0  0  0  0  0  0  0  0  0
   -2.8584   -6.3183    9.5587 H   0  0  0  0  0  0  0  0  0  0  0  0
   -0.8059   -2.3750    7.9858 H   0  0  0  0  0  0  0  0  0  0  0  0
    0.8993   -0.5841    5.0223 H   0  0  0  0  0  0  0  0  0  0  0  0
    0.4802   -1.0467    6.6780 H   0  0  0  0  0  0  0  0  0  0  0  0
   -0.2923    1.2741    6.1845 H   0  0  0  0  0  0  0  0  0  0  0  0
   -1.2495    0.6750    4.8265 H   0  0  0  0  0  0  0  0  0  0  0  0
   -1.6762    0.2136    6.4777 H   0  0  0  0  0  0  0  0  0  0  0  0
   -3.1517   -5.5878    4.9907 H   0  0  0  0  0  0  0  0  0  0  0  0
   -3.2249   -5.8673    7.4265 H   0  0  0  0  0  0  0  0  0  0  0  0
   -2.8088   -4.6203    2.4094 H   0  0  0  0  0  0  0  0  0  0  0  0
   -2.2255   -3.2850    0.4361 H   0  0  0  0  0  0  0  0  0  0  0  0
    0.0588   -0.5725    2.8350 H   0  0  0  0  0  0  0  0  0  0  0  0
   -1.2944   -5.2972   -1.3681 H   0  0  0  0  0  0  0  0  0  0  0  0
   -0.2697   -7.0700   -0.0610 H   0  0  0  0  0  0  0  0  0  0  0  0
    1.7614   -9.3212    1.9643 H   0  0  0  0  0  0  0  0  0  0  0  0
    0.1967   -8.5197    1.7078 H   0  0  0  0  0  0  0  0  0  0  0  0
    1.3275   -8.7592    0.3350 H   0  0  0  0  0  0  0  0  0  0  0  0
    2.6280   -4.3003    1.4287 H   0  0  0  0  0  0  0  0  0  0  0  0
    1.6062   -2.5139    0.0890 H   0  0  0  0  0  0  0  0  0  0  0  0
    0.3812   -4.4202   -3.3139 H   0  0  0  0  0  0  0  0  0  0  0  0
   -0.6360   -4.8397   -5.5182 H   0  0  0  0  0  0  0  0  0  0  0  0
   -4.5166   -2.7532   -8.1036 H   0  0  0  0  0  0  0  0  0  0  0  0
   -3.7839   -1.6340   -6.9316 H   0  0  0  0  0  0  0  0  0  0  0  0
   -5.0295   -2.8133   -6.4044 H   0  0  0  0  0  0  0  0  0  0  0  0
   -3.7689   -2.0791   -4.5917 H   0  0  0  0  0  0  0  0  0  0  0  0
   -2.7715   -1.6797   -2.4079 H   0  0  0  0  0  0  0  0  0  0  0  0
    2.4815    2.5377   -2.8151 H   0  0  0  0  0  0  0  0  0  0  0  0
    3.8192    4.0149   -4.2562 H   0  0  0  0  0  0  0  0  0  0  0  0
    3.0670    8.8214   -3.9153 H   0  0  0  0  0  0  0  0  0  0  0  0
    3.4282    8.9246   -5.6524 H   0  0  0  0  0  0  0  0  0  0  0  0
    1.8594    8.2737   -5.1279 H   0  0  0  0  0  0  0  0  0  0  0  0
    1.4638    7.3575   -3.0065 H   0  0  0  0  0  0  0  0  0  0  0  0
    0.1223    5.8875   -1.6013 H   0  0  0  0  0  0  0  0  0  0  0  0
   -2.2110    2.9304   -0.6895 H   0  0  0  0  0  0  0  0  0  0  0  0
   -3.1444    3.4824    1.5002 H   0  0  0  0  0  0  0  0  0  0  0  0
   -3.6976    3.8818    5.0957 H   0  0  0  0  0  0  0  0  0  0  0  0
   -3.2733    2.7611    3.7812 H   0  0  0  0  0  0  0  0  0  0  0  0
   -4.1810    4.2680    3.4313 H   0  0  0  0  0  0  0  0  0  0  0  0
    0.6295    5.1052    2.6930 H   0  0  0  0  0  0  0  0  0  0  0  0
    1.5690    4.5347    0.4839 H   0  0  0  0  0  0  0  0  0  0  0  0
    0.1121    7.2653   -6.8250 H   0  0  0  0  0  0  0  0  0  0  0  0
    1.5010    8.6546   -8.5502 H   0  0  0  0  0  0  0  0  0  0  0  0
  1  2  3  0  0  0  0
  2  3  1  0  0  0  0
  3  4  2  0  0  0  0
  4  5  1  0  0  0  0
  5  6  2  0  0  0  0
  6  7  1  0  0  0  0
  6  8  1  0  0  0  0
  8  9  2  0  0  0  0
  9 10  1  0  0  0  0
 10 11  1  0  0  0  0
 11 12  1  0  0  0  0
 12 13  1  0  0  0  0
 11 14  1  0  0  0  0
 14 15  2  0  0  0  0
 15 16  1  0  0  0  0
 16 17  1  0  0  0  0
 17 18  2  0  0  0  0
 15 19  1  0  0  0  0
 19 20  2  0  0  0  0
 20 21  1  0  0  0  0
 21 22  2  0  0  0  0
 21 23  1  0  0  0  0
 23 24  2  0  0  0  0
 24 25  1  0  0  0  0
 25 26  1  0  0  0  0
 26 27  2  0  0  0  0
 27 28  1  0  0  0  0
 28 29  2  0  0  0  0
 29 30  1  0  0  0  0
 30 31  1  0  0  0  0
 29 32  1  0  0  0  0
 32 33  2  0  0  0  0
 25 34  1  0  0  0  0
 34 35  2  0  0  0  0
 35 36  1  0  0  0  0
 36 37  2  0  0  0  0
 37 38  1  0  0  0  0
 38 39  1  0  0  0  0
 37 40  1  0  0  0  0
 40 41  2  0  0  0  0
 24 42  1  0  0  0  0
 42 43  1  0  0  0  0
 43 44  1  0  0  0  0
 44 45  2  0  0  0  0
 45 46  1  0  0  0  0
 46 47  1  0  0  0  0
 47 48  2  0  0  0  0
 48 49  1  0  0  0  0
 49 50  2  0  0  0  0
 50 51  1  0  0  0  0
 51 52  1  0  0  0  0
 50 53  1  0  0  0  0
 53 54  2  0  0  0  0
 46 55  1  0  0  0  0
 55 56  2  0  0  0  0
 56 57  1  0  0  0  0
 57 58  2  0  0  0  0
 58 59  1  0  0  0  0
 59 60  1  0  0  0  0
 58 61  1  0  0  0  0
 61 62  2  0  0  0  0
 45 63  1  0  0  0  0
 63 64  1  0  0  0  0
 44 65  1  0  0  0  0
 65 66  2  0  0  0  0
 66 67  1  0  0  0  0
 67 68  1  0  0  0  0
 68 69  2  0  0  0  0
 69 70  2  0  0  0  0
 67 71  2  0  0  0  0
 71 72  1  0  0  0  0
 72 73  2  0  0  0  0
 73 74  1  0  0  0  0
 74 75  1  0  0  0  0
 75 76  2  0  0  0  0
 71 77  1  0  0  0  0
 77 78  2  0  0  0  0
 78 79  1  0  0  0  0
 79 80  2  0  0  0  0
 80 81  1  0  0  0  0
 81 82  3  0  0  0  0
 80 83  1  0  0  0  0
  7  3  1  0  0  0  0
 18  8  1  0  0  0  0
 64 23  1  0  0  0  0
 76 65  1  0  0  0  0
 83 77  1  0  0  0  0
 16 10  2  0  0  0  0
 33 26  1  0  0  0  0
 41 34  1  0  0  0  0
 63 42  2  0  0  0  0
 70 66  1  0  0  0  0
 76 72  1  0  0  0  0
 22 14  1  0  0  0  0
 54 47  1  0  0  0  0
 62 55  1  0  0  0  0
  4 84  1  0  0  0  0
  5 85  1  0  0  0  0
  9 86  1  0  0  0  0
 12 87  1  0  0  0  0
 12 88  1  0  0  0  0
 13 89  1  0  0  0  0
 13 90  1  0  0  0  0
 13 91  1  0  0  0  0
 17 92  1  0  0  0  0
 18 93  1  0  0  0  0
 19 94  1  0  0  0  0
 20 95  1  0  0  0  0
 22 96  1  0  0  0  0
 27 97  1  0  0  0  0
 28 98  1  0  0  0  0
 31 99  1  0  0  0  0
 31100  1  0  0  0  0
 31101  1  0  0  0  0
 32102  1  0  0  0  0
 33103  1  0  0  0  0
 35104  1  0  0  0  0
 36105  1  0  0  0  0
 39106  1  0  0  0  0
 39107  1  0  0  0  0
 39108  1  0  0  0  0
 40109  1  0  0  0  0
 41110  1  0  0  0  0
 48111  1  0  0  0  0
 49112  1  0  0  0  0
 52113  1  0  0  0  0
 52114  1  0  0  0  0
 52115  1  0  0  0  0
 53116  1  0  0  0  0
 54117  1  0  0  0  0
 56118  1  0  0  0  0
 57119  1  0  0  0  0
 60120  1  0  0  0  0
 60121  1  0  0  0  0
 60122  1  0  0  0  0
 61123  1  0  0  0  0
 62124  1  0  0  0  0
 78125  1  0  0  0  0
 79126  1  0  0  0  0
M  END
