186

C          5.12740       -4.03560        7.49840
C          5.80600       -3.00760        8.07490
C          5.72120       -1.55940        7.81420
O          5.03820       -0.96940        7.00080
C          6.74230       -0.93680        8.69390
C          7.04960        0.40000        8.86120
C          8.06950        0.73380        9.74280
C          8.76840       -0.24790       10.43110
C          8.46740       -1.59280       10.25890
C          7.44830       -1.92640        9.38690
C          6.93000       -3.25990        9.00220
O          7.35370       -4.34040        9.35560
C          4.03850       -3.93100        6.59270
C          3.90350       -4.83830        5.51990
C          3.03880       -4.56770        4.39010
N          3.09270       -5.54220        3.48070
S          4.12020       -6.66970        3.98100
N          4.57480       -5.97970        5.36190
C          2.24390       -3.40520        4.31410
C          2.15760       -2.67600        5.51750
N          1.34120       -1.64900        5.75600
S          1.64050       -1.08870        7.23570
N          2.81430       -2.09700        7.64360
C          3.05520       -2.92270        6.62770
C          1.62320       -2.94690        3.12040
C          2.12090       -2.99840        1.81480
N          3.38480       -3.42760        1.45170
C          3.52920       -4.16960        0.27390
C          2.50810       -5.01620       -0.14970
C          2.65010       -5.77860       -1.29130
C          3.82830       -5.72080       -2.02220
S          4.14610       -6.69010       -3.46160
C          2.52720       -7.40710       -3.86610
C          4.85270       -4.87210       -1.60550
C          4.70070       -4.09370       -0.48130
C          4.47100       -3.22870        2.31220
C          4.54370       -2.08020        3.10560
C          5.53890       -1.93640        4.04560
C          6.49890       -2.93320        4.21110
S          7.70580       -2.70870        5.47820
C          8.20450       -4.41700        5.84930
C          6.48150       -4.03940        3.37070
C          5.47850       -4.18450        2.43360
C          1.20650       -2.41120        0.91130
S          1.20660       -2.11830       -0.79910
C         -0.31900       -1.24650       -0.67220
C         -0.82900       -1.28170        0.62410
N         -2.09230       -0.83200        0.98540
C         -3.18640       -1.17170        0.17860
C         -4.23930       -0.27850        0.00440
C         -5.23320       -0.53110       -0.91940
C         -5.20080       -1.69390       -1.67630
S         -6.33960       -2.04620       -2.97890
C         -7.18210       -0.46380       -3.25490
C         -4.21110       -2.64270       -1.42380
C         -3.20830       -2.38110       -0.51600
C         -2.22870       -0.16350        2.20310
C         -1.18630        0.64390        2.65540
C         -1.23720        1.22640        3.90430
C         -2.34570        1.02790        4.71500
S         -2.46410        1.71710        6.34000
C         -0.71830        1.76880        6.84990
C         -3.41810        0.27870        4.24250
C         -3.36010       -0.31920        3.00290
C          0.06430       -1.90790        1.51720
S          0.09430       -2.10020        3.23480
C         -0.90730       -0.50950       -1.74140
C         -0.95850       -0.74490       -3.10750
N         -0.36630       -1.80060       -3.79820
C          1.02060       -1.94430       -3.79730
C          1.61150       -3.16500       -4.13190
C          2.98100       -3.29010       -4.15880
C          3.79780       -2.21370       -3.82070
S          5.54280       -2.46840       -3.89860
C          6.18930       -1.17600       -2.79630
C          3.21980       -1.00160       -3.47680
C          1.84560       -0.86810       -3.47210
C         -1.18210       -2.44140       -4.74560
C         -0.72680       -2.80050       -6.01410
C         -1.58600       -3.39610       -6.91060
C         -2.91830       -3.63370       -6.57480
S         -3.92320       -4.39610       -7.80790
C         -5.58790       -4.36900       -7.08460
C         -3.37850       -3.26790       -5.31740
C         -2.51350       -2.68180       -4.41670
C         -1.75360        0.22440       -3.76400
S         -2.19550        0.45120       -5.41260
C         -3.12140        1.90020       -4.98530
C         -2.98130        2.23440       -3.62300
N         -3.36580        3.39440       -3.01580
C         -3.53770        3.41100       -1.60010
C         -2.56270        3.96930       -0.78560
C         -2.73530        4.00460        0.58650
C         -3.90030        3.50270        1.15220
S         -4.24280        3.47420        2.87910
C         -2.81780        4.30230        3.63030
C         -4.89310        2.97520        0.32520
C         -4.71100        2.92020       -1.03880
C         -3.58890        4.59700       -3.69150
C         -2.81400        4.96280       -4.79190
C         -3.10480        6.09920       -5.51460
C         -4.17900        6.90240       -5.14680
S         -4.70690        8.28790       -6.09440
C         -4.07590        7.89570       -7.75360
C         -4.88170        6.60620       -3.98230
C         -4.59220        5.46830       -3.26140
C         -2.24380        1.23100       -2.94800
S         -1.72940        0.99560       -1.31300
C         -3.82890        2.52040       -6.02360
C         -4.92910        3.32970       -5.89580
C         -5.87280        3.36140       -4.78230
O         -5.91050        2.60710       -3.82190
C         -6.87610        4.39810       -5.12790
C         -7.95550        4.85920       -4.40130
C         -8.72140        5.88470       -4.94310
C         -8.41980        6.42230       -6.18510
C         -7.34310        5.94910       -6.92520
C         -6.57690        4.93550       -6.38540
C         -5.36880        4.26910       -6.93190
O         -4.81200        4.52440       -7.98300
H          5.50970       -5.03640        7.67620
H          6.50380        1.15700        8.31890
H          8.32520        1.77240        9.89450
H          9.55980        0.03940       11.10800
H          9.00930       -2.36290       10.78660
H          1.60810       -5.10050        0.44010
H          1.84320       -6.43070       -1.58340
H          2.24140       -8.13930       -3.11640
H          2.65570       -7.89720       -4.82620
H          1.78700       -6.61710       -3.94960
H          5.76220       -4.82630       -2.18320
H          5.49340       -3.42790       -0.17390
H          3.79760       -1.30730        2.99600
H          5.56580       -1.06690        4.68300
H          8.65680       -4.39270        6.83590
H          8.92960       -4.76550        5.11950
H          7.32150       -5.04900        5.86510
H          7.23620       -4.80540        3.45060
H          5.45550       -5.06680        1.81110
H         -4.25170        0.63870        0.57070
H         -6.01620        0.19610       -1.05330
H         -7.77480       -0.60230       -4.15430
H         -7.83860       -0.24050       -2.41860
H         -6.45590        0.32940       -3.41120
H         -4.23380       -3.58270       -1.95440
H         -2.42710       -3.10890       -0.35370
H         -0.32810        0.80920        2.02060
H         -0.40660        1.82840        4.23870
H         -0.22450        0.86410        6.50770
H         -0.72060        1.80770        7.93450
H         -0.23160        2.65600        6.45430
H         -4.28680        0.15100        4.86910
H         -4.17850       -0.93340        2.65980
H          0.98390       -4.01010       -4.37050
H          3.44180       -4.22270       -4.44240
H          5.61430       -1.17180       -1.87540
H          7.22070       -1.44620       -2.59270
H          6.15680       -0.20670       -3.28540
H          3.82720       -0.14570       -3.22940
H          1.40760        0.08840       -3.22810
H          0.29250       -2.59330       -6.30210
H         -1.23760       -3.67000       -7.89460
H         -6.24620       -4.76380       -7.85220
H         -5.62540       -5.00450       -6.20470
H         -5.86880       -3.34810       -6.84390
H         -4.40200       -3.42690       -5.01950
H         -2.87680       -2.39560       -3.44150
H         -1.66220        4.37040       -1.22680
H         -1.95770        4.42890        1.20000
H         -2.99710        4.26700        4.70070
H         -1.91080        3.75560        3.39150
H         -2.76670        5.33350        3.29270
H         -5.80740        2.61640        0.77410
H         -5.47030        2.52270       -1.69310
H         -1.98300        4.34300       -5.09310
H         -2.49860        6.34410       -6.37120
H         -4.27710        6.85220       -7.98100
H         -3.01380        8.11500       -7.81530
H         -4.62030        8.54070       -8.43620
H         -5.68310        7.25860       -3.67160
H         -5.16720        5.22880       -2.38040
H         -3.46380        2.34500       -7.03060
H         -8.18430        4.44050       -3.43280
H         -9.56260        6.27170       -4.38690
H         -9.02970        7.21990       -6.58230
H         -7.10680        6.35840       -7.89560
