
  xtb     02082200443D
 energy: -320.119976395902 gnorm: 0.000776177508 xtb: 6.4.1 (unknown)
186204  0     0  0            999 V2000
    5.1274   -4.0356    7.4984 C   0  0  0  0  0  0  0  0  0  0  0  0
    5.8060   -3.0076    8.0749 C   0  0  0  0  0  0  0  0  0  0  0  0
    5.7212   -1.5594    7.8142 C   0  0  0  0  0  0  0  0  0  0  0  0
    5.0382   -0.9694    7.0008 O   0  0  0  0  0  0  0  0  0  0  0  0
    6.7423   -0.9368    8.6939 C   0  0  0  0  0  0  0  0  0  0  0  0
    7.0496    0.4000    8.8612 C   0  0  0  0  0  0  0  0  0  0  0  0
    8.0695    0.7338    9.7428 C   0  0  0  0  0  0  0  0  0  0  0  0
    8.7684   -0.2479   10.4311 C   0  0  0  0  0  0  0  0  0  0  0  0
    8.4674   -1.5928   10.2589 C   0  0  0  0  0  0  0  0  0  0  0  0
    7.4483   -1.9264    9.3869 C   0  0  0  0  0  0  0  0  0  0  0  0
    6.9300   -3.2599    9.0022 C   0  0  0  0  0  0  0  0  0  0  0  0
    7.3537   -4.3404    9.3556 O   0  0  0  0  0  0  0  0  0  0  0  0
    4.0385   -3.9310    6.5927 C   0  0  0  0  0  0  0  0  0  0  0  0
    3.9035   -4.8383    5.5199 C   0  0  0  0  0  0  0  0  0  0  0  0
    3.0388   -4.5677    4.3901 C   0  0  0  0  0  0  0  0  0  0  0  0
    3.0927   -5.5422    3.4807 N   0  0  0  0  0  0  0  0  0  0  0  0
    4.1202   -6.6697    3.9810 S   0  0  0  0  0  4  0  0  0  0  0  0
    4.5748   -5.9797    5.3619 N   0  0  0  0  0  0  0  0  0  0  0  0
    2.2439   -3.4052    4.3141 C   0  0  0  0  0  0  0  0  0  0  0  0
    2.1576   -2.6760    5.5175 C   0  0  0  0  0  0  0  0  0  0  0  0
    1.3412   -1.6490    5.7560 N   0  0  0  0  0  0  0  0  0  0  0  0
    1.6405   -1.0887    7.2357 S   0  0  0  0  0  0  0  0  0  0  0  0
    2.8143   -2.0970    7.6436 N   0  0  0  0  0  0  0  0  0  0  0  0
    3.0552   -2.9227    6.6277 C   0  0  0  0  0  0  0  0  0  0  0  0
    1.6232   -2.9469    3.1204 C   0  0  0  0  0  0  0  0  0  0  0  0
    2.1209   -2.9984    1.8148 C   0  0  0  0  0  0  0  0  0  0  0  0
    3.3848   -3.4276    1.4517 N   0  0  0  0  0  0  0  0  0  0  0  0
    3.5292   -4.1696    0.2739 C   0  0  0  0  0  0  0  0  0  0  0  0
    2.5081   -5.0162   -0.1497 C   0  0  0  0  0  0  0  0  0  0  0  0
    2.6501   -5.7786   -1.2913 C   0  0  0  0  0  0  0  0  0  0  0  0
    3.8283   -5.7208   -2.0222 C   0  0  0  0  0  0  0  0  0  0  0  0
    4.1461   -6.6901   -3.4616 S   0  0  0  0  0  0  0  0  0  0  0  0
    2.5272   -7.4071   -3.8661 C   0  0  0  0  0  0  0  0  0  0  0  0
    4.8527   -4.8721   -1.6055 C   0  0  0  0  0  0  0  0  0  0  0  0
    4.7007   -4.0937   -0.4813 C   0  0  0  0  0  0  0  0  0  0  0  0
    4.4710   -3.2287    2.3122 C   0  0  0  0  0  0  0  0  0  0  0  0
    4.5437   -2.0802    3.1056 C   0  0  0  0  0  0  0  0  0  0  0  0
    5.5389   -1.9364    4.0456 C   0  0  0  0  0  0  0  0  0  0  0  0
    6.4989   -2.9332    4.2111 C   0  0  0  0  0  0  0  0  0  0  0  0
    7.7058   -2.7087    5.4782 S   0  0  0  0  0  0  0  0  0  0  0  0
    8.2045   -4.4170    5.8493 C   0  0  0  0  0  0  0  0  0  0  0  0
    6.4815   -4.0394    3.3707 C   0  0  0  0  0  0  0  0  0  0  0  0
    5.4785   -4.1845    2.4336 C   0  0  0  0  0  0  0  0  0  0  0  0
    1.2065   -2.4112    0.9113 C   0  0  0  0  0  0  0  0  0  0  0  0
    1.2066   -2.1183   -0.7991 S   0  0  0  0  0  0  0  0  0  0  0  0
   -0.3190   -1.2465   -0.6722 C   0  0  0  0  0  0  0  0  0  0  0  0
   -0.8290   -1.2817    0.6241 C   0  0  0  0  0  0  0  0  0  0  0  0
   -2.0923   -0.8320    0.9854 N   0  0  0  0  0  0  0  0  0  0  0  0
   -3.1864   -1.1717    0.1786 C   0  0  0  0  0  0  0  0  0  0  0  0
   -4.2393   -0.2785    0.0044 C   0  0  0  0  0  0  0  0  0  0  0  0
   -5.2332   -0.5311   -0.9194 C   0  0  0  0  0  0  0  0  0  0  0  0
   -5.2008   -1.6939   -1.6763 C   0  0  0  0  0  0  0  0  0  0  0  0
   -6.3396   -2.0462   -2.9789 S   0  0  0  0  0  0  0  0  0  0  0  0
   -7.1821   -0.4638   -3.2549 C   0  0  0  0  0  0  0  0  0  0  0  0
   -4.2111   -2.6427   -1.4238 C   0  0  0  0  0  0  0  0  0  0  0  0
   -3.2083   -2.3811   -0.5160 C   0  0  0  0  0  0  0  0  0  0  0  0
   -2.2287   -0.1635    2.2031 C   0  0  0  0  0  0  0  0  0  0  0  0
   -1.1863    0.6439    2.6554 C   0  0  0  0  0  0  0  0  0  0  0  0
   -1.2372    1.2264    3.9043 C   0  0  0  0  0  0  0  0  0  0  0  0
   -2.3457    1.0279    4.7150 C   0  0  0  0  0  0  0  0  0  0  0  0
   -2.4641    1.7171    6.3400 S   0  0  0  0  0  0  0  0  0  0  0  0
   -0.7183    1.7688    6.8499 C   0  0  0  0  0  0  0  0  0  0  0  0
   -3.4181    0.2787    4.2425 C   0  0  0  0  0  0  0  0  0  0  0  0
   -3.3601   -0.3192    3.0029 C   0  0  0  0  0  0  0  0  0  0  0  0
    0.0643   -1.9079    1.5172 C   0  0  0  0  0  0  0  0  0  0  0  0
    0.0943   -2.1002    3.2348 S   0  0  0  0  0  0  0  0  0  0  0  0
   -0.9073   -0.5095   -1.7414 C   0  0  0  0  0  0  0  0  0  0  0  0
   -0.9585   -0.7449   -3.1075 C   0  0  0  0  0  0  0  0  0  0  0  0
   -0.3663   -1.8006   -3.7982 N   0  0  0  0  0  0  0  0  0  0  0  0
    1.0206   -1.9443   -3.7973 C   0  0  0  0  0  0  0  0  0  0  0  0
    1.6115   -3.1650   -4.1319 C   0  0  0  0  0  0  0  0  0  0  0  0
    2.9810   -3.2901   -4.1588 C   0  0  0  0  0  0  0  0  0  0  0  0
    3.7978   -2.2137   -3.8207 C   0  0  0  0  0  0  0  0  0  0  0  0
    5.5428   -2.4684   -3.8986 S   0  0  0  0  0  0  0  0  0  0  0  0
    6.1893   -1.1760   -2.7963 C   0  0  0  0  0  0  0  0  0  0  0  0
    3.2198   -1.0016   -3.4768 C   0  0  0  0  0  0  0  0  0  0  0  0
    1.8456   -0.8681   -3.4721 C   0  0  0  0  0  0  0  0  0  0  0  0
   -1.1821   -2.4414   -4.7456 C   0  0  0  0  0  0  0  0  0  0  0  0
   -0.7268   -2.8005   -6.0141 C   0  0  0  0  0  0  0  0  0  0  0  0
   -1.5860   -3.3961   -6.9106 C   0  0  0  0  0  0  0  0  0  0  0  0
   -2.9183   -3.6337   -6.5748 C   0  0  0  0  0  0  0  0  0  0  0  0
   -3.9232   -4.3961   -7.8079 S   0  0  0  0  0  0  0  0  0  0  0  0
   -5.5879   -4.3690   -7.0846 C   0  0  0  0  0  0  0  0  0  0  0  0
   -3.3785   -3.2679   -5.3174 C   0  0  0  0  0  0  0  0  0  0  0  0
   -2.5135   -2.6818   -4.4167 C   0  0  0  0  0  0  0  0  0  0  0  0
   -1.7536    0.2244   -3.7640 C   0  0  0  0  0  0  0  0  0  0  0  0
   -2.1955    0.4512   -5.4126 S   0  0  0  0  0  0  0  0  0  0  0  0
   -3.1214    1.9002   -4.9853 C   0  0  0  0  0  0  0  0  0  0  0  0
   -2.9813    2.2344   -3.6230 C   0  0  0  0  0  0  0  0  0  0  0  0
   -3.3658    3.3944   -3.0158 N   0  0  0  0  0  0  0  0  0  0  0  0
   -3.5377    3.4110   -1.6001 C   0  0  0  0  0  0  0  0  0  0  0  0
   -2.5627    3.9693   -0.7856 C   0  0  0  0  0  0  0  0  0  0  0  0
   -2.7353    4.0046    0.5865 C   0  0  0  0  0  0  0  0  0  0  0  0
   -3.9003    3.5027    1.1522 C   0  0  0  0  0  0  0  0  0  0  0  0
   -4.2428    3.4742    2.8791 S   0  0  0  0  0  0  0  0  0  0  0  0
   -2.8178    4.3023    3.6303 C   0  0  0  0  0  0  0  0  0  0  0  0
   -4.8931    2.9752    0.3252 C   0  0  0  0  0  0  0  0  0  0  0  0
   -4.7110    2.9202   -1.0388 C   0  0  0  0  0  0  0  0  0  0  0  0
   -3.5889    4.5970   -3.6915 C   0  0  0  0  0  0  0  0  0  0  0  0
   -2.8140    4.9628   -4.7919 C   0  0  0  0  0  0  0  0  0  0  0  0
   -3.1048    6.0992   -5.5146 C   0  0  0  0  0  0  0  0  0  0  0  0
   -4.1790    6.9024   -5.1468 C   0  0  0  0  0  0  0  0  0  0  0  0
   -4.7069    8.2879   -6.0944 S   0  0  0  0  0  0  0  0  0  0  0  0
   -4.0759    7.8957   -7.7536 C   0  0  0  0  0  0  0  0  0  0  0  0
   -4.8817    6.6062   -3.9823 C   0  0  0  0  0  0  0  0  0  0  0  0
   -4.5922    5.4683   -3.2614 C   0  0  0  0  0  0  0  0  0  0  0  0
   -2.2438    1.2310   -2.9480 C   0  0  0  0  0  0  0  0  0  0  0  0
   -1.7294    0.9956   -1.3130 S   0  0  0  0  0  0  0  0  0  0  0  0
   -3.8289    2.5204   -6.0236 C   0  0  0  0  0  0  0  0  0  0  0  0
   -4.9291    3.3297   -5.8958 C   0  0  0  0  0  0  0  0  0  0  0  0
   -5.8728    3.3614   -4.7823 C   0  0  0  0  0  0  0  0  0  0  0  0
   -5.9105    2.6071   -3.8219 O   0  0  0  0  0  0  0  0  0  0  0  0
   -6.8761    4.3981   -5.1279 C   0  0  0  0  0  0  0  0  0  0  0  0
   -7.9555    4.8592   -4.4013 C   0  0  0  0  0  0  0  0  0  0  0  0
   -8.7214    5.8847   -4.9431 C   0  0  0  0  0  0  0  0  0  0  0  0
   -8.4198    6.4223   -6.1851 C   0  0  0  0  0  0  0  0  0  0  0  0
   -7.3431    5.9491   -6.9252 C   0  0  0  0  0  0  0  0  0  0  0  0
   -6.5769    4.9355   -6.3854 C   0  0  0  0  0  0  0  0  0  0  0  0
   -5.3688    4.2691   -6.9319 C   0  0  0  0  0  0  0  0  0  0  0  0
   -4.8120    4.5244   -7.9830 O   0  0  0  0  0  0  0  0  0  0  0  0
    5.5097   -5.0364    7.6762 H   0  0  0  0  0  0  0  0  0  0  0  0
    6.5038    1.1570    8.3189 H   0  0  0  0  0  0  0  0  0  0  0  0
    8.3252    1.7724    9.8945 H   0  0  0  0  0  0  0  0  0  0  0  0
    9.5598    0.0394   11.1080 H   0  0  0  0  0  0  0  0  0  0  0  0
    9.0093   -2.3629   10.7866 H   0  0  0  0  0  0  0  0  0  0  0  0
    1.6081   -5.1005    0.4401 H   0  0  0  0  0  0  0  0  0  0  0  0
    1.8432   -6.4307   -1.5834 H   0  0  0  0  0  0  0  0  0  0  0  0
    2.2414   -8.1393   -3.1164 H   0  0  0  0  0  0  0  0  0  0  0  0
    2.6557   -7.8972   -4.8262 H   0  0  0  0  0  0  0  0  0  0  0  0
    1.7870   -6.6171   -3.9496 H   0  0  0  0  0  0  0  0  0  0  0  0
    5.7622   -4.8263   -2.1832 H   0  0  0  0  0  0  0  0  0  0  0  0
    5.4934   -3.4279   -0.1739 H   0  0  0  0  0  0  0  0  0  0  0  0
    3.7976   -1.3073    2.9960 H   0  0  0  0  0  0  0  0  0  0  0  0
    5.5658   -1.0669    4.6830 H   0  0  0  0  0  0  0  0  0  0  0  0
    8.6568   -4.3927    6.8359 H   0  0  0  0  0  0  0  0  0  0  0  0
    8.9296   -4.7655    5.1195 H   0  0  0  0  0  0  0  0  0  0  0  0
    7.3215   -5.0490    5.8651 H   0  0  0  0  0  0  0  0  0  0  0  0
    7.2362   -4.8054    3.4506 H   0  0  0  0  0  0  0  0  0  0  0  0
    5.4555   -5.0668    1.8111 H   0  0  0  0  0  0  0  0  0  0  0  0
   -4.2517    0.6387    0.5707 H   0  0  0  0  0  0  0  0  0  0  0  0
   -6.0162    0.1961   -1.0533 H   0  0  0  0  0  0  0  0  0  0  0  0
   -7.7748   -0.6023   -4.1543 H   0  0  0  0  0  0  0  0  0  0  0  0
   -7.8386   -0.2405   -2.4186 H   0  0  0  0  0  0  0  0  0  0  0  0
   -6.4559    0.3294   -3.4112 H   0  0  0  0  0  0  0  0  0  0  0  0
   -4.2338   -3.5827   -1.9544 H   0  0  0  0  0  0  0  0  0  0  0  0
   -2.4271   -3.1089   -0.3537 H   0  0  0  0  0  0  0  0  0  0  0  0
   -0.3281    0.8092    2.0206 H   0  0  0  0  0  0  0  0  0  0  0  0
   -0.4066    1.8284    4.2387 H   0  0  0  0  0  0  0  0  0  0  0  0
   -0.2245    0.8641    6.5077 H   0  0  0  0  0  0  0  0  0  0  0  0
   -0.7206    1.8077    7.9345 H   0  0  0  0  0  0  0  0  0  0  0  0
   -0.2316    2.6560    6.4543 H   0  0  0  0  0  0  0  0  0  0  0  0
   -4.2868    0.1510    4.8691 H   0  0  0  0  0  0  0  0  0  0  0  0
   -4.1785   -0.9334    2.6598 H   0  0  0  0  0  0  0  0  0  0  0  0
    0.9839   -4.0101   -4.3705 H   0  0  0  0  0  0  0  0  0  0  0  0
    3.4418   -4.2227   -4.4424 H   0  0  0  0  0  0  0  0  0  0  0  0
    5.6143   -1.1718   -1.8754 H   0  0  0  0  0  0  0  0  0  0  0  0
    7.2207   -1.4462   -2.5927 H   0  0  0  0  0  0  0  0  0  0  0  0
    6.1568   -0.2067   -3.2854 H   0  0  0  0  0  0  0  0  0  0  0  0
    3.8272   -0.1457   -3.2294 H   0  0  0  0  0  0  0  0  0  0  0  0
    1.4076    0.0884   -3.2281 H   0  0  0  0  0  0  0  0  0  0  0  0
    0.2925   -2.5933   -6.3021 H   0  0  0  0  0  0  0  0  0  0  0  0
   -1.2376   -3.6700   -7.8946 H   0  0  0  0  0  0  0  0  0  0  0  0
   -6.2462   -4.7638   -7.8522 H   0  0  0  0  0  0  0  0  0  0  0  0
   -5.6254   -5.0045   -6.2047 H   0  0  0  0  0  0  0  0  0  0  0  0
   -5.8688   -3.3481   -6.8439 H   0  0  0  0  0  0  0  0  0  0  0  0
   -4.4020   -3.4269   -5.0195 H   0  0  0  0  0  0  0  0  0  0  0  0
   -2.8768   -2.3956   -3.4415 H   0  0  0  0  0  0  0  0  0  0  0  0
   -1.6622    4.3704   -1.2268 H   0  0  0  0  0  0  0  0  0  0  0  0
   -1.9577    4.4289    1.2000 H   0  0  0  0  0  0  0  0  0  0  0  0
   -2.9971    4.2670    4.7007 H   0  0  0  0  0  0  0  0  0  0  0  0
   -1.9108    3.7556    3.3915 H   0  0  0  0  0  0  0  0  0  0  0  0
   -2.7667    5.3335    3.2927 H   0  0  0  0  0  0  0  0  0  0  0  0
   -5.8074    2.6164    0.7741 H   0  0  0  0  0  0  0  0  0  0  0  0
   -5.4703    2.5227   -1.6931 H   0  0  0  0  0  0  0  0  0  0  0  0
   -1.9830    4.3430   -5.0931 H   0  0  0  0  0  0  0  0  0  0  0  0
   -2.4986    6.3441   -6.3712 H   0  0  0  0  0  0  0  0  0  0  0  0
   -4.2771    6.8522   -7.9810 H   0  0  0  0  0  0  0  0  0  0  0  0
   -3.0138    8.1150   -7.8153 H   0  0  0  0  0  0  0  0  0  0  0  0
   -4.6203    8.5407   -8.4362 H   0  0  0  0  0  0  0  0  0  0  0  0
   -5.6831    7.2586   -3.6716 H   0  0  0  0  0  0  0  0  0  0  0  0
   -5.1672    5.2288   -2.3804 H   0  0  0  0  0  0  0  0  0  0  0  0
   -3.4638    2.3450   -7.0306 H   0  0  0  0  0  0  0  0  0  0  0  0
   -8.1843    4.4405   -3.4328 H   0  0  0  0  0  0  0  0  0  0  0  0
   -9.5626    6.2717   -4.3869 H   0  0  0  0  0  0  0  0  0  0  0  0
   -9.0297    7.2199   -6.5823 H   0  0  0  0  0  0  0  0  0  0  0  0
   -7.1068    6.3584   -7.8956 H   0  0  0  0  0  0  0  0  0  0  0  0
  1  2  2  0  0  0  0
  2  3  1  0  0  0  0
  3  4  2  0  0  0  0
  3  5  1  0  0  0  0
  5  6  2  0  0  0  0
  6  7  1  0  0  0  0
  7  8  2  0  0  0  0
  8  9  1  0  0  0  0
  9 10  2  0  0  0  0
 10 11  1  0  0  0  0
 11 12  2  0  0  0  0
  1 13  1  0  0  0  0
 13 14  2  0  0  0  0
 14 15  1  0  0  0  0
 15 16  1  0  0  0  0
 16 17  2  0  0  0  0
 17 18  2  0  0  0  0
 15 19  2  0  0  0  0
 19 20  1  0  0  0  0
 20 21  2  0  0  0  0
 21 22  1  0  0  0  0
 22 23  1  0  0  0  0
 23 24  2  0  0  0  0
 19 25  1  0  0  0  0
 25 26  2  0  0  0  0
 26 27  1  0  0  0  0
 27 28  1  0  0  0  0
 28 29  2  0  0  0  0
 29 30  1  0  0  0  0
 30 31  2  0  0  0  0
 31 32  1  0  0  0  0
 32 33  1  0  0  0  0
 31 34  1  0  0  0  0
 34 35  2  0  0  0  0
 27 36  1  0  0  0  0
 36 37  2  0  0  0  0
 37 38  1  0  0  0  0
 38 39  2  0  0  0  0
 39 40  1  0  0  0  0
 40 41  1  0  0  0  0
 39 42  1  0  0  0  0
 42 43  2  0  0  0  0
 26 44  1  0  0  0  0
 44 45  1  0  0  0  0
 45 46  1  0  0  0  0
 46 47  2  0  0  0  0
 47 48  1  0  0  0  0
 48 49  1  0  0  0  0
 49 50  2  0  0  0  0
 50 51  1  0  0  0  0
 51 52  2  0  0  0  0
 52 53  1  0  0  0  0
 53 54  1  0  0  0  0
 52 55  1  0  0  0  0
 55 56  2  0  0  0  0
 48 57  1  0  0  0  0
 57 58  2  0  0  0  0
 58 59  1  0  0  0  0
 59 60  2  0  0  0  0
 60 61  1  0  0  0  0
 61 62  1  0  0  0  0
 60 63  1  0  0  0  0
 63 64  2  0  0  0  0
 47 65  1  0  0  0  0
 65 66  1  0  0  0  0
 46 67  1  0  0  0  0
 67 68  2  0  0  0  0
 68 69  1  0  0  0  0
 69 70  1  0  0  0  0
 70 71  2  0  0  0  0
 71 72  1  0  0  0  0
 72 73  2  0  0  0  0
 73 74  1  0  0  0  0
 74 75  1  0  0  0  0
 73 76  1  0  0  0  0
 76 77  2  0  0  0  0
 69 78  1  0  0  0  0
 78 79  2  0  0  0  0
 79 80  1  0  0  0  0
 80 81  2  0  0  0  0
 81 82  1  0  0  0  0
 82 83  1  0  0  0  0
 81 84  1  0  0  0  0
 84 85  2  0  0  0  0
 68 86  1  0  0  0  0
 86 87  1  0  0  0  0
 87 88  1  0  0  0  0
 88 89  2  0  0  0  0
 89 90  1  0  0  0  0
 90 91  1  0  0  0  0
 91 92  2  0  0  0  0
 92 93  1  0  0  0  0
 93 94  2  0  0  0  0
 94 95  1  0  0  0  0
 95 96  1  0  0  0  0
 94 97  1  0  0  0  0
 97 98  2  0  0  0  0
 90 99  1  0  0  0  0
 99100  2  0  0  0  0
100101  1  0  0  0  0
101102  2  0  0  0  0
102103  1  0  0  0  0
103104  1  0  0  0  0
102105  1  0  0  0  0
105106  2  0  0  0  0
 89107  1  0  0  0  0
107108  1  0  0  0  0
 88109  1  0  0  0  0
109110  2  0  0  0  0
110111  1  0  0  0  0
111112  2  0  0  0  0
111113  1  0  0  0  0
113114  2  0  0  0  0
114115  1  0  0  0  0
115116  2  0  0  0  0
116117  1  0  0  0  0
117118  2  0  0  0  0
118119  1  0  0  0  0
119120  2  0  0  0  0
 11  2  1  0  0  0  0
 24 13  1  0  0  0  0
 66 25  1  0  0  0  0
108 67  1  0  0  0  0
119110  1  0  0  0  0
 10  5  1  0  0  0  0
 18 14  1  0  0  0  0
 24 20  1  0  0  0  0
 35 28  1  0  0  0  0
 43 36  1  0  0  0  0
 65 44  2  0  0  0  0
 77 70  1  0  0  0  0
 85 78  1  0  0  0  0
107 86  2  0  0  0  0
118113  1  0  0  0  0
 56 49  1  0  0  0  0
 64 57  1  0  0  0  0
 98 91  1  0  0  0  0
106 99  1  0  0  0  0
  1121  1  0  0  0  0
  6122  1  0  0  0  0
  7123  1  0  0  0  0
  8124  1  0  0  0  0
  9125  1  0  0  0  0
 29126  1  0  0  0  0
 30127  1  0  0  0  0
 33128  1  0  0  0  0
 33129  1  0  0  0  0
 33130  1  0  0  0  0
 34131  1  0  0  0  0
 35132  1  0  0  0  0
 37133  1  0  0  0  0
 38134  1  0  0  0  0
 41135  1  0  0  0  0
 41136  1  0  0  0  0
 41137  1  0  0  0  0
 42138  1  0  0  0  0
 43139  1  0  0  0  0
 50140  1  0  0  0  0
 51141  1  0  0  0  0
 54142  1  0  0  0  0
 54143  1  0  0  0  0
 54144  1  0  0  0  0
 55145  1  0  0  0  0
 56146  1  0  0  0  0
 58147  1  0  0  0  0
 59148  1  0  0  0  0
 62149  1  0  0  0  0
 62150  1  0  0  0  0
 62151  1  0  0  0  0
 63152  1  0  0  0  0
 64153  1  0  0  0  0
 71154  1  0  0  0  0
 72155  1  0  0  0  0
 75156  1  0  0  0  0
 75157  1  0  0  0  0
 75158  1  0  0  0  0
 76159  1  0  0  0  0
 77160  1  0  0  0  0
 79161  1  0  0  0  0
 80162  1  0  0  0  0
 83163  1  0  0  0  0
 83164  1  0  0  0  0
 83165  1  0  0  0  0
 84166  1  0  0  0  0
 85167  1  0  0  0  0
 92168  1  0  0  0  0
 93169  1  0  0  0  0
 96170  1  0  0  0  0
 96171  1  0  0  0  0
 96172  1  0  0  0  0
 97173  1  0  0  0  0
 98174  1  0  0  0  0
100175  1  0  0  0  0
101176  1  0  0  0  0
104177  1  0  0  0  0
104178  1  0  0  0  0
104179  1  0  0  0  0
105180  1  0  0  0  0
106181  1  0  0  0  0
109182  1  0  0  0  0
114183  1  0  0  0  0
115184  1  0  0  0  0
116185  1  0  0  0  0
117186  1  0  0  0  0
M  END
