155

C          3.18120        3.76330        9.67710
C          4.50350        4.11210        9.75040
C          5.52360        4.15420        8.71050
O          5.40520        3.87820        7.52880
C          6.76870        4.61080        9.37870
C          8.02400        4.82250        8.84260
C          9.03270        5.26270        9.69110
C          8.78690        5.48400       11.03830
C          7.52470        5.27090       11.57980
C          6.52050        4.83270       10.73890
C          5.09790        4.52660       11.03330
O          4.53630        4.60030       12.10710
C          2.40270        3.36610        8.58380
C          1.03190        3.02930        8.65450
C          0.32810        2.91750        9.97080
C          0.70660        1.61240       10.67730
C          0.50270        2.73960        7.40320
C          1.48860        2.81190        6.40070
S          3.03560        3.26620        6.94820
C          0.93040        2.43730        5.16100
C         -0.41350        2.13560        5.34580
C         -0.83520        2.33900        6.78860
C         -1.38810        0.98610        7.30070
C         -2.39550        1.00020        8.44290
C         -1.86540        3.49510        6.73870
C         -2.09440        4.30570        8.00730
C         -1.05080        1.76350        4.16990
C         -0.18380        1.75720        3.08880
S          1.44330        2.23140        3.53570
C         -0.44440        1.35310        1.74260
C          0.61340        1.10070        0.83620
N          1.93340        1.27520        0.97840
N          2.44200        0.84170       -0.14240
C          3.84910        0.91350       -0.41470
C          4.10700        1.82710       -1.60780
N          1.60090        0.37520       -1.02280
C          0.40210        0.52740       -0.44860
C         -0.88380        0.16900       -0.90380
C         -1.91430        0.58010       -0.06720
C         -1.70720        1.12700        1.20300
F         -2.81100        1.42070        1.91760
F         -3.18960        0.45010       -0.48500
C         -1.07790       -0.60600       -2.09320
C         -1.99480       -1.63190       -2.30080
N         -2.78050       -2.20400       -1.32140
C         -3.98130       -2.83210       -1.68620
C         -4.80770       -2.26000       -2.64920
C         -5.93600       -2.92420       -3.08420
C         -6.25490       -4.16730       -2.55640
S         -7.64250       -5.10050       -3.12390
C         -7.68650       -4.63640       -4.88180
C         -5.47180       -4.70810       -1.54160
C         -4.34170       -4.04920       -1.11050
C         -2.36500       -2.21460        0.01850
C         -1.02460       -2.39290        0.35560
C         -0.59740       -2.24680        1.66060
C         -1.50960       -1.93050        2.65880
S         -1.06230       -1.61310        4.33730
C          0.74350       -1.44940        4.28190
C         -2.86400       -1.84610        2.34210
C         -3.28880       -1.98810        1.04020
C         -1.91930       -2.10410       -3.63800
S         -2.80570       -3.27360       -4.54680
C         -1.78610       -2.96980       -5.95650
C         -0.76120       -2.03530       -5.67690
N          0.25930       -1.70680       -6.53190
C          0.76720       -2.66910       -7.43060
C          1.03700       -3.96420       -6.99220
C          1.38790       -4.93920       -7.90010
C          1.47320       -4.63230       -9.25390
S          1.78950       -5.94260      -10.39740
C          0.63090       -5.50410      -11.73040
C          1.29820       -3.32120       -9.67850
C          0.95190       -2.34150       -8.77070
C          0.90100       -0.46430       -6.43210
C          2.28650       -0.38340       -6.53030
C          2.93170        0.82960       -6.39240
C          2.19770        1.98430       -6.15410
S          2.90940        3.58010       -5.91230
C          4.69880        3.27270       -5.93900
C          0.80680        1.91250       -6.09730
C          0.16300        0.70430       -6.23860
C         -0.89630       -1.51760       -4.37620
S         -0.00520       -0.35130       -3.45240
C         -2.02270       -3.54730       -7.20420
C         -2.96240       -4.46000       -7.60940
C         -4.06240       -5.07000       -6.87870
O         -4.42330       -4.84880       -5.73360
C         -4.71020       -6.01010       -7.82890
C         -5.78760       -6.85170       -7.63430
C         -6.20700       -7.63710       -8.70200
C         -5.56140       -7.57890       -9.92790
C         -4.47260       -6.73690      -10.12400
C         -4.05460       -5.95430       -9.06590
C         -2.93830       -4.98020       -8.98270
O         -2.15040       -4.68760       -9.86370
H          2.66800        3.82300       10.63200
H          8.20610        4.64860        7.79300
H         10.02320        5.43610        9.29640
H          9.58890        5.82750       11.67520
H          7.32520        5.44090       12.62680
H          0.58200        3.76470       10.61060
H         -0.74570        2.93630        9.80950
H          1.77400        1.57590       10.88020
H          0.44730        0.75720       10.05730
H          0.17240        1.53070       11.62110
H         -0.53310        0.36800        7.58530
H         -1.86700        0.49230        6.45240
H         -2.71600       -0.02270        8.63180
H         -1.97100        1.38810        9.36260
H         -3.27610        1.58100        8.18360
H         -2.81110        3.07430        6.39300
H         -1.52230        4.19230        5.96930
H         -1.16470        4.74960        8.35330
H         -2.52530        3.70930        8.80480
H         -2.78970        5.11320        7.78450
H         -2.08540        1.48810        4.09320
H          4.21180       -0.09520       -0.63220
H          4.32570        1.29090        0.49130
H          5.16840        1.84060       -1.83860
H          3.78370        2.84140       -1.38730
H          3.55550        1.46430       -2.47200
H         -4.56260       -1.28880       -3.05230
H         -6.55930       -2.46800       -3.83620
H         -8.26190       -5.40740       -5.38520
H         -8.17730       -3.67580       -5.01060
H         -6.66600       -4.61280       -5.25400
H         -5.74330       -5.66220       -1.11700
H         -3.71530       -4.48520       -0.34620
H         -0.30430       -2.62650       -0.41480
H          0.44940       -2.37800        1.88430
H          1.03260       -1.05240        5.25010
H          1.02560       -0.75090        3.49980
H          1.20490       -2.42100        4.12950
H         -3.57450       -1.63250        3.12540
H         -4.33350       -1.87600        0.79460
H          0.92720       -4.20600       -5.94550
H          1.57200       -5.95120       -7.57490
H         -0.30360       -5.17740      -11.28300
H          0.47860       -6.41160      -12.30600
H          1.05570       -4.73370      -12.36730
H          1.40650       -3.06630      -10.72050
H          0.78250       -1.32640       -9.09880
H          2.86180       -1.28130       -6.70120
H          4.00690        0.85630       -6.46280
H          5.16170        4.23360       -5.73730
H          5.00350        2.91730       -6.91900
H          4.96410        2.56470       -5.15940
H          0.24070        2.81710       -5.93830
H         -0.91460        0.65610       -6.20070
H         -1.36510       -3.23250       -8.00680
H         -6.28120       -6.89830       -6.67560
H         -7.04760       -8.30330       -8.57490
H         -5.90880       -8.19850      -10.74150
H         -3.96360       -6.68880      -11.07470
