
  xtb     02152211403D
 energy: -308.146755465342 gnorm: 0.000564190593 xtb: 6.4.1 (unknown)
184200  0     0  0            999 V2000
    3.0962   -8.5351    5.2087 C   0  0  0  0  0  0  0  0  0  0  0  0
    4.3781   -8.8890    4.9967 C   0  0  0  0  0  0  0  0  0  0  0  0
    5.4115   -8.2185    4.1738 C   0  0  0  0  0  0  0  0  0  0  0  0
    5.3053   -7.2157    3.5016 O   0  0  0  0  0  0  0  0  0  0  0  0
    6.6131   -9.0824    4.2707 C   0  0  0  0  0  0  0  0  0  0  0  0
    7.8669   -8.8969    3.7161 C   0  0  0  0  0  0  0  0  0  0  0  0
    8.8346   -9.8665    3.9398 C   0  0  0  0  0  0  0  0  0  0  0  0
    8.5539  -10.9956    4.6980 C   0  0  0  0  0  0  0  0  0  0  0  0
    7.2985  -11.1843    5.2593 C   0  0  0  0  0  0  0  0  0  0  0  0
    6.3328  -10.2188    5.0399 C   0  0  0  0  0  0  0  0  0  0  0  0
    4.9330  -10.1663    5.5159 C   0  0  0  0  0  0  0  0  0  0  0  0
    4.3512  -10.9820    6.1931 O   0  0  0  0  0  0  0  0  0  0  0  0
    2.4564   -7.3259    4.7411 C   0  0  0  0  0  0  0  0  0  0  0  0
    3.0540   -6.0634    4.8078 C   0  0  0  0  0  0  0  0  0  0  0  0
    4.1850   -5.9034    5.5132 F   0  0  0  0  0  0  0  0  0  0  0  0
    2.4891   -4.9559    4.2154 C   0  0  0  0  0  0  0  0  0  0  0  0
    1.2900   -5.0858    3.5162 C   0  0  0  0  0  0  0  0  0  0  0  0
    0.6142   -6.3098    3.5549 C   0  0  0  0  0  0  0  0  0  0  0  0
    1.1858   -7.4018    4.1639 C   0  0  0  0  0  0  0  0  0  0  0  0
    0.7734   -3.9880    2.7257 C   0  0  0  0  0  0  0  0  0  0  0  0
    0.2322   -4.0704    1.4567 C   0  0  0  0  0  0  0  0  0  0  0  0
    0.0952   -5.2298    0.7006 N   0  0  0  0  0  0  0  0  0  0  0  0
   -1.1026   -5.4246    0.0076 C   0  0  0  0  0  0  0  0  0  0  0  0
   -2.3021   -4.9490    0.5386 C   0  0  0  0  0  0  0  0  0  0  0  0
   -3.4870   -5.1265   -0.1446 C   0  0  0  0  0  0  0  0  0  0  0  0
   -3.4925   -5.7884   -1.3628 C   0  0  0  0  0  0  0  0  0  0  0  0
   -5.0409   -6.0365   -2.2086 S   0  0  0  0  0  0  0  0  0  0  0  0
   -4.7224   -5.0422   -3.6992 C   0  0  0  0  0  0  0  0  0  0  0  0
   -2.3060   -6.2765   -1.8925 C   0  0  0  0  0  0  0  0  0  0  0  0
   -1.1172   -6.0886   -1.2191 C   0  0  0  0  0  0  0  0  0  0  0  0
    1.0887   -6.2181    0.7425 C   0  0  0  0  0  0  0  0  0  0  0  0
    2.4310   -5.8601    0.8392 C   0  0  0  0  0  0  0  0  0  0  0  0
    3.4124   -6.8199    0.9770 C   0  0  0  0  0  0  0  0  0  0  0  0
    3.0687   -8.1647    1.0030 C   0  0  0  0  0  0  0  0  0  0  0  0
    4.2429   -9.4661    1.2284 S   0  0  0  0  0  0  0  0  0  0  0  0
    5.8066   -8.6955    0.7211 C   0  0  0  0  0  0  0  0  0  0  0  0
    1.7322   -8.5314    0.8711 C   0  0  0  0  0  0  0  0  0  0  0  0
    0.7518   -7.5719    0.7456 C   0  0  0  0  0  0  0  0  0  0  0  0
   -0.1251   -2.7855    0.9744 C   0  0  0  0  0  0  0  0  0  0  0  0
   -0.8289   -2.2035   -0.4923 S   0  0  0  0  0  0  0  0  0  0  0  0
   -0.7194   -0.5508    0.0952 C   0  0  0  0  0  0  0  0  0  0  0  0
   -0.2287   -0.4732    1.3824 C   0  0  0  0  0  0  0  0  0  0  0  0
   -0.1979    0.6894    2.1424 N   0  0  0  0  0  0  0  0  0  0  0  0
   -1.3304    1.5179    2.1303 C   0  0  0  0  0  0  0  0  0  0  0  0
   -1.2210    2.9043    2.2418 C   0  0  0  0  0  0  0  0  0  0  0  0
   -2.3371    3.7026    2.1316 C   0  0  0  0  0  0  0  0  0  0  0  0
   -3.5961    3.1415    1.9308 C   0  0  0  0  0  0  0  0  0  0  0  0
   -4.9543    4.2584    1.7522 S   0  0  0  0  0  0  0  0  0  0  0  0
   -6.2525    3.2140    1.0337 C   0  0  0  0  0  0  0  0  0  0  0  0
   -3.7233    1.7611    1.8972 C   0  0  0  0  0  0  0  0  0  0  0  0
   -2.6006    0.9620    1.9940 C   0  0  0  0  0  0  0  0  0  0  0  0
    0.9147    0.9415    2.9493 C   0  0  0  0  0  0  0  0  0  0  0  0
    2.1611    0.4245    2.5947 C   0  0  0  0  0  0  0  0  0  0  0  0
    3.2673    0.6662    3.3776 C   0  0  0  0  0  0  0  0  0  0  0  0
    3.1638    1.4493    4.5217 C   0  0  0  0  0  0  0  0  0  0  0  0
    4.6454    1.7345    5.4433 S   0  0  0  0  0  0  0  0  0  0  0  0
    4.2562    3.2386    6.3831 C   0  0  0  0  0  0  0  0  0  0  0  0
    1.9231    1.9463    4.8947 C   0  0  0  0  0  0  0  0  0  0  0  0
    0.8094    1.6841    4.1232 C   0  0  0  0  0  0  0  0  0  0  0  0
    0.1436   -1.7572    1.8604 C   0  0  0  0  0  0  0  0  0  0  0  0
    0.8842   -2.3384    3.3083 S   0  0  0  0  0  0  0  0  0  0  0  0
   -1.1543    0.5546   -0.7239 C   0  0  0  0  0  0  0  0  0  0  0  0
   -0.3709    1.5661   -1.2293 C   0  0  0  0  0  0  0  0  0  0  0  0
    1.0394    1.5487   -1.2079 N   0  0  0  0  0  0  0  0  0  0  0  0
    1.6491    1.0471   -2.3698 C   0  0  0  0  0  0  0  0  0  0  0  0
    1.1451   -0.0899   -2.9951 C   0  0  0  0  0  0  0  0  0  0  0  0
    1.7355   -0.5950   -4.1388 C   0  0  0  0  0  0  0  0  0  0  0  0
    2.8456    0.0314   -4.6836 C   0  0  0  0  0  0  0  0  0  0  0  0
    3.6955   -0.5225   -6.1317 S   0  0  0  0  0  0  0  0  0  0  0  0
    2.8174   -2.0409   -6.6006 C   0  0  0  0  0  0  0  0  0  0  0  0
    3.3412    1.1836   -4.0763 C   0  0  0  0  0  0  0  0  0  0  0  0
    2.7492    1.6898   -2.9421 C   0  0  0  0  0  0  0  0  0  0  0  0
    1.7568    2.3291   -0.2990 C   0  0  0  0  0  0  0  0  0  0  0  0
    3.0568    1.9637    0.0489 C   0  0  0  0  0  0  0  0  0  0  0  0
    3.7700    2.6793    0.9887 C   0  0  0  0  0  0  0  0  0  0  0  0
    3.1920    3.7767    1.6102 C   0  0  0  0  0  0  0  0  0  0  0  0
    3.9811    4.7282    2.8721 S   0  0  0  0  0  0  0  0  0  0  0  0
    5.6913    4.1199    2.8743 C   0  0  0  0  0  0  0  0  0  0  0  0
    1.9046    4.1607    1.2520 C   0  0  0  0  0  0  0  0  0  0  0  0
    1.1948    3.4497    0.3076 C   0  0  0  0  0  0  0  0  0  0  0  0
   -1.1461    2.5328   -1.9155 C   0  0  0  0  0  0  0  0  0  0  0  0
   -0.7869    4.0580   -2.6334 S   0  0  0  0  0  0  0  0  0  0  0  0
   -2.4972    4.2936   -3.0087 C   0  0  0  0  0  0  0  0  0  0  0  0
   -3.2911    3.2116   -2.5728 C   0  0  0  0  0  0  0  0  0  0  0  0
   -4.6592    3.0917   -2.7009 N   0  0  0  0  0  0  0  0  0  0  0  0
   -5.5107    4.2007   -2.5614 C   0  0  0  0  0  0  0  0  0  0  0  0
   -6.6303    4.3420   -3.3789 C   0  0  0  0  0  0  0  0  0  0  0  0
   -7.4004    5.4839   -3.3030 C   0  0  0  0  0  0  0  0  0  0  0  0
   -7.0581    6.5005   -2.4213 C   0  0  0  0  0  0  0  0  0  0  0  0
   -7.9963    8.0017   -2.4424 S   0  0  0  0  0  0  0  0  0  0  0  0
   -6.6393    9.2128   -2.4922 C   0  0  0  0  0  0  0  0  0  0  0  0
   -5.9846    6.3317   -1.5552 C   0  0  0  0  0  0  0  0  0  0  0  0
   -5.2202    5.1876   -1.6195 C   0  0  0  0  0  0  0  0  0  0  0  0
   -5.1907    1.8341   -3.0259 C   0  0  0  0  0  0  0  0  0  0  0  0
   -6.4047    1.4079   -2.4867 C   0  0  0  0  0  0  0  0  0  0  0  0
   -6.9337    0.1880   -2.8457 C   0  0  0  0  0  0  0  0  0  0  0  0
   -6.2651   -0.6346   -3.7491 C   0  0  0  0  0  0  0  0  0  0  0  0
   -7.0270   -2.1718   -4.1709 S   0  0  0  0  0  0  0  0  0  0  0  0
   -6.3645   -2.4991   -5.8331 C   0  0  0  0  0  0  0  0  0  0  0  0
   -5.0450   -0.2254   -4.2705 C   0  0  0  0  0  0  0  0  0  0  0  0
   -4.5180    0.9998   -3.9168 C   0  0  0  0  0  0  0  0  0  0  0  0
   -2.4994    2.2260   -1.9571 C   0  0  0  0  0  0  0  0  0  0  0  0
   -2.8460    0.7279   -1.1598 S   0  0  0  0  0  0  0  0  0  0  0  0
   -2.9877    5.4408   -3.6448 C   0  0  0  0  0  0  0  0  0  0  0  0
   -2.3548    6.6007   -3.9968 C   0  0  0  0  0  0  0  0  0  0  0  0
   -0.9443    6.9644   -3.9051 C   0  0  0  0  0  0  0  0  0  0  0  0
   -0.0166    6.2695   -3.5312 O   0  0  0  0  0  0  0  0  0  0  0  0
   -0.8567    8.3700   -4.3734 C   0  0  0  0  0  0  0  0  0  0  0  0
    0.2496    9.1891   -4.4871 C   0  0  0  0  0  0  0  0  0  0  0  0
    0.0602   10.4843   -4.9541 C   0  0  0  0  0  0  0  0  0  0  0  0
   -1.2039   10.9430   -5.2953 C   0  0  0  0  0  0  0  0  0  0  0  0
   -2.3191   10.1217   -5.1787 C   0  0  0  0  0  0  0  0  0  0  0  0
   -2.1337    8.8328   -4.7177 C   0  0  0  0  0  0  0  0  0  0  0  0
   -3.1250    7.7539   -4.4884 C   0  0  0  0  0  0  0  0  0  0  0  0
   -4.3318    7.8235   -4.6222 O   0  0  0  0  0  0  0  0  0  0  0  0
    2.4684   -9.2544    5.7257 H   0  0  0  0  0  0  0  0  0  0  0  0
    8.0845   -8.0143    3.1337 H   0  0  0  0  0  0  0  0  0  0  0  0
    9.8217   -9.7414    3.5194 H   0  0  0  0  0  0  0  0  0  0  0  0
    9.3254  -11.7351    4.8538 H   0  0  0  0  0  0  0  0  0  0  0  0
    7.0706  -12.0569    5.8520 H   0  0  0  0  0  0  0  0  0  0  0  0
    2.9999   -4.0065    4.2651 H   0  0  0  0  0  0  0  0  0  0  0  0
   -0.3623   -6.3946    3.1045 H   0  0  0  0  0  0  0  0  0  0  0  0
    0.6760   -8.3532    4.1549 H   0  0  0  0  0  0  0  0  0  0  0  0
   -2.3020   -4.4475    1.4956 H   0  0  0  0  0  0  0  0  0  0  0  0
   -4.4160   -4.7637    0.2669 H   0  0  0  0  0  0  0  0  0  0  0  0
   -5.6322   -5.0862   -4.2881 H   0  0  0  0  0  0  0  0  0  0  0  0
   -4.5160   -4.0188   -3.3997 H   0  0  0  0  0  0  0  0  0  0  0  0
   -3.8891   -5.4590   -4.2571 H   0  0  0  0  0  0  0  0  0  0  0  0
   -2.3134   -6.8055   -2.8338 H   0  0  0  0  0  0  0  0  0  0  0  0
   -0.1917   -6.4597   -1.6333 H   0  0  0  0  0  0  0  0  0  0  0  0
    2.7081   -4.8166    0.8231 H   0  0  0  0  0  0  0  0  0  0  0  0
    4.4366   -6.5067    1.0854 H   0  0  0  0  0  0  0  0  0  0  0  0
    6.0848   -7.9258    1.4342 H   0  0  0  0  0  0  0  0  0  0  0  0
    5.6969   -8.2870   -0.2791 H   0  0  0  0  0  0  0  0  0  0  0  0
    6.5443   -9.4919    0.7239 H   0  0  0  0  0  0  0  0  0  0  0  0
    1.4702   -9.5781    0.8857 H   0  0  0  0  0  0  0  0  0  0  0  0
   -0.2836   -7.8678    0.6648 H   0  0  0  0  0  0  0  0  0  0  0  0
   -0.2533    3.3507    2.3962 H   0  0  0  0  0  0  0  0  0  0  0  0
   -2.2441    4.7764    2.1900 H   0  0  0  0  0  0  0  0  0  0  0  0
   -5.8305    2.6230    0.2266 H   0  0  0  0  0  0  0  0  0  0  0  0
   -6.6919    2.5777    1.7969 H   0  0  0  0  0  0  0  0  0  0  0  0
   -7.0021    3.8972    0.6454 H   0  0  0  0  0  0  0  0  0  0  0  0
   -4.6872    1.2901    1.7924 H   0  0  0  0  0  0  0  0  0  0  0  0
   -2.7171   -0.1112    1.9568 H   0  0  0  0  0  0  0  0  0  0  0  0
    2.2659   -0.1503    1.6877 H   0  0  0  0  0  0  0  0  0  0  0  0
    4.2280    0.2600    3.1003 H   0  0  0  0  0  0  0  0  0  0  0  0
    3.8261    3.9765    5.7121 H   0  0  0  0  0  0  0  0  0  0  0  0
    5.2029    3.5962    6.7760 H   0  0  0  0  0  0  0  0  0  0  0  0
    3.5839    3.0077    7.2044 H   0  0  0  0  0  0  0  0  0  0  0  0
    1.8075    2.5303    5.7935 H   0  0  0  0  0  0  0  0  0  0  0  0
   -0.1531    2.0534    4.4425 H   0  0  0  0  0  0  0  0  0  0  0  0
    0.2823   -0.5953   -2.5884 H   0  0  0  0  0  0  0  0  0  0  0  0
    1.3154   -1.4810   -4.5874 H   0  0  0  0  0  0  0  0  0  0  0  0
    2.8738   -2.7665   -5.7944 H   0  0  0  0  0  0  0  0  0  0  0  0
    1.7865   -1.8121   -6.8554 H   0  0  0  0  0  0  0  0  0  0  0  0
    3.3370   -2.4199   -7.4751 H   0  0  0  0  0  0  0  0  0  0  0  0
    4.1908    1.6839   -4.5151 H   0  0  0  0  0  0  0  0  0  0  0  0
    3.1294    2.5965   -2.4975 H   0  0  0  0  0  0  0  0  0  0  0  0
    3.5101    1.1017   -0.4179 H   0  0  0  0  0  0  0  0  0  0  0  0
    4.7686    2.3600    1.2380 H   0  0  0  0  0  0  0  0  0  0  0  0
    6.1085    4.2017    1.8751 H   0  0  0  0  0  0  0  0  0  0  0  0
    5.7237    3.0974    3.2398 H   0  0  0  0  0  0  0  0  0  0  0  0
    6.2327    4.7697    3.5549 H   0  0  0  0  0  0  0  0  0  0  0  0
    1.4691    5.0326    1.7175 H   0  0  0  0  0  0  0  0  0  0  0  0
    0.2015    3.7690    0.0353 H   0  0  0  0  0  0  0  0  0  0  0  0
   -6.8686    3.5746   -4.1002 H   0  0  0  0  0  0  0  0  0  0  0  0
   -8.2503    5.6127   -3.9544 H   0  0  0  0  0  0  0  0  0  0  0  0
   -5.8987    8.8712   -3.2104 H   0  0  0  0  0  0  0  0  0  0  0  0
   -7.0807   10.1486   -2.8198 H   0  0  0  0  0  0  0  0  0  0  0  0
   -6.2022    9.3368   -1.5057 H   0  0  0  0  0  0  0  0  0  0  0  0
   -5.7417    7.0916   -0.8295 H   0  0  0  0  0  0  0  0  0  0  0  0
   -4.3773    5.0650   -0.9565 H   0  0  0  0  0  0  0  0  0  0  0  0
   -6.9406    2.0462   -1.8003 H   0  0  0  0  0  0  0  0  0  0  0  0
   -7.8757   -0.1396   -2.4343 H   0  0  0  0  0  0  0  0  0  0  0  0
   -5.3373   -2.8479   -5.7773 H   0  0  0  0  0  0  0  0  0  0  0  0
   -6.4406   -1.5975   -6.4329 H   0  0  0  0  0  0  0  0  0  0  0  0
   -6.9927   -3.2782   -6.2535 H   0  0  0  0  0  0  0  0  0  0  0  0
   -4.5011   -0.8491   -4.9620 H   0  0  0  0  0  0  0  0  0  0  0  0
   -3.5805    1.3210   -4.3466 H   0  0  0  0  0  0  0  0  0  0  0  0
   -4.0488    5.4395   -3.8710 H   0  0  0  0  0  0  0  0  0  0  0  0
    1.2290    8.8245   -4.2174 H   0  0  0  0  0  0  0  0  0  0  0  0
    0.9091   11.1447   -5.0522 H   0  0  0  0  0  0  0  0  0  0  0  0
   -1.3226   11.9540   -5.6563 H   0  0  0  0  0  0  0  0  0  0  0  0
   -3.3056   10.4718   -5.4420 H   0  0  0  0  0  0  0  0  0  0  0  0
  1  2  2  0  0  0  0
  2  3  1  0  0  0  0
  3  4  2  0  0  0  0
  3  5  1  0  0  0  0
  5  6  2  0  0  0  0
  6  7  1  0  0  0  0
  7  8  2  0  0  0  0
  8  9  1  0  0  0  0
  9 10  2  0  0  0  0
 10 11  1  0  0  0  0
 11 12  2  0  0  0  0
  1 13  1  0  0  0  0
 13 14  2  0  0  0  0
 14 15  1  0  0  0  0
 14 16  1  0  0  0  0
 16 17  2  0  0  0  0
 17 18  1  0  0  0  0
 18 19  2  0  0  0  0
 17 20  1  0  0  0  0
 20 21  2  0  0  0  0
 21 22  1  0  0  0  0
 22 23  1  0  0  0  0
 23 24  2  0  0  0  0
 24 25  1  0  0  0  0
 25 26  2  0  0  0  0
 26 27  1  0  0  0  0
 27 28  1  0  0  0  0
 26 29  1  0  0  0  0
 29 30  2  0  0  0  0
 22 31  1  0  0  0  0
 31 32  2  0  0  0  0
 32 33  1  0  0  0  0
 33 34  2  0  0  0  0
 34 35  1  0  0  0  0
 35 36  1  0  0  0  0
 34 37  1  0  0  0  0
 37 38  2  0  0  0  0
 21 39  1  0  0  0  0
 39 40  1  0  0  0  0
 40 41  1  0  0  0  0
 41 42  2  0  0  0  0
 42 43  1  0  0  0  0
 43 44  1  0  0  0  0
 44 45  2  0  0  0  0
 45 46  1  0  0  0  0
 46 47  2  0  0  0  0
 47 48  1  0  0  0  0
 48 49  1  0  0  0  0
 47 50  1  0  0  0  0
 50 51  2  0  0  0  0
 43 52  1  0  0  0  0
 52 53  2  0  0  0  0
 53 54  1  0  0  0  0
 54 55  2  0  0  0  0
 55 56  1  0  0  0  0
 56 57  1  0  0  0  0
 55 58  1  0  0  0  0
 58 59  2  0  0  0  0
 42 60  1  0  0  0  0
 60 61  1  0  0  0  0
 41 62  1  0  0  0  0
 62 63  2  0  0  0  0
 63 64  1  0  0  0  0
 64 65  1  0  0  0  0
 65 66  2  0  0  0  0
 66 67  1  0  0  0  0
 67 68  2  0  0  0  0
 68 69  1  0  0  0  0
 69 70  1  0  0  0  0
 68 71  1  0  0  0  0
 71 72  2  0  0  0  0
 64 73  1  0  0  0  0
 73 74  2  0  0  0  0
 74 75  1  0  0  0  0
 75 76  2  0  0  0  0
 76 77  1  0  0  0  0
 77 78  1  0  0  0  0
 76 79  1  0  0  0  0
 79 80  2  0  0  0  0
 63 81  1  0  0  0  0
 81 82  1  0  0  0  0
 82 83  1  0  0  0  0
 83 84  2  0  0  0  0
 84 85  1  0  0  0  0
 85 86  1  0  0  0  0
 86 87  2  0  0  0  0
 87 88  1  0  0  0  0
 88 89  2  0  0  0  0
 89 90  1  0  0  0  0
 90 91  1  0  0  0  0
 89 92  1  0  0  0  0
 92 93  2  0  0  0  0
 85 94  1  0  0  0  0
 94 95  2  0  0  0  0
 95 96  1  0  0  0  0
 96 97  2  0  0  0  0
 97 98  1  0  0  0  0
 98 99  1  0  0  0  0
 97100  1  0  0  0  0
100101  2  0  0  0  0
 84102  1  0  0  0  0
102103  1  0  0  0  0
 83104  1  0  0  0  0
104105  2  0  0  0  0
105106  1  0  0  0  0
106107  2  0  0  0  0
106108  1  0  0  0  0
108109  2  0  0  0  0
109110  1  0  0  0  0
110111  2  0  0  0  0
111112  1  0  0  0  0
112113  2  0  0  0  0
113114  1  0  0  0  0
114115  2  0  0  0  0
 11  2  1  0  0  0  0
 19 13  1  0  0  0  0
 61 20  1  0  0  0  0
103 62  1  0  0  0  0
114105  1  0  0  0  0
 10  5  1  0  0  0  0
 30 23  1  0  0  0  0
 38 31  1  0  0  0  0
 60 39  2  0  0  0  0
 72 65  1  0  0  0  0
 80 73  1  0  0  0  0
102 81  2  0  0  0  0
113108  1  0  0  0  0
 51 44  1  0  0  0  0
 59 52  1  0  0  0  0
 93 86  1  0  0  0  0
101 94  1  0  0  0  0
  1116  1  0  0  0  0
  6117  1  0  0  0  0
  7118  1  0  0  0  0
  8119  1  0  0  0  0
  9120  1  0  0  0  0
 16121  1  0  0  0  0
 18122  1  0  0  0  0
 19123  1  0  0  0  0
 24124  1  0  0  0  0
 25125  1  0  0  0  0
 28126  1  0  0  0  0
 28127  1  0  0  0  0
 28128  1  0  0  0  0
 29129  1  0  0  0  0
 30130  1  0  0  0  0
 32131  1  0  0  0  0
 33132  1  0  0  0  0
 36133  1  0  0  0  0
 36134  1  0  0  0  0
 36135  1  0  0  0  0
 37136  1  0  0  0  0
 38137  1  0  0  0  0
 45138  1  0  0  0  0
 46139  1  0  0  0  0
 49140  1  0  0  0  0
 49141  1  0  0  0  0
 49142  1  0  0  0  0
 50143  1  0  0  0  0
 51144  1  0  0  0  0
 53145  1  0  0  0  0
 54146  1  0  0  0  0
 57147  1  0  0  0  0
 57148  1  0  0  0  0
 57149  1  0  0  0  0
 58150  1  0  0  0  0
 59151  1  0  0  0  0
 66152  1  0  0  0  0
 67153  1  0  0  0  0
 70154  1  0  0  0  0
 70155  1  0  0  0  0
 70156  1  0  0  0  0
 71157  1  0  0  0  0
 72158  1  0  0  0  0
 74159  1  0  0  0  0
 75160  1  0  0  0  0
 78161  1  0  0  0  0
 78162  1  0  0  0  0
 78163  1  0  0  0  0
 79164  1  0  0  0  0
 80165  1  0  0  0  0
 87166  1  0  0  0  0
 88167  1  0  0  0  0
 91168  1  0  0  0  0
 91169  1  0  0  0  0
 91170  1  0  0  0  0
 92171  1  0  0  0  0
 93172  1  0  0  0  0
 95173  1  0  0  0  0
 96174  1  0  0  0  0
 99175  1  0  0  0  0
 99176  1  0  0  0  0
 99177  1  0  0  0  0
100178  1  0  0  0  0
101179  1  0  0  0  0
104180  1  0  0  0  0
109181  1  0  0  0  0
110182  1  0  0  0  0
111183  1  0  0  0  0
112184  1  0  0  0  0
M  END
