184

C          3.09620       -8.53510        5.20870
C          4.37810       -8.88900        4.99670
C          5.41150       -8.21850        4.17380
O          5.30530       -7.21570        3.50160
C          6.61310       -9.08240        4.27070
C          7.86690       -8.89690        3.71610
C          8.83460       -9.86650        3.93980
C          8.55390      -10.99560        4.69800
C          7.29850      -11.18430        5.25930
C          6.33280      -10.21880        5.03990
C          4.93300      -10.16630        5.51590
O          4.35120      -10.98200        6.19310
C          2.45640       -7.32590        4.74110
C          3.05400       -6.06340        4.80780
F          4.18500       -5.90340        5.51320
C          2.48910       -4.95590        4.21540
C          1.29000       -5.08580        3.51620
C          0.61420       -6.30980        3.55490
C          1.18580       -7.40180        4.16390
C          0.77340       -3.98800        2.72570
C          0.23220       -4.07040        1.45670
N          0.09520       -5.22980        0.70060
C         -1.10260       -5.42460        0.00760
C         -2.30210       -4.94900        0.53860
C         -3.48700       -5.12650       -0.14460
C         -3.49250       -5.78840       -1.36280
S         -5.04090       -6.03650       -2.20860
C         -4.72240       -5.04220       -3.69920
C         -2.30600       -6.27650       -1.89250
C         -1.11720       -6.08860       -1.21910
C          1.08870       -6.21810        0.74250
C          2.43100       -5.86010        0.83920
C          3.41240       -6.81990        0.97700
C          3.06870       -8.16470        1.00300
S          4.24290       -9.46610        1.22840
C          5.80660       -8.69550        0.72110
C          1.73220       -8.53140        0.87110
C          0.75180       -7.57190        0.74560
C         -0.12510       -2.78550        0.97440
S         -0.82890       -2.20350       -0.49230
C         -0.71940       -0.55080        0.09520
C         -0.22870       -0.47320        1.38240
N         -0.19790        0.68940        2.14240
C         -1.33040        1.51790        2.13030
C         -1.22100        2.90430        2.24180
C         -2.33710        3.70260        2.13160
C         -3.59610        3.14150        1.93080
S         -4.95430        4.25840        1.75220
C         -6.25250        3.21400        1.03370
C         -3.72330        1.76110        1.89720
C         -2.60060        0.96200        1.99400
C          0.91470        0.94150        2.94930
C          2.16110        0.42450        2.59470
C          3.26730        0.66620        3.37760
C          3.16380        1.44930        4.52170
S          4.64540        1.73450        5.44330
C          4.25620        3.23860        6.38310
C          1.92310        1.94630        4.89470
C          0.80940        1.68410        4.12320
C          0.14360       -1.75720        1.86040
S          0.88420       -2.33840        3.30830
C         -1.15430        0.55460       -0.72390
C         -0.37090        1.56610       -1.22930
N          1.03940        1.54870       -1.20790
C          1.64910        1.04710       -2.36980
C          1.14510       -0.08990       -2.99510
C          1.73550       -0.59500       -4.13880
C          2.84560        0.03140       -4.68360
S          3.69550       -0.52250       -6.13170
C          2.81740       -2.04090       -6.60060
C          3.34120        1.18360       -4.07630
C          2.74920        1.68980       -2.94210
C          1.75680        2.32910       -0.29900
C          3.05680        1.96370        0.04890
C          3.77000        2.67930        0.98870
C          3.19200        3.77670        1.61020
S          3.98110        4.72820        2.87210
C          5.69130        4.11990        2.87430
C          1.90460        4.16070        1.25200
C          1.19480        3.44970        0.30760
C         -1.14610        2.53280       -1.91550
S         -0.78690        4.05800       -2.63340
C         -2.49720        4.29360       -3.00870
C         -3.29110        3.21160       -2.57280
N         -4.65920        3.09170       -2.70090
C         -5.51070        4.20070       -2.56140
C         -6.63030        4.34200       -3.37890
C         -7.40040        5.48390       -3.30300
C         -7.05810        6.50050       -2.42130
S         -7.99630        8.00170       -2.44240
C         -6.63930        9.21280       -2.49220
C         -5.98460        6.33170       -1.55520
C         -5.22020        5.18760       -1.61950
C         -5.19070        1.83410       -3.02590
C         -6.40470        1.40790       -2.48670
C         -6.93370        0.18800       -2.84570
C         -6.26510       -0.63460       -3.74910
S         -7.02700       -2.17180       -4.17090
C         -6.36450       -2.49910       -5.83310
C         -5.04500       -0.22540       -4.27050
C         -4.51800        0.99980       -3.91680
C         -2.49940        2.22600       -1.95710
S         -2.84600        0.72790       -1.15980
C         -2.98770        5.44080       -3.64480
C         -2.35480        6.60070       -3.99680
C         -0.94430        6.96440       -3.90510
O         -0.01660        6.26950       -3.53120
C         -0.85670        8.37000       -4.37340
C          0.24960        9.18910       -4.48710
C          0.06020       10.48430       -4.95410
C         -1.20390       10.94300       -5.29530
C         -2.31910       10.12170       -5.17870
C         -2.13370        8.83280       -4.71770
C         -3.12500        7.75390       -4.48840
O         -4.33180        7.82350       -4.62220
H          2.46840       -9.25440        5.72570
H          8.08450       -8.01430        3.13370
H          9.82170       -9.74140        3.51940
H          9.32540      -11.73510        4.85380
H          7.07060      -12.05690        5.85200
H          2.99990       -4.00650        4.26510
H         -0.36230       -6.39460        3.10450
H          0.67600       -8.35320        4.15490
H         -2.30200       -4.44750        1.49560
H         -4.41600       -4.76370        0.26690
H         -5.63220       -5.08620       -4.28810
H         -4.51600       -4.01880       -3.39970
H         -3.88910       -5.45900       -4.25710
H         -2.31340       -6.80550       -2.83380
H         -0.19170       -6.45970       -1.63330
H          2.70810       -4.81660        0.82310
H          4.43660       -6.50670        1.08540
H          6.08480       -7.92580        1.43420
H          5.69690       -8.28700       -0.27910
H          6.54430       -9.49190        0.72390
H          1.47020       -9.57810        0.88570
H         -0.28360       -7.86780        0.66480
H         -0.25330        3.35070        2.39620
H         -2.24410        4.77640        2.19000
H         -5.83050        2.62300        0.22660
H         -6.69190        2.57770        1.79690
H         -7.00210        3.89720        0.64540
H         -4.68720        1.29010        1.79240
H         -2.71710       -0.11120        1.95680
H          2.26590       -0.15030        1.68770
H          4.22800        0.26000        3.10030
H          3.82610        3.97650        5.71210
H          5.20290        3.59620        6.77600
H          3.58390        3.00770        7.20440
H          1.80750        2.53030        5.79350
H         -0.15310        2.05340        4.44250
H          0.28230       -0.59530       -2.58840
H          1.31540       -1.48100       -4.58740
H          2.87380       -2.76650       -5.79440
H          1.78650       -1.81210       -6.85540
H          3.33700       -2.41990       -7.47510
H          4.19080        1.68390       -4.51510
H          3.12940        2.59650       -2.49750
H          3.51010        1.10170       -0.41790
H          4.76860        2.36000        1.23800
H          6.10850        4.20170        1.87510
H          5.72370        3.09740        3.23980
H          6.23270        4.76970        3.55490
H          1.46910        5.03260        1.71750
H          0.20150        3.76900        0.03530
H         -6.86860        3.57460       -4.10020
H         -8.25030        5.61270       -3.95440
H         -5.89870        8.87120       -3.21040
H         -7.08070       10.14860       -2.81980
H         -6.20220        9.33680       -1.50570
H         -5.74170        7.09160       -0.82950
H         -4.37730        5.06500       -0.95650
H         -6.94060        2.04620       -1.80030
H         -7.87570       -0.13960       -2.43430
H         -5.33730       -2.84790       -5.77730
H         -6.44060       -1.59750       -6.43290
H         -6.99270       -3.27820       -6.25350
H         -4.50110       -0.84910       -4.96200
H         -3.58050        1.32100       -4.34660
H         -4.04880        5.43950       -3.87100
H          1.22900        8.82450       -4.21740
H          0.90910       11.14470       -5.05220
H         -1.32260       11.95400       -5.65630
H         -3.30560       10.47180       -5.44200
