
  xtb     02122206323D
 energy: -376.499688519803 gnorm: 0.000469482210 xtb: 6.4.1 (unknown)
227247  0     0  0            999 V2000
    4.1159   -7.2446    1.7607 C   0  0  0  0  0  0  0  0  0  0  0  0
    5.4647   -7.0868    1.5858 C   0  0  0  0  0  0  0  0  0  0  0  0
    6.4078   -8.0265    2.2278 C   0  0  0  0  0  0  0  0  0  0  0  0
    6.1339   -9.0888    2.7509 O   0  0  0  0  0  0  0  0  0  0  0  0
    7.7364   -7.3911    2.1008 C   0  0  0  0  0  0  0  0  0  0  0  0
    8.9478   -7.7854    2.6239 C   0  0  0  0  0  0  0  0  0  0  0  0
   10.0761   -6.9966    2.3911 C   0  0  0  0  0  0  0  0  0  0  0  0
   11.3986   -7.4084    2.9559 C   0  0  0  0  0  0  0  0  0  0  0  0
    9.9473   -5.8368    1.6342 C   0  0  0  0  0  0  0  0  0  0  0  0
    8.7328   -5.4399    1.0897 C   0  0  0  0  0  0  0  0  0  0  0  0
    7.6163   -6.2219    1.3244 C   0  0  0  0  0  0  0  0  0  0  0  0
    6.2345   -6.1025    0.8685 C   0  0  0  0  0  0  0  0  0  0  0  0
    5.8296   -5.3784   -0.2300 C   0  0  0  0  0  0  0  0  0  0  0  0
    4.5998   -5.5628   -0.8822 C   0  0  0  0  0  0  0  0  0  0  0  0
    3.6513   -5.7244   -1.5144 N   0  0  0  0  0  0  0  0  0  0  0  0
    6.6244   -4.4457   -0.9192 C   0  0  0  0  0  0  0  0  0  0  0  0
    7.1906   -3.6523   -1.5287 N   0  0  0  0  0  0  0  0  0  0  0  0
    3.1007   -6.3058    1.5112 C   0  0  0  0  0  0  0  0  0  0  0  0
    1.7594   -6.5536    1.1648 C   0  0  0  0  0  0  0  0  0  0  0  0
    1.2421   -7.7991    0.9422 N   0  0  0  0  0  0  0  0  0  0  0  0
    2.1146   -8.8671    0.6053 C   0  0  0  0  0  0  0  0  0  0  0  0
    2.1648  -10.0049    1.4013 C   0  0  0  0  0  0  0  0  0  0  0  0
    3.1302  -10.9647    1.1678 C   0  0  0  0  0  0  0  0  0  0  0  0
    4.0392  -10.7982    0.1302 C   0  0  0  0  0  0  0  0  0  0  0  0
    5.3715  -11.9279   -0.1377 S   0  0  0  0  0  0  0  0  0  0  0  0
    5.8681  -12.2934    1.5738 C   0  0  0  0  0  0  0  0  0  0  0  0
    3.9164   -9.7122   -0.7302 C   0  0  0  0  0  0  0  0  0  0  0  0
    2.9588   -8.7499   -0.4944 C   0  0  0  0  0  0  0  0  0  0  0  0
   -0.1378   -8.0241    0.8843 C   0  0  0  0  0  0  0  0  0  0  0  0
   -0.6540   -8.9259   -0.0417 C   0  0  0  0  0  0  0  0  0  0  0  0
   -2.0152   -9.1364   -0.1328 C   0  0  0  0  0  0  0  0  0  0  0  0
   -2.8855   -8.4362    0.6923 C   0  0  0  0  0  0  0  0  0  0  0  0
   -4.6432   -8.5570    0.6093 S   0  0  0  0  0  0  0  0  0  0  0  0
   -4.9401   -9.6003   -0.8469 C   0  0  0  0  0  0  0  0  0  0  0  0
   -2.3679   -7.5764    1.6588 C   0  0  0  0  0  0  0  0  0  0  0  0
   -1.0094   -7.3814    1.7654 C   0  0  0  0  0  0  0  0  0  0  0  0
    1.0730   -5.3419    0.9339 C   0  0  0  0  0  0  0  0  0  0  0  0
   -0.4708   -4.9351    0.2576 S   0  0  0  0  0  0  0  0  0  0  0  0
   -0.0098   -3.2505    0.1209 C   0  0  0  0  0  0  0  0  0  0  0  0
    1.2517   -3.0194    0.6588 C   0  0  0  0  0  0  0  0  0  0  0  0
    1.8646   -1.7525    0.6979 N   0  0  0  0  0  0  0  0  0  0  0  0
    2.6787   -1.3758   -0.3834 C   0  0  0  0  0  0  0  0  0  0  0  0
    3.1247   -2.2999   -1.3217 C   0  0  0  0  0  0  0  0  0  0  0  0
    3.9700   -1.9130   -2.3439 C   0  0  0  0  0  0  0  0  0  0  0  0
    4.3773   -0.5916   -2.4481 C   0  0  0  0  0  0  0  0  0  0  0  0
    5.5087   -0.0247   -3.6800 S   0  0  0  0  0  0  0  0  0  0  0  0
    6.4060   -1.5380   -4.1337 C   0  0  0  0  0  0  0  0  0  0  0  0
    3.8701    0.3516   -1.5563 C   0  0  0  0  0  0  0  0  0  0  0  0
    3.0256   -0.0327   -0.5394 C   0  0  0  0  0  0  0  0  0  0  0  0
    2.1456   -1.2712    1.9922 C   0  0  0  0  0  0  0  0  0  0  0  0
    1.1297   -1.2630    2.9431 C   0  0  0  0  0  0  0  0  0  0  0  0
    1.3677   -0.8321    4.2337 C   0  0  0  0  0  0  0  0  0  0  0  0
    2.6352   -0.4007    4.5975 C   0  0  0  0  0  0  0  0  0  0  0  0
    3.0766    0.1416    6.2194 S   0  0  0  0  0  0  0  0  0  0  0  0
    1.5032    0.1596    7.1208 C   0  0  0  0  0  0  0  0  0  0  0  0
    3.6544   -0.4033    3.6475 C   0  0  0  0  0  0  0  0  0  0  0  0
    3.4171   -0.8365    2.3619 C   0  0  0  0  0  0  0  0  0  0  0  0
    1.8529   -4.2039    1.1014 C   0  0  0  0  0  0  0  0  0  0  0  0
    3.4591   -4.5760    1.6040 S   0  0  0  0  0  0  0  0  0  0  0  0
   -0.8407   -2.2397   -0.4178 C   0  0  0  0  0  0  0  0  0  0  0  0
   -2.0580   -2.3114   -1.0993 C   0  0  0  0  0  0  0  0  0  0  0  0
   -2.6662   -3.4537   -1.5844 N   0  0  0  0  0  0  0  0  0  0  0  0
   -4.0695   -3.5098   -1.5646 C   0  0  0  0  0  0  0  0  0  0  0  0
   -4.7664   -3.0722   -0.4382 C   0  0  0  0  0  0  0  0  0  0  0  0
   -6.1418   -3.1019   -0.4188 C   0  0  0  0  0  0  0  0  0  0  0  0
   -6.8538   -3.5754   -1.5195 C   0  0  0  0  0  0  0  0  0  0  0  0
   -8.6116   -3.5618   -1.3759 S   0  0  0  0  0  0  0  0  0  0  0  0
   -9.1906   -4.1913   -2.9770 C   0  0  0  0  0  0  0  0  0  0  0  0
   -6.1631   -4.0215   -2.6385 C   0  0  0  0  0  0  0  0  0  0  0  0
   -4.7827   -3.9841   -2.6604 C   0  0  0  0  0  0  0  0  0  0  0  0
   -1.9209   -4.4864   -2.1588 C   0  0  0  0  0  0  0  0  0  0  0  0
   -2.3749   -5.8065   -2.0893 C   0  0  0  0  0  0  0  0  0  0  0  0
   -1.5893   -6.8321   -2.5594 C   0  0  0  0  0  0  0  0  0  0  0  0
   -0.3224   -6.5789   -3.0831 C   0  0  0  0  0  0  0  0  0  0  0  0
    0.6405   -7.9867   -3.5255 S   0  0  0  0  0  0  0  0  0  0  0  0
    2.2164   -7.2837   -4.0844 C   0  0  0  0  0  0  0  0  0  0  0  0
    0.1085   -5.2650   -3.2093 C   0  0  0  0  0  0  0  0  0  0  0  0
   -0.6926   -4.2313   -2.7677 C   0  0  0  0  0  0  0  0  0  0  0  0
   -2.6031   -1.0162   -1.2858 C   0  0  0  0  0  0  0  0  0  0  0  0
   -4.0653   -0.3883   -1.9824 S   0  0  0  0  0  0  0  0  0  0  0  0
   -3.5604    1.2487   -1.6054 C   0  0  0  0  0  0  0  0  0  0  0  0
   -2.2826    1.2996   -1.0646 C   0  0  0  0  0  0  0  0  0  0  0  0
   -1.5349    2.4397   -0.7984 N   0  0  0  0  0  0  0  0  0  0  0  0
   -1.6273    3.5675   -1.6208 C   0  0  0  0  0  0  0  0  0  0  0  0
   -1.9041    3.4301   -2.9808 C   0  0  0  0  0  0  0  0  0  0  0  0
   -2.1672    4.5323   -3.7686 C   0  0  0  0  0  0  0  0  0  0  0  0
   -2.1225    5.8054   -3.2173 C   0  0  0  0  0  0  0  0  0  0  0  0
   -2.5448    7.2824   -4.0864 S   0  0  0  0  0  0  0  0  0  0  0  0
   -3.3323    6.6811   -5.6067 C   0  0  0  0  0  0  0  0  0  0  0  0
   -1.7293    5.9536   -1.8908 C   0  0  0  0  0  0  0  0  0  0  0  0
   -1.4974    4.8540   -1.0958 C   0  0  0  0  0  0  0  0  0  0  0  0
   -0.8626    2.4911    0.4330 C   0  0  0  0  0  0  0  0  0  0  0  0
    0.4055    3.0540    0.5335 C   0  0  0  0  0  0  0  0  0  0  0  0
    1.0467    3.1284    1.7542 C   0  0  0  0  0  0  0  0  0  0  0  0
    0.4327    2.6280    2.8941 C   0  0  0  0  0  0  0  0  0  0  0  0
    1.1306    2.7237    4.5085 S   0  0  0  0  0  0  0  0  0  0  0  0
    2.8616    3.1692    4.2142 C   0  0  0  0  0  0  0  0  0  0  0  0
   -0.8244    2.0396    2.7937 C   0  0  0  0  0  0  0  0  0  0  0  0
   -1.4673    1.9745    1.5792 C   0  0  0  0  0  0  0  0  0  0  0  0
   -1.7761    0.0023   -0.8463 C   0  0  0  0  0  0  0  0  0  0  0  0
   -0.3108   -0.5772   -0.1532 S   0  0  0  0  0  0  0  0  0  0  0  0
   -4.3621    2.4266   -1.7354 C   0  0  0  0  0  0  0  0  0  0  0  0
   -4.3105    3.4166   -0.7987 C   0  0  0  0  0  0  0  0  0  0  0  0
   -4.8891    4.6369   -1.2074 C   0  0  0  0  0  0  0  0  0  0  0  0
   -4.8281    5.8687   -0.5361 C   0  0  0  0  0  0  0  0  0  0  0  0
   -4.1788    5.8991    0.7824 C   0  0  0  0  0  0  0  0  0  0  0  0
   -4.5266    4.9243    1.7473 C   0  0  0  0  0  0  0  0  0  0  0  0
   -3.7725    4.7465    2.8693 C   0  0  0  0  0  0  0  0  0  0  0  0
   -2.6182    5.5261    3.0952 C   0  0  0  0  0  0  0  0  0  0  0  0
   -1.7488    5.2915    4.1784 C   0  0  0  0  0  0  0  0  0  0  0  0
   -0.6363    6.0650    4.3590 C   0  0  0  0  0  0  0  0  0  0  0  0
   -0.3561    7.1186    3.4748 C   0  0  0  0  0  0  0  0  0  0  0  0
   -1.1835    7.3742    2.4171 C   0  0  0  0  0  0  0  0  0  0  0  0
   -2.3256    6.5780    2.1882 C   0  0  0  0  0  0  0  0  0  0  0  0
   -3.1363    6.7530    1.0492 C   0  0  0  0  0  0  0  0  0  0  0  0
   -5.2592    6.9777   -1.2482 C   0  0  0  0  0  0  0  0  0  0  0  0
   -5.8050    6.8777   -2.5591 C   0  0  0  0  0  0  0  0  0  0  0  0
   -5.9179    5.6228   -3.1977 C   0  0  0  0  0  0  0  0  0  0  0  0
   -6.3750    5.4960   -4.4853 O   0  0  0  0  0  0  0  0  0  0  0  0
   -7.7799    5.6398   -4.6587 C   0  0  0  0  0  0  0  0  0  0  0  0
   -8.5530    4.4668   -4.0690 C   0  0  0  0  0  0  0  0  0  0  0  0
   -5.4271    4.5303   -2.5151 C   0  0  0  0  0  0  0  0  0  0  0  0
   -5.2584    2.9133   -3.1603 S   0  0  0  0  0  0  0  0  0  0  0  0
   -6.1033    8.1421   -3.0888 C   0  0  0  0  0  0  0  0  0  0  0  0
   -5.8136    9.1928   -2.2379 C   0  0  0  0  0  0  0  0  0  0  0  0
   -5.1572    8.6301   -0.7148 S   0  0  0  0  0  0  0  0  0  0  0  0
   -6.0387   10.5311   -2.6226 C   0  0  0  0  0  0  0  0  0  0  0  0
   -5.7908   11.7021   -1.9651 C   0  0  0  0  0  0  0  0  0  0  0  0
   -5.1531   11.8432   -0.6422 C   0  0  0  0  0  0  0  0  0  0  0  0
   -4.8079   10.9594    0.1167 O   0  0  0  0  0  0  0  0  0  0  0  0
   -5.0103   13.2932   -0.4171 C   0  0  0  0  0  0  0  0  0  0  0  0
   -4.4490   13.9433    0.6620 C   0  0  0  0  0  0  0  0  0  0  0  0
   -4.4154   15.3359    0.6672 C   0  0  0  0  0  0  0  0  0  0  0  0
   -3.7935   16.0777    1.8068 C   0  0  0  0  0  0  0  0  0  0  0  0
   -4.9499   16.0276   -0.4183 C   0  0  0  0  0  0  0  0  0  0  0  0
   -5.5170   15.3800   -1.5052 C   0  0  0  0  0  0  0  0  0  0  0  0
   -5.5509   13.9933   -1.5098 C   0  0  0  0  0  0  0  0  0  0  0  0
   -6.0681   13.0331   -2.4795 C   0  0  0  0  0  0  0  0  0  0  0  0
   -6.7180   13.3564   -3.6424 C   0  0  0  0  0  0  0  0  0  0  0  0
   -7.2589   12.4447   -4.5728 C   0  0  0  0  0  0  0  0  0  0  0  0
   -7.7365   11.7781   -5.3780 N   0  0  0  0  0  0  0  0  0  0  0  0
   -6.9583   14.6788   -4.0721 C   0  0  0  0  0  0  0  0  0  0  0  0
   -7.1888   15.7252   -4.4846 N   0  0  0  0  0  0  0  0  0  0  0  0
    3.8247   -8.1897    2.2035 H   0  0  0  0  0  0  0  0  0  0  0  0
    9.0172   -8.6922    3.2062 H   0  0  0  0  0  0  0  0  0  0  0  0
   11.6966   -8.3740    2.5487 H   0  0  0  0  0  0  0  0  0  0  0  0
   11.3303   -7.5140    4.0378 H   0  0  0  0  0  0  0  0  0  0  0  0
   12.1702   -6.6795    2.7232 H   0  0  0  0  0  0  0  0  0  0  0  0
   10.8198   -5.2234    1.4620 H   0  0  0  0  0  0  0  0  0  0  0  0
    8.6711   -4.5317    0.5109 H   0  0  0  0  0  0  0  0  0  0  0  0
    1.4737  -10.1132    2.2243 H   0  0  0  0  0  0  0  0  0  0  0  0
    3.1856  -11.8294    1.8094 H   0  0  0  0  0  0  0  0  0  0  0  0
    5.1867  -13.0082    2.0255 H   0  0  0  0  0  0  0  0  0  0  0  0
    5.8989  -11.3638    2.1353 H   0  0  0  0  0  0  0  0  0  0  0  0
    6.8612  -12.7264    1.5089 H   0  0  0  0  0  0  0  0  0  0  0  0
    4.5946   -9.6183   -1.5641 H   0  0  0  0  0  0  0  0  0  0  0  0
    2.8871   -7.8800   -1.1273 H   0  0  0  0  0  0  0  0  0  0  0  0
    0.0135   -9.4468   -0.7113 H   0  0  0  0  0  0  0  0  0  0  0  0
   -2.3818   -9.8417   -0.8609 H   0  0  0  0  0  0  0  0  0  0  0  0
   -4.4802   -9.1517   -1.7226 H   0  0  0  0  0  0  0  0  0  0  0  0
   -4.5650  -10.6046   -0.6726 H   0  0  0  0  0  0  0  0  0  0  0  0
   -6.0184   -9.6284   -0.9697 H   0  0  0  0  0  0  0  0  0  0  0  0
   -3.0459   -7.0654    2.3246 H   0  0  0  0  0  0  0  0  0  0  0  0
   -0.6170   -6.7350    2.5356 H   0  0  0  0  0  0  0  0  0  0  0  0
    2.8287   -3.3356   -1.2534 H   0  0  0  0  0  0  0  0  0  0  0  0
    4.3155   -2.6588   -3.0418 H   0  0  0  0  0  0  0  0  0  0  0  0
    6.6916   -2.0761   -3.2342 H   0  0  0  0  0  0  0  0  0  0  0  0
    7.2910   -1.2063   -4.6677 H   0  0  0  0  0  0  0  0  0  0  0  0
    5.7962   -2.1568   -4.7865 H   0  0  0  0  0  0  0  0  0  0  0  0
    4.1557    1.3863   -1.6679 H   0  0  0  0  0  0  0  0  0  0  0  0
    2.6347    0.6971    0.1544 H   0  0  0  0  0  0  0  0  0  0  0  0
    0.1416   -1.5992    2.6657 H   0  0  0  0  0  0  0  0  0  0  0  0
    0.5563   -0.8361    4.9429 H   0  0  0  0  0  0  0  0  0  0  0  0
    1.7367    0.5467    8.1077 H   0  0  0  0  0  0  0  0  0  0  0  0
    0.8067    0.8231    6.6168 H   0  0  0  0  0  0  0  0  0  0  0  0
    1.1102   -0.8496    7.2049 H   0  0  0  0  0  0  0  0  0  0  0  0
    4.6425   -0.0782    3.9376 H   0  0  0  0  0  0  0  0  0  0  0  0
    4.2222   -0.8538    1.6429 H   0  0  0  0  0  0  0  0  0  0  0  0
   -4.2183   -2.7135    0.4204 H   0  0  0  0  0  0  0  0  0  0  0  0
   -6.6841   -2.7639    0.4506 H   0  0  0  0  0  0  0  0  0  0  0  0
   -8.8460   -5.2108   -3.1236 H   0  0  0  0  0  0  0  0  0  0  0  0
   -8.8523   -3.5388   -3.7765 H   0  0  0  0  0  0  0  0  0  0  0  0
  -10.2746   -4.1743   -2.9215 H   0  0  0  0  0  0  0  0  0  0  0  0
   -6.6855   -4.3913   -3.5058 H   0  0  0  0  0  0  0  0  0  0  0  0
   -4.2505   -4.3190   -3.5385 H   0  0  0  0  0  0  0  0  0  0  0  0
   -3.3289   -6.0197   -1.6318 H   0  0  0  0  0  0  0  0  0  0  0  0
   -1.9314   -7.8527   -2.4975 H   0  0  0  0  0  0  0  0  0  0  0  0
    2.0603   -6.7001   -4.9874 H   0  0  0  0  0  0  0  0  0  0  0  0
    2.6590   -6.6836   -3.2940 H   0  0  0  0  0  0  0  0  0  0  0  0
    2.8526   -8.1362   -4.3031 H   0  0  0  0  0  0  0  0  0  0  0  0
    1.0682   -5.0297   -3.6389 H   0  0  0  0  0  0  0  0  0  0  0  0
   -0.3442   -3.2140   -2.8701 H   0  0  0  0  0  0  0  0  0  0  0  0
   -1.9456    2.4452   -3.4217 H   0  0  0  0  0  0  0  0  0  0  0  0
   -2.4158    4.3826   -4.8068 H   0  0  0  0  0  0  0  0  0  0  0  0
   -2.5998    6.1853   -6.2371 H   0  0  0  0  0  0  0  0  0  0  0  0
   -4.1579    6.0208   -5.3582 H   0  0  0  0  0  0  0  0  0  0  0  0
   -3.7059    7.5678   -6.1097 H   0  0  0  0  0  0  0  0  0  0  0  0
   -1.6384    6.9477   -1.4836 H   0  0  0  0  0  0  0  0  0  0  0  0
   -1.2504    4.9902   -0.0541 H   0  0  0  0  0  0  0  0  0  0  0  0
    0.8860    3.4411   -0.3525 H   0  0  0  0  0  0  0  0  0  0  0  0
    2.0242    3.5809    1.8027 H   0  0  0  0  0  0  0  0  0  0  0  0
    3.2971    2.4682    3.5079 H   0  0  0  0  0  0  0  0  0  0  0  0
    2.9297    4.1931    3.8577 H   0  0  0  0  0  0  0  0  0  0  0  0
    3.3571    3.0756    5.1756 H   0  0  0  0  0  0  0  0  0  0  0  0
   -1.2949    1.6479    3.6823 H   0  0  0  0  0  0  0  0  0  0  0  0
   -2.4490    1.5284    1.5116 H   0  0  0  0  0  0  0  0  0  0  0  0
   -3.8166    3.2884    0.1465 H   0  0  0  0  0  0  0  0  0  0  0  0
   -5.4063    4.3192    1.5792 H   0  0  0  0  0  0  0  0  0  0  0  0
   -4.0360    3.9875    3.5924 H   0  0  0  0  0  0  0  0  0  0  0  0
   -1.9689    4.4809    4.8581 H   0  0  0  0  0  0  0  0  0  0  0  0
    0.0326    5.8692    5.1840 H   0  0  0  0  0  0  0  0  0  0  0  0
    0.5230    7.7257    3.6368 H   0  0  0  0  0  0  0  0  0  0  0  0
   -0.9691    8.1810    1.7310 H   0  0  0  0  0  0  0  0  0  0  0  0
   -2.8828    7.5359    0.3514 H   0  0  0  0  0  0  0  0  0  0  0  0
   -7.9165    5.6860   -5.7414 H   0  0  0  0  0  0  0  0  0  0  0  0
   -8.1264    6.5799   -4.2120 H   0  0  0  0  0  0  0  0  0  0  0  0
   -9.6081    4.5673   -4.3072 H   0  0  0  0  0  0  0  0  0  0  0  0
   -8.1815    3.5310   -4.4796 H   0  0  0  0  0  0  0  0  0  0  0  0
   -8.4380    4.4409   -2.9870 H   0  0  0  0  0  0  0  0  0  0  0  0
   -6.4902    8.2979   -4.0811 H   0  0  0  0  0  0  0  0  0  0  0  0
   -6.4703   10.6114   -3.6133 H   0  0  0  0  0  0  0  0  0  0  0  0
   -4.0461   13.3701    1.4837 H   0  0  0  0  0  0  0  0  0  0  0  0
   -2.7467   16.2861    1.5823 H   0  0  0  0  0  0  0  0  0  0  0  0
   -3.8307   15.4890    2.7199 H   0  0  0  0  0  0  0  0  0  0  0  0
   -4.2949   17.0282    1.9731 H   0  0  0  0  0  0  0  0  0  0  0  0
   -4.9221   17.1076   -0.4130 H   0  0  0  0  0  0  0  0  0  0  0  0
   -5.9172   15.9582   -2.3217 H   0  0  0  0  0  0  0  0  0  0  0  0
  1  2  2  0  0  0  0
  2  3  1  0  0  0  0
  3  4  2  0  0  0  0
  3  5  1  0  0  0  0
  5  6  2  0  0  0  0
  6  7  1  0  0  0  0
  7  8  1  0  0  0  0
  7  9  2  0  0  0  0
  9 10  1  0  0  0  0
 10 11  2  0  0  0  0
 11 12  1  0  0  0  0
 12 13  2  0  0  0  0
 13 14  1  0  0  0  0
 14 15  3  0  0  0  0
 13 16  1  0  0  0  0
 16 17  3  0  0  0  0
  1 18  1  0  0  0  0
 18 19  2  0  0  0  0
 19 20  1  0  0  0  0
 20 21  1  0  0  0  0
 21 22  2  0  0  0  0
 22 23  1  0  0  0  0
 23 24  2  0  0  0  0
 24 25  1  0  0  0  0
 25 26  1  0  0  0  0
 24 27  1  0  0  0  0
 27 28  2  0  0  0  0
 20 29  1  0  0  0  0
 29 30  2  0  0  0  0
 30 31  1  0  0  0  0
 31 32  2  0  0  0  0
 32 33  1  0  0  0  0
 33 34  1  0  0  0  0
 32 35  1  0  0  0  0
 35 36  2  0  0  0  0
 19 37  1  0  0  0  0
 37 38  1  0  0  0  0
 38 39  1  0  0  0  0
 39 40  2  0  0  0  0
 40 41  1  0  0  0  0
 41 42  1  0  0  0  0
 42 43  2  0  0  0  0
 43 44  1  0  0  0  0
 44 45  2  0  0  0  0
 45 46  1  0  0  0  0
 46 47  1  0  0  0  0
 45 48  1  0  0  0  0
 48 49  2  0  0  0  0
 41 50  1  0  0  0  0
 50 51  2  0  0  0  0
 51 52  1  0  0  0  0
 52 53  2  0  0  0  0
 53 54  1  0  0  0  0
 54 55  1  0  0  0  0
 53 56  1  0  0  0  0
 56 57  2  0  0  0  0
 40 58  1  0  0  0  0
 58 59  1  0  0  0  0
 39 60  1  0  0  0  0
 60 61  2  0  0  0  0
 61 62  1  0  0  0  0
 62 63  1  0  0  0  0
 63 64  2  0  0  0  0
 64 65  1  0  0  0  0
 65 66  2  0  0  0  0
 66 67  1  0  0  0  0
 67 68  1  0  0  0  0
 66 69  1  0  0  0  0
 69 70  2  0  0  0  0
 62 71  1  0  0  0  0
 71 72  2  0  0  0  0
 72 73  1  0  0  0  0
 73 74  2  0  0  0  0
 74 75  1  0  0  0  0
 75 76  1  0  0  0  0
 74 77  1  0  0  0  0
 77 78  2  0  0  0  0
 61 79  1  0  0  0  0
 79 80  1  0  0  0  0
 80 81  1  0  0  0  0
 81 82  2  0  0  0  0
 82 83  1  0  0  0  0
 83 84  1  0  0  0  0
 84 85  2  0  0  0  0
 85 86  1  0  0  0  0
 86 87  2  0  0  0  0
 87 88  1  0  0  0  0
 88 89  1  0  0  0  0
 87 90  1  0  0  0  0
 90 91  2  0  0  0  0
 83 92  1  0  0  0  0
 92 93  2  0  0  0  0
 93 94  1  0  0  0  0
 94 95  2  0  0  0  0
 95 96  1  0  0  0  0
 96 97  1  0  0  0  0
 95 98  1  0  0  0  0
 98 99  2  0  0  0  0
 82100  1  0  0  0  0
100101  1  0  0  0  0
 81102  1  0  0  0  0
102103  2  0  0  0  0
103104  1  0  0  0  0
104105  2  0  0  0  0
105106  1  0  0  0  0
106107  2  0  0  0  0
107108  1  0  0  0  0
108109  2  0  0  0  0
109110  1  0  0  0  0
110111  2  0  0  0  0
111112  1  0  0  0  0
112113  2  0  0  0  0
113114  1  0  0  0  0
114115  2  0  0  0  0
105116  1  0  0  0  0
116117  2  0  0  0  0
117118  1  0  0  0  0
118119  1  0  0  0  0
119120  1  0  0  0  0
120121  1  0  0  0  0
118122  2  0  0  0  0
122123  1  0  0  0  0
117124  1  0  0  0  0
124125  2  0  0  0  0
125126  1  0  0  0  0
125127  1  0  0  0  0
127128  2  0  0  0  0
128129  1  0  0  0  0
129130  2  0  0  0  0
129131  1  0  0  0  0
131132  2  0  0  0  0
132133  1  0  0  0  0
133134  1  0  0  0  0
133135  2  0  0  0  0
135136  1  0  0  0  0
136137  2  0  0  0  0
137138  1  0  0  0  0
138139  2  0  0  0  0
139140  1  0  0  0  0
140141  3  0  0  0  0
139142  1  0  0  0  0
142143  3  0  0  0  0
 12  2  1  0  0  0  0
 59 18  1  0  0  0  0
101 60  1  0  0  0  0
123102  1  0  0  0  0
138128  1  0  0  0  0
 11  5  1  0  0  0  0
 28 21  1  0  0  0  0
 36 29  1  0  0  0  0
 58 37  2  0  0  0  0
 70 63  1  0  0  0  0
 78 71  1  0  0  0  0
100 79  2  0  0  0  0
122104  1  0  0  0  0
137131  1  0  0  0  0
 49 42  1  0  0  0  0
 57 50  1  0  0  0  0
 91 84  1  0  0  0  0
 99 92  1  0  0  0  0
115106  1  0  0  0  0
126116  1  0  0  0  0
114109  1  0  0  0  0
  1144  1  0  0  0  0
  6145  1  0  0  0  0
  8146  1  0  0  0  0
  8147  1  0  0  0  0
  8148  1  0  0  0  0
  9149  1  0  0  0  0
 10150  1  0  0  0  0
 22151  1  0  0  0  0
 23152  1  0  0  0  0
 26153  1  0  0  0  0
 26154  1  0  0  0  0
 26155  1  0  0  0  0
 27156  1  0  0  0  0
 28157  1  0  0  0  0
 30158  1  0  0  0  0
 31159  1  0  0  0  0
 34160  1  0  0  0  0
 34161  1  0  0  0  0
 34162  1  0  0  0  0
 35163  1  0  0  0  0
 36164  1  0  0  0  0
 43165  1  0  0  0  0
 44166  1  0  0  0  0
 47167  1  0  0  0  0
 47168  1  0  0  0  0
 47169  1  0  0  0  0
 48170  1  0  0  0  0
 49171  1  0  0  0  0
 51172  1  0  0  0  0
 52173  1  0  0  0  0
 55174  1  0  0  0  0
 55175  1  0  0  0  0
 55176  1  0  0  0  0
 56177  1  0  0  0  0
 57178  1  0  0  0  0
 64179  1  0  0  0  0
 65180  1  0  0  0  0
 68181  1  0  0  0  0
 68182  1  0  0  0  0
 68183  1  0  0  0  0
 69184  1  0  0  0  0
 70185  1  0  0  0  0
 72186  1  0  0  0  0
 73187  1  0  0  0  0
 76188  1  0  0  0  0
 76189  1  0  0  0  0
 76190  1  0  0  0  0
 77191  1  0  0  0  0
 78192  1  0  0  0  0
 85193  1  0  0  0  0
 86194  1  0  0  0  0
 89195  1  0  0  0  0
 89196  1  0  0  0  0
 89197  1  0  0  0  0
 90198  1  0  0  0  0
 91199  1  0  0  0  0
 93200  1  0  0  0  0
 94201  1  0  0  0  0
 97202  1  0  0  0  0
 97203  1  0  0  0  0
 97204  1  0  0  0  0
 98205  1  0  0  0  0
 99206  1  0  0  0  0
103207  1  0  0  0  0
107208  1  0  0  0  0
108209  1  0  0  0  0
110210  1  0  0  0  0
111211  1  0  0  0  0
112212  1  0  0  0  0
113213  1  0  0  0  0
115214  1  0  0  0  0
120215  1  0  0  0  0
120216  1  0  0  0  0
121217  1  0  0  0  0
121218  1  0  0  0  0
121219  1  0  0  0  0
124220  1  0  0  0  0
127221  1  0  0  0  0
132222  1  0  0  0  0
134223  1  0  0  0  0
134224  1  0  0  0  0
134225  1  0  0  0  0
135226  1  0  0  0  0
136227  1  0  0  0  0
M  END
