
  xtb     02082205363D
 energy: -357.793252808330 gnorm: 0.000564028731 xtb: 6.4.1 (unknown)
214231  0     0  0            999 V2000
    6.3900   -0.2698   -7.0465 C   0  0  0  0  0  0  0  0  0  0  0  0
    7.7174   -0.4597   -6.8636 C   0  0  0  0  0  0  0  0  0  0  0  0
    8.3109   -0.9775   -5.5941 C   0  0  0  0  0  0  0  0  0  0  0  0
    7.7533   -1.1923   -4.5415 O   0  0  0  0  0  0  0  0  0  0  0  0
    9.7095   -1.3083   -5.9295 C   0  0  0  0  0  0  0  0  0  0  0  0
   10.6779   -1.8563   -5.1118 C   0  0  0  0  0  0  0  0  0  0  0  0
   11.9369   -2.1234   -5.6413 C   0  0  0  0  0  0  0  0  0  0  0  0
   13.0202   -2.7133   -4.7964 C   0  0  0  0  0  0  0  0  0  0  0  0
   12.1798   -1.8385   -6.9858 C   0  0  0  0  0  0  0  0  0  0  0  0
   11.2141   -1.2895   -7.8130 C   0  0  0  0  0  0  0  0  0  0  0  0
    9.9615   -1.0155   -7.2813 C   0  0  0  0  0  0  0  0  0  0  0  0
    8.7650   -0.4327   -7.8710 C   0  0  0  0  0  0  0  0  0  0  0  0
    8.6755    0.1446   -9.1077 C   0  0  0  0  0  0  0  0  0  0  0  0
    9.7262    0.1666  -10.0491 C   0  0  0  0  0  0  0  0  0  0  0  0
   10.5405    0.2089  -10.8570 N   0  0  0  0  0  0  0  0  0  0  0  0
    7.5496    0.8513   -9.5784 C   0  0  0  0  0  0  0  0  0  0  0  0
    6.6965    1.4850  -10.0125 N   0  0  0  0  0  0  0  0  0  0  0  0
    5.4679   -0.1565   -5.9419 C   0  0  0  0  0  0  0  0  0  0  0  0
    4.2694   -0.8458   -5.8959 C   0  0  0  0  0  0  0  0  0  0  0  0
    3.9607   -1.6925   -6.8908 F   0  0  0  0  0  0  0  0  0  0  0  0
    3.3970   -0.7500   -4.8114 C   0  0  0  0  0  0  0  0  0  0  0  0
    2.3253   -1.5658   -4.7858 F   0  0  0  0  0  0  0  0  0  0  0  0
    3.6356    0.1101   -3.7474 C   0  0  0  0  0  0  0  0  0  0  0  0
    4.8798    0.8022   -3.7510 C   0  0  0  0  0  0  0  0  0  0  0  0
    5.1881    1.5844   -2.7065 N   0  0  0  0  0  0  0  0  0  0  0  0
    6.3238    2.2350   -2.6980 C   0  0  0  0  0  0  0  0  0  0  0  0
    6.5853    3.1008   -1.5069 C   0  0  0  0  0  0  0  0  0  0  0  0
    6.0360    4.5089   -1.7472 C   0  0  0  0  0  0  0  0  0  0  0  0
    7.2003    2.1643   -3.8221 C   0  0  0  0  0  0  0  0  0  0  0  0
    6.9009    1.4196   -4.8549 N   0  0  0  0  0  0  0  0  0  0  0  0
    5.7744    0.6894   -4.8383 C   0  0  0  0  0  0  0  0  0  0  0  0
    8.4860    2.9339   -3.8820 C   0  0  0  0  0  0  0  0  0  0  0  0
    9.2940    2.6237   -5.1353 C   0  0  0  0  0  0  0  0  0  0  0  0
    2.6990    0.3070   -2.6812 C   0  0  0  0  0  0  0  0  0  0  0  0
    1.3086    0.3172   -2.7674 C   0  0  0  0  0  0  0  0  0  0  0  0
    0.5808    0.3758   -3.9371 N   0  0  0  0  0  0  0  0  0  0  0  0
   -0.7282   -0.1202   -3.9533 C   0  0  0  0  0  0  0  0  0  0  0  0
   -1.0322   -1.3148   -3.3017 C   0  0  0  0  0  0  0  0  0  0  0  0
   -2.3415   -1.7444   -3.2183 C   0  0  0  0  0  0  0  0  0  0  0  0
   -3.3484   -0.9878   -3.7930 C   0  0  0  0  0  0  0  0  0  0  0  0
   -5.0548   -1.4521   -3.5484 S   0  0  0  0  0  0  0  0  0  0  0  0
   -5.3283   -0.4403   -2.0582 C   0  0  0  0  0  0  0  0  0  0  0  0
   -3.0465    0.1607   -4.5089 C   0  0  0  0  0  0  0  0  0  0  0  0
   -1.7402    0.5964   -4.5899 C   0  0  0  0  0  0  0  0  0  0  0  0
    1.1322    0.9667   -5.0865 C   0  0  0  0  0  0  0  0  0  0  0  0
    1.9588    2.0833   -4.9870 C   0  0  0  0  0  0  0  0  0  0  0  0
    2.6444    2.5507   -6.0895 C   0  0  0  0  0  0  0  0  0  0  0  0
    2.5021    1.9163   -7.3181 C   0  0  0  0  0  0  0  0  0  0  0  0
    3.4250    2.3516   -8.7541 S   0  0  0  0  0  0  0  0  0  0  0  0
    4.8356    3.2712   -8.0786 C   0  0  0  0  0  0  0  0  0  0  0  0
    1.5917    0.8679   -7.4419 C   0  0  0  0  0  0  0  0  0  0  0  0
    0.9135    0.3962   -6.3405 C   0  0  0  0  0  0  0  0  0  0  0  0
    0.7399    0.3976   -1.4732 C   0  0  0  0  0  0  0  0  0  0  0  0
   -0.8633    0.2838   -0.8445 S   0  0  0  0  0  0  0  0  0  0  0  0
   -0.2619    0.3548    0.8171 C   0  0  0  0  0  0  0  0  0  0  0  0
    1.1151    0.5072    0.8578 C   0  0  0  0  0  0  0  0  0  0  0  0
    1.9330    0.5954    1.9796 N   0  0  0  0  0  0  0  0  0  0  0  0
    2.9866    1.5195    1.9000 C   0  0  0  0  0  0  0  0  0  0  0  0
    4.2540    1.2527    2.4176 C   0  0  0  0  0  0  0  0  0  0  0  0
    5.2339    2.2213    2.3914 C   0  0  0  0  0  0  0  0  0  0  0  0
    4.9797    3.4694    1.8303 C   0  0  0  0  0  0  0  0  0  0  0  0
    6.2587    4.6885    1.9084 S   0  0  0  0  0  0  0  0  0  0  0  0
    5.3227    6.2457    1.8194 C   0  0  0  0  0  0  0  0  0  0  0  0
    3.7521    3.7089    1.2307 C   0  0  0  0  0  0  0  0  0  0  0  0
    2.7681    2.7444    1.2718 C   0  0  0  0  0  0  0  0  0  0  0  0
    1.8491   -0.3287    3.0238 C   0  0  0  0  0  0  0  0  0  0  0  0
    2.3396   -0.0151    4.2902 C   0  0  0  0  0  0  0  0  0  0  0  0
    2.3123   -0.9375    5.3162 C   0  0  0  0  0  0  0  0  0  0  0  0
    1.7734   -2.1992    5.1053 C   0  0  0  0  0  0  0  0  0  0  0  0
    1.6560   -3.4466    6.3477 S   0  0  0  0  0  0  0  0  0  0  0  0
    2.4535   -2.7032    7.7984 C   0  0  0  0  0  0  0  0  0  0  0  0
    1.2582   -2.5130    3.8488 C   0  0  0  0  0  0  0  0  0  0  0  0
    1.2978   -1.5956    2.8216 C   0  0  0  0  0  0  0  0  0  0  0  0
    1.6666    0.5235   -0.4517 C   0  0  0  0  0  0  0  0  0  0  0  0
    3.2866    0.6067   -1.0585 S   0  0  0  0  0  0  0  0  0  0  0  0
   -1.2608    0.0571    1.7984 C   0  0  0  0  0  0  0  0  0  0  0  0
   -1.5046    0.4784    3.0965 C   0  0  0  0  0  0  0  0  0  0  0  0
   -0.7565    1.3798    3.8427 N   0  0  0  0  0  0  0  0  0  0  0  0
   -0.2624    2.5615    3.2867 C   0  0  0  0  0  0  0  0  0  0  0  0
    0.8379    3.2036    3.8603 C   0  0  0  0  0  0  0  0  0  0  0  0
    1.2923    4.4014    3.3600 C   0  0  0  0  0  0  0  0  0  0  0  0
    0.6743    4.9887    2.2588 C   0  0  0  0  0  0  0  0  0  0  0  0
    1.3646    6.5091    1.6756 S   0  0  0  0  0  0  0  0  0  0  0  0
    0.0769    7.1727    0.5819 C   0  0  0  0  0  0  0  0  0  0  0  0
   -0.4005    4.3447    1.6635 C   0  0  0  0  0  0  0  0  0  0  0  0
   -0.8673    3.1493    2.1775 C   0  0  0  0  0  0  0  0  0  0  0  0
   -0.6950    1.1562    5.2298 C   0  0  0  0  0  0  0  0  0  0  0  0
   -0.7620    2.2011    6.1467 C   0  0  0  0  0  0  0  0  0  0  0  0
   -0.6865    1.9567    7.5043 C   0  0  0  0  0  0  0  0  0  0  0  0
   -0.5725    0.6556    7.9746 C   0  0  0  0  0  0  0  0  0  0  0  0
   -0.4272    0.2248    9.6813 S   0  0  0  0  0  0  0  0  0  0  0  0
   -0.8606    1.7555   10.5541 C   0  0  0  0  0  0  0  0  0  0  0  0
   -0.5505   -0.3970    7.0637 C   0  0  0  0  0  0  0  0  0  0  0  0
   -0.6033   -0.1504    5.7117 C   0  0  0  0  0  0  0  0  0  0  0  0
   -2.6816   -0.1286    3.6107 C   0  0  0  0  0  0  0  0  0  0  0  0
   -3.5589    0.0476    5.0871 S   0  0  0  0  0  0  0  0  0  0  0  0
   -4.7500   -1.1514    4.5589 C   0  0  0  0  0  0  0  0  0  0  0  0
   -4.5138   -1.5776    3.2368 C   0  0  0  0  0  0  0  0  0  0  0  0
   -5.3359   -2.3469    2.4617 N   0  0  0  0  0  0  0  0  0  0  0  0
   -6.7161   -2.4294    2.6848 C   0  0  0  0  0  0  0  0  0  0  0  0
   -7.3724   -3.6563    2.5596 C   0  0  0  0  0  0  0  0  0  0  0  0
   -8.7141   -3.7584    2.8506 C   0  0  0  0  0  0  0  0  0  0  0  0
   -9.4380   -2.6410    3.2657 C   0  0  0  0  0  0  0  0  0  0  0  0
  -11.1205   -2.9129    3.7004 S   0  0  0  0  0  0  0  0  0  0  0  0
  -11.7126   -1.2865    4.2430 C   0  0  0  0  0  0  0  0  0  0  0  0
   -8.8031   -1.4043    3.3238 C   0  0  0  0  0  0  0  0  0  0  0  0
   -7.4572   -1.3039    3.0385 C   0  0  0  0  0  0  0  0  0  0  0  0
   -4.7847   -3.0927    1.4010 C   0  0  0  0  0  0  0  0  0  0  0  0
   -3.5938   -3.7915    1.5720 C   0  0  0  0  0  0  0  0  0  0  0  0
   -3.0369   -4.4917    0.5203 C   0  0  0  0  0  0  0  0  0  0  0  0
   -3.6673   -4.5042   -0.7174 C   0  0  0  0  0  0  0  0  0  0  0  0
   -3.0338   -5.3395   -2.1372 S   0  0  0  0  0  0  0  0  0  0  0  0
   -1.3181   -5.7209   -1.6776 C   0  0  0  0  0  0  0  0  0  0  0  0
   -4.8837   -3.8416   -0.8781 C   0  0  0  0  0  0  0  0  0  0  0  0
   -5.4378   -3.1420    0.1704 C   0  0  0  0  0  0  0  0  0  0  0  0
   -3.3217   -0.9971    2.7417 C   0  0  0  0  0  0  0  0  0  0  0  0
   -2.5037   -1.0587    1.2228 S   0  0  0  0  0  0  0  0  0  0  0  0
   -5.7490   -1.4940    5.4756 C   0  0  0  0  0  0  0  0  0  0  0  0
   -6.4523   -2.6787    5.4932 C   0  0  0  0  0  0  0  0  0  0  0  0
   -5.9367   -3.9481    4.9514 C   0  0  0  0  0  0  0  0  0  0  0  0
   -4.8794   -4.1318    4.3776 O   0  0  0  0  0  0  0  0  0  0  0  0
   -6.9127   -4.9786    5.3674 C   0  0  0  0  0  0  0  0  0  0  0  0
   -6.9000   -6.3317    5.1170 C   0  0  0  0  0  0  0  0  0  0  0  0
   -7.9518   -7.1176    5.5918 C   0  0  0  0  0  0  0  0  0  0  0  0
   -7.9581   -8.5898    5.3258 C   0  0  0  0  0  0  0  0  0  0  0  0
   -8.9767   -6.5127    6.3105 C   0  0  0  0  0  0  0  0  0  0  0  0
   -8.9920   -5.1489    6.5728 C   0  0  0  0  0  0  0  0  0  0  0  0
   -7.9504   -4.3726    6.0972 C   0  0  0  0  0  0  0  0  0  0  0  0
   -7.6941   -2.9386    6.1670 C   0  0  0  0  0  0  0  0  0  0  0  0
   -8.5639   -1.9856    6.6389 C   0  0  0  0  0  0  0  0  0  0  0  0
   -8.3580   -0.5998    6.5028 C   0  0  0  0  0  0  0  0  0  0  0  0
   -8.2892    0.5410    6.3779 N   0  0  0  0  0  0  0  0  0  0  0  0
   -9.8070   -2.2689    7.2340 C   0  0  0  0  0  0  0  0  0  0  0  0
  -10.8363   -2.4203    7.7219 N   0  0  0  0  0  0  0  0  0  0  0  0
    5.9689   -0.2057   -8.0428 H   0  0  0  0  0  0  0  0  0  0  0  0
   10.4479   -2.0681   -4.0782 H   0  0  0  0  0  0  0  0  0  0  0  0
   13.8984   -2.0691   -4.8017 H   0  0  0  0  0  0  0  0  0  0  0  0
   12.6878   -2.8449   -3.7704 H   0  0  0  0  0  0  0  0  0  0  0  0
   13.3206   -3.6825   -5.1928 H   0  0  0  0  0  0  0  0  0  0  0  0
   13.1558   -2.0566   -7.3944 H   0  0  0  0  0  0  0  0  0  0  0  0
   11.4415   -1.0931   -8.8481 H   0  0  0  0  0  0  0  0  0  0  0  0
    7.6528    3.1536   -1.2948 H   0  0  0  0  0  0  0  0  0  0  0  0
    6.0732    2.6647   -0.6484 H   0  0  0  0  0  0  0  0  0  0  0  0
    6.2802    5.1429   -0.9004 H   0  0  0  0  0  0  0  0  0  0  0  0
    4.9556    4.4688   -1.8630 H   0  0  0  0  0  0  0  0  0  0  0  0
    6.4644    4.9517   -2.6439 H   0  0  0  0  0  0  0  0  0  0  0  0
    8.2635    4.0033   -3.8382 H   0  0  0  0  0  0  0  0  0  0  0  0
    9.0765    2.6907   -2.9943 H   0  0  0  0  0  0  0  0  0  0  0  0
    9.5614    1.5704   -5.1563 H   0  0  0  0  0  0  0  0  0  0  0  0
   10.2049    3.2172   -5.1514 H   0  0  0  0  0  0  0  0  0  0  0  0
    8.7121    2.8434   -6.0263 H   0  0  0  0  0  0  0  0  0  0  0  0
   -0.2348   -1.8967   -2.8646 H   0  0  0  0  0  0  0  0  0  0  0  0
   -2.5911   -2.6583   -2.7038 H   0  0  0  0  0  0  0  0  0  0  0  0
   -6.3614   -0.5886   -1.7630 H   0  0  0  0  0  0  0  0  0  0  0  0
   -5.1523    0.6046   -2.2971 H   0  0  0  0  0  0  0  0  0  0  0  0
   -4.6561   -0.7724   -1.2714 H   0  0  0  0  0  0  0  0  0  0  0  0
   -3.8396    0.7209   -4.9806 H   0  0  0  0  0  0  0  0  0  0  0  0
   -1.4968    1.5035   -5.1233 H   0  0  0  0  0  0  0  0  0  0  0  0
    2.0893    2.5722   -4.0326 H   0  0  0  0  0  0  0  0  0  0  0  0
    3.2912    3.4066   -5.9799 H   0  0  0  0  0  0  0  0  0  0  0  0
    5.5612    3.3085   -8.8854 H   0  0  0  0  0  0  0  0  0  0  0  0
    4.5361    4.2768   -7.7966 H   0  0  0  0  0  0  0  0  0  0  0  0
    5.2531    2.7304   -7.2334 H   0  0  0  0  0  0  0  0  0  0  0  0
    1.4561    0.4029   -8.4057 H   0  0  0  0  0  0  0  0  0  0  0  0
    0.2501   -0.4504   -6.4310 H   0  0  0  0  0  0  0  0  0  0  0  0
    4.4676    0.2861    2.8475 H   0  0  0  0  0  0  0  0  0  0  0  0
    6.2078    2.0205    2.8110 H   0  0  0  0  0  0  0  0  0  0  0  0
    5.0180    6.4550    0.7982 H   0  0  0  0  0  0  0  0  0  0  0  0
    6.0001    7.0200    2.1656 H   0  0  0  0  0  0  0  0  0  0  0  0
    4.4567    6.1865    2.4709 H   0  0  0  0  0  0  0  0  0  0  0  0
    3.5444    4.6505    0.7497 H   0  0  0  0  0  0  0  0  0  0  0  0
    1.8083    2.9459    0.8222 H   0  0  0  0  0  0  0  0  0  0  0  0
    2.7563    0.9627    4.4743 H   0  0  0  0  0  0  0  0  0  0  0  0
    2.7042   -0.6524    6.2788 H   0  0  0  0  0  0  0  0  0  0  0  0
    1.9024   -1.8252    8.1236 H   0  0  0  0  0  0  0  0  0  0  0  0
    2.4166   -3.4654    8.5706 H   0  0  0  0  0  0  0  0  0  0  0  0
    3.4871   -2.4615    7.5685 H   0  0  0  0  0  0  0  0  0  0  0  0
    0.8329   -3.4918    3.6868 H   0  0  0  0  0  0  0  0  0  0  0  0
    0.9178   -1.8683    1.8488 H   0  0  0  0  0  0  0  0  0  0  0  0
    1.3290    2.7611    4.7123 H   0  0  0  0  0  0  0  0  0  0  0  0
    2.1370    4.8937    3.8168 H   0  0  0  0  0  0  0  0  0  0  0  0
    0.3844    8.1863    0.3444 H   0  0  0  0  0  0  0  0  0  0  0  0
   -0.8734    7.1865    1.1071 H   0  0  0  0  0  0  0  0  0  0  0  0
    0.0153    6.5849   -0.3296 H   0  0  0  0  0  0  0  0  0  0  0  0
   -0.8941    4.7651    0.8015 H   0  0  0  0  0  0  0  0  0  0  0  0
   -1.7249    2.6813    1.7187 H   0  0  0  0  0  0  0  0  0  0  0  0
   -0.8791    3.2166    5.7992 H   0  0  0  0  0  0  0  0  0  0  0  0
   -0.7291    2.7926    8.1838 H   0  0  0  0  0  0  0  0  0  0  0  0
   -0.0912    2.5072   10.4025 H   0  0  0  0  0  0  0  0  0  0  0  0
   -1.8301    2.1066   10.2134 H   0  0  0  0  0  0  0  0  0  0  0  0
   -0.9111    1.4894   11.6054 H   0  0  0  0  0  0  0  0  0  0  0  0
   -0.4956   -1.4118    7.4262 H   0  0  0  0  0  0  0  0  0  0  0  0
   -0.5815   -0.9755    5.0180 H   0  0  0  0  0  0  0  0  0  0  0  0
   -6.8155   -4.5284    2.2529 H   0  0  0  0  0  0  0  0  0  0  0  0
   -9.2158   -4.7113    2.7828 H   0  0  0  0  0  0  0  0  0  0  0  0
  -11.6872   -0.5849    3.4144 H   0  0  0  0  0  0  0  0  0  0  0  0
  -12.7378   -1.4461    4.5622 H   0  0  0  0  0  0  0  0  0  0  0  0
  -11.1227   -0.9319    5.0829 H   0  0  0  0  0  0  0  0  0  0  0  0
   -9.3412   -0.5130    3.6020 H   0  0  0  0  0  0  0  0  0  0  0  0
   -6.9751   -0.3398    3.1021 H   0  0  0  0  0  0  0  0  0  0  0  0
   -3.1269   -3.8066    2.5443 H   0  0  0  0  0  0  0  0  0  0  0  0
   -2.1183   -5.0319    0.6828 H   0  0  0  0  0  0  0  0  0  0  0  0
   -1.2928   -6.5053   -0.9266 H   0  0  0  0  0  0  0  0  0  0  0  0
   -0.8249   -4.8202   -1.3244 H   0  0  0  0  0  0  0  0  0  0  0  0
   -0.8426   -6.0701   -2.5888 H   0  0  0  0  0  0  0  0  0  0  0  0
   -5.3745   -3.8660   -1.8386 H   0  0  0  0  0  0  0  0  0  0  0  0
   -6.3755   -2.6227    0.0409 H   0  0  0  0  0  0  0  0  0  0  0  0
   -5.9386   -0.7671    6.2569 H   0  0  0  0  0  0  0  0  0  0  0  0
   -6.0903   -6.7706    4.5528 H   0  0  0  0  0  0  0  0  0  0  0  0
   -7.8278   -8.7844    4.2625 H   0  0  0  0  0  0  0  0  0  0  0  0
   -8.8881   -9.0451    5.6554 H   0  0  0  0  0  0  0  0  0  0  0  0
   -7.1320   -9.0677    5.8521 H   0  0  0  0  0  0  0  0  0  0  0  0
   -9.7898   -7.1214    6.6784 H   0  0  0  0  0  0  0  0  0  0  0  0
   -9.8037   -4.7202    7.1381 H   0  0  0  0  0  0  0  0  0  0  0  0
  1  2  2  0  0  0  0
  2  3  1  0  0  0  0
  3  4  2  0  0  0  0
  3  5  1  0  0  0  0
  5  6  2  0  0  0  0
  6  7  1  0  0  0  0
  7  8  1  0  0  0  0
  7  9  2  0  0  0  0
  9 10  1  0  0  0  0
 10 11  2  0  0  0  0
 11 12  1  0  0  0  0
 12 13  2  0  0  0  0
 13 14  1  0  0  0  0
 14 15  3  0  0  0  0
 13 16  1  0  0  0  0
 16 17  3  0  0  0  0
  1 18  1  0  0  0  0
 18 19  2  0  0  0  0
 19 20  1  0  0  0  0
 19 21  1  0  0  0  0
 21 22  1  0  0  0  0
 21 23  2  0  0  0  0
 23 24  1  0  0  0  0
 24 25  2  0  0  0  0
 25 26  1  0  0  0  0
 26 27  1  0  0  0  0
 27 28  1  0  0  0  0
 26 29  2  0  0  0  0
 29 30  1  0  0  0  0
 30 31  2  0  0  0  0
 29 32  1  0  0  0  0
 32 33  1  0  0  0  0
 23 34  1  0  0  0  0
 34 35  2  0  0  0  0
 35 36  1  0  0  0  0
 36 37  1  0  0  0  0
 37 38  2  0  0  0  0
 38 39  1  0  0  0  0
 39 40  2  0  0  0  0
 40 41  1  0  0  0  0
 41 42  1  0  0  0  0
 40 43  1  0  0  0  0
 43 44  2  0  0  0  0
 36 45  1  0  0  0  0
 45 46  2  0  0  0  0
 46 47  1  0  0  0  0
 47 48  2  0  0  0  0
 48 49  1  0  0  0  0
 49 50  1  0  0  0  0
 48 51  1  0  0  0  0
 51 52  2  0  0  0  0
 35 53  1  0  0  0  0
 53 54  1  0  0  0  0
 54 55  1  0  0  0  0
 55 56  2  0  0  0  0
 56 57  1  0  0  0  0
 57 58  1  0  0  0  0
 58 59  2  0  0  0  0
 59 60  1  0  0  0  0
 60 61  2  0  0  0  0
 61 62  1  0  0  0  0
 62 63  1  0  0  0  0
 61 64  1  0  0  0  0
 64 65  2  0  0  0  0
 57 66  1  0  0  0  0
 66 67  2  0  0  0  0
 67 68  1  0  0  0  0
 68 69  2  0  0  0  0
 69 70  1  0  0  0  0
 70 71  1  0  0  0  0
 69 72  1  0  0  0  0
 72 73  2  0  0  0  0
 56 74  1  0  0  0  0
 74 75  1  0  0  0  0
 55 76  1  0  0  0  0
 76 77  2  0  0  0  0
 77 78  1  0  0  0  0
 78 79  1  0  0  0  0
 79 80  2  0  0  0  0
 80 81  1  0  0  0  0
 81 82  2  0  0  0  0
 82 83  1  0  0  0  0
 83 84  1  0  0  0  0
 82 85  1  0  0  0  0
 85 86  2  0  0  0  0
 78 87  1  0  0  0  0
 87 88  2  0  0  0  0
 88 89  1  0  0  0  0
 89 90  2  0  0  0  0
 90 91  1  0  0  0  0
 91 92  1  0  0  0  0
 90 93  1  0  0  0  0
 93 94  2  0  0  0  0
 77 95  1  0  0  0  0
 95 96  1  0  0  0  0
 96 97  1  0  0  0  0
 97 98  2  0  0  0  0
 98 99  1  0  0  0  0
 99100  1  0  0  0  0
100101  2  0  0  0  0
101102  1  0  0  0  0
102103  2  0  0  0  0
103104  1  0  0  0  0
104105  1  0  0  0  0
103106  1  0  0  0  0
106107  2  0  0  0  0
 99108  1  0  0  0  0
108109  2  0  0  0  0
109110  1  0  0  0  0
110111  2  0  0  0  0
111112  1  0  0  0  0
112113  1  0  0  0  0
111114  1  0  0  0  0
114115  2  0  0  0  0
 98116  1  0  0  0  0
116117  1  0  0  0  0
 97118  1  0  0  0  0
118119  2  0  0  0  0
119120  1  0  0  0  0
120121  2  0  0  0  0
120122  1  0  0  0  0
122123  2  0  0  0  0
123124  1  0  0  0  0
124125  1  0  0  0  0
124126  2  0  0  0  0
126127  1  0  0  0  0
127128  2  0  0  0  0
128129  1  0  0  0  0
129130  2  0  0  0  0
130131  1  0  0  0  0
131132  3  0  0  0  0
130133  1  0  0  0  0
133134  3  0  0  0  0
 12  2  1  0  0  0  0
 31 18  1  0  0  0  0
 75 34  1  0  0  0  0
117 76  1  0  0  0  0
129119  1  0  0  0  0
 11  5  1  0  0  0  0
 31 24  1  0  0  0  0
 44 37  1  0  0  0  0
 52 45  1  0  0  0  0
 74 53  2  0  0  0  0
 86 79  1  0  0  0  0
 94 87  1  0  0  0  0
116 95  2  0  0  0  0
128122  1  0  0  0  0
 65 58  1  0  0  0  0
 73 66  1  0  0  0  0
107100  1  0  0  0  0
115108  1  0  0  0  0
  1135  1  0  0  0  0
  6136  1  0  0  0  0
  8137  1  0  0  0  0
  8138  1  0  0  0  0
  8139  1  0  0  0  0
  9140  1  0  0  0  0
 10141  1  0  0  0  0
 27142  1  0  0  0  0
 27143  1  0  0  0  0
 28144  1  0  0  0  0
 28145  1  0  0  0  0
 28146  1  0  0  0  0
 32147  1  0  0  0  0
 32148  1  0  0  0  0
 33149  1  0  0  0  0
 33150  1  0  0  0  0
 33151  1  0  0  0  0
 38152  1  0  0  0  0
 39153  1  0  0  0  0
 42154  1  0  0  0  0
 42155  1  0  0  0  0
 42156  1  0  0  0  0
 43157  1  0  0  0  0
 44158  1  0  0  0  0
 46159  1  0  0  0  0
 47160  1  0  0  0  0
 50161  1  0  0  0  0
 50162  1  0  0  0  0
 50163  1  0  0  0  0
 51164  1  0  0  0  0
 52165  1  0  0  0  0
 59166  1  0  0  0  0
 60167  1  0  0  0  0
 63168  1  0  0  0  0
 63169  1  0  0  0  0
 63170  1  0  0  0  0
 64171  1  0  0  0  0
 65172  1  0  0  0  0
 67173  1  0  0  0  0
 68174  1  0  0  0  0
 71175  1  0  0  0  0
 71176  1  0  0  0  0
 71177  1  0  0  0  0
 72178  1  0  0  0  0
 73179  1  0  0  0  0
 80180  1  0  0  0  0
 81181  1  0  0  0  0
 84182  1  0  0  0  0
 84183  1  0  0  0  0
 84184  1  0  0  0  0
 85185  1  0  0  0  0
 86186  1  0  0  0  0
 88187  1  0  0  0  0
 89188  1  0  0  0  0
 92189  1  0  0  0  0
 92190  1  0  0  0  0
 92191  1  0  0  0  0
 93192  1  0  0  0  0
 94193  1  0  0  0  0
101194  1  0  0  0  0
102195  1  0  0  0  0
105196  1  0  0  0  0
105197  1  0  0  0  0
105198  1  0  0  0  0
106199  1  0  0  0  0
107200  1  0  0  0  0
109201  1  0  0  0  0
110202  1  0  0  0  0
113203  1  0  0  0  0
113204  1  0  0  0  0
113205  1  0  0  0  0
114206  1  0  0  0  0
115207  1  0  0  0  0
118208  1  0  0  0  0
123209  1  0  0  0  0
125210  1  0  0  0  0
125211  1  0  0  0  0
125212  1  0  0  0  0
126213  1  0  0  0  0
127214  1  0  0  0  0
M  END
