
  xtb     02112200533D
 energy: -268.282749771923 gnorm: 0.000431045303 xtb: 6.4.1 (unknown)
155168  0     0  0            999 V2000
    0.4783    0.0121    6.6833 C   0  0  0  0  0  0  0  0  0  0  0  0
   -0.7051    0.1184    7.3748 C   0  0  0  0  0  0  0  0  0  0  0  0
   -2.0219   -0.2843    6.8787 C   0  0  0  0  0  0  0  0  0  0  0  0
   -2.2840   -0.7959    5.8021 O   0  0  0  0  0  0  0  0  0  0  0  0
   -2.9749    0.0202    7.9602 C   0  0  0  0  0  0  0  0  0  0  0  0
   -4.3429   -0.1537    7.9816 C   0  0  0  0  0  0  0  0  0  0  0  0
   -5.0510    0.2158    9.1224 C   0  0  0  0  0  0  0  0  0  0  0  0
   -6.5380    0.0641    9.1871 C   0  0  0  0  0  0  0  0  0  0  0  0
   -4.3548    0.7459   10.2068 C   0  0  0  0  0  0  0  0  0  0  0  0
   -2.9798    0.9252   10.1903 C   0  0  0  0  0  0  0  0  0  0  0  0
   -2.2765    0.5608    9.0532 C   0  0  0  0  0  0  0  0  0  0  0  0
   -0.8570    0.6366    8.7160 C   0  0  0  0  0  0  0  0  0  0  0  0
    0.1212    1.1562    9.5274 C   0  0  0  0  0  0  0  0  0  0  0  0
   -0.1118    1.6626   10.8222 C   0  0  0  0  0  0  0  0  0  0  0  0
   -0.2167    2.0940   11.8816 N   0  0  0  0  0  0  0  0  0  0  0  0
    1.4838    1.2980    9.2000 C   0  0  0  0  0  0  0  0  0  0  0  0
    2.6052    1.4787    9.0186 N   0  0  0  0  0  0  0  0  0  0  0  0
    0.7018   -0.2669    5.3343 C   0  0  0  0  0  0  0  0  0  0  0  0
    1.9742   -0.1919    4.7187 C   0  0  0  0  0  0  0  0  0  0  0  0
    3.2341   -0.1406    5.4077 C   0  0  0  0  0  0  0  0  0  0  0  0
    4.3874    0.4647    4.9733 C   0  0  0  0  0  0  0  0  0  0  0  0
    5.4613    0.3195    5.8656 C   0  0  0  0  0  0  0  0  0  0  0  0
    5.1514   -0.4093    6.9768 C   0  0  0  0  0  0  0  0  0  0  0  0
    6.0251   -0.7665    8.1270 C   0  0  0  0  0  0  0  0  0  0  0  0
    6.2561   -2.2760    8.2126 C   0  0  0  0  0  0  0  0  0  0  0  0
    3.5075   -0.9351    6.9347 S   0  0  0  0  0  0  0  0  0  0  0  0
    1.8829   -0.1194    3.3284 C   0  0  0  0  0  0  0  0  0  0  0  0
    0.5835   -0.1449    2.8553 C   0  0  0  0  0  0  0  0  0  0  0  0
   -0.5584   -0.4130    4.1342 S   0  0  0  0  0  0  0  0  0  0  0  0
    0.2114    0.0156    1.4938 C   0  0  0  0  0  0  0  0  0  0  0  0
   -0.9640    0.5083    0.9238 C   0  0  0  0  0  0  0  0  0  0  0  0
   -2.0509    1.0518    1.5819 N   0  0  0  0  0  0  0  0  0  0  0  0
   -3.3249    0.9168    1.0056 C   0  0  0  0  0  0  0  0  0  0  0  0
   -4.2239    1.9787    1.0371 C   0  0  0  0  0  0  0  0  0  0  0  0
   -5.4851    1.8528    0.4887 C   0  0  0  0  0  0  0  0  0  0  0  0
   -5.8637    0.6626   -0.1175 C   0  0  0  0  0  0  0  0  0  0  0  0
   -7.4460    0.3856   -0.8448 S   0  0  0  0  0  0  0  0  0  0  0  0
   -8.3989    1.8648   -0.3942 C   0  0  0  0  0  0  0  0  0  0  0  0
   -4.9632   -0.3993   -0.1621 C   0  0  0  0  0  0  0  0  0  0  0  0
   -3.7122   -0.2794    0.4004 C   0  0  0  0  0  0  0  0  0  0  0  0
   -1.9170    1.7496    2.7880 C   0  0  0  0  0  0  0  0  0  0  0  0
   -2.9067    1.6489    3.7692 C   0  0  0  0  0  0  0  0  0  0  0  0
   -2.7233    2.2294    5.0023 C   0  0  0  0  0  0  0  0  0  0  0  0
   -1.5426    2.9086    5.2952 C   0  0  0  0  0  0  0  0  0  0  0  0
   -1.3529    3.4870    6.9526 S   0  0  0  0  0  0  0  0  0  0  0  0
    0.4172    3.8712    7.0664 C   0  0  0  0  0  0  0  0  0  0  0  0
   -0.5911    3.0813    4.2988 C   0  0  0  0  0  0  0  0  0  0  0  0
   -0.7857    2.5182    3.0528 C   0  0  0  0  0  0  0  0  0  0  0  0
   -0.8908    0.4531   -0.4905 C   0  0  0  0  0  0  0  0  0  0  0  0
   -1.9716    0.8982   -1.7684 S   0  0  0  0  0  0  0  0  0  0  0  0
   -0.7912    0.4050   -2.9768 C   0  0  0  0  0  0  0  0  0  0  0  0
    0.4147    0.0014   -2.3906 C   0  0  0  0  0  0  0  0  0  0  0  0
    1.5505   -0.3954   -3.0802 N   0  0  0  0  0  0  0  0  0  0  0  0
    2.1077   -1.6380   -2.7296 C   0  0  0  0  0  0  0  0  0  0  0  0
    1.2563   -2.7094   -2.4604 C   0  0  0  0  0  0  0  0  0  0  0  0
    1.7745   -3.9538   -2.1820 C   0  0  0  0  0  0  0  0  0  0  0  0
    3.1515   -4.1542   -2.1785 C   0  0  0  0  0  0  0  0  0  0  0  0
    3.7472   -5.7887   -1.8970 S   0  0  0  0  0  0  0  0  0  0  0  0
    5.2717   -5.7982   -2.8888 C   0  0  0  0  0  0  0  0  0  0  0  0
    4.0025   -3.0770   -2.3937 C   0  0  0  0  0  0  0  0  0  0  0  0
    3.4846   -1.8268   -2.6605 C   0  0  0  0  0  0  0  0  0  0  0  0
    2.1572    0.4518   -4.0086 C   0  0  0  0  0  0  0  0  0  0  0  0
    1.9457    1.8278   -3.9564 C   0  0  0  0  0  0  0  0  0  0  0  0
    2.5026    2.6681   -4.9004 C   0  0  0  0  0  0  0  0  0  0  0  0
    3.2900    2.1495   -5.9194 C   0  0  0  0  0  0  0  0  0  0  0  0
    4.0448    3.1117   -7.1882 S   0  0  0  0  0  0  0  0  0  0  0  0
    3.5236    4.8114   -6.8214 C   0  0  0  0  0  0  0  0  0  0  0  0
    3.5149    0.7736   -5.9714 C   0  0  0  0  0  0  0  0  0  0  0  0
    2.9563   -0.0633   -5.0357 C   0  0  0  0  0  0  0  0  0  0  0  0
    0.3197   -0.0061   -0.9858 C   0  0  0  0  0  0  0  0  0  0  0  0
    1.4203   -0.4097    0.2785 S   0  0  0  0  0  0  0  0  0  0  0  0
   -1.1574    0.1968   -4.3209 C   0  0  0  0  0  0  0  0  0  0  0  0
   -2.4134    0.3519   -4.9283 C   0  0  0  0  0  0  0  0  0  0  0  0
   -3.5251    1.0737   -4.3390 C   0  0  0  0  0  0  0  0  0  0  0  0
   -4.8036    0.6458   -4.1459 C   0  0  0  0  0  0  0  0  0  0  0  0
   -5.6475    1.6448   -3.6174 C   0  0  0  0  0  0  0  0  0  0  0  0
   -5.0235    2.8370   -3.4255 C   0  0  0  0  0  0  0  0  0  0  0  0
   -5.5940    4.1133   -2.9092 C   0  0  0  0  0  0  0  0  0  0  0  0
   -4.7373    4.7118   -1.7954 C   0  0  0  0  0  0  0  0  0  0  0  0
   -3.3568    2.7509   -3.8971 S   0  0  0  0  0  0  0  0  0  0  0  0
   -2.4725   -0.2341   -6.1898 C   0  0  0  0  0  0  0  0  0  0  0  0
   -1.2862   -0.8282   -6.6024 C   0  0  0  0  0  0  0  0  0  0  0  0
   -0.0591   -0.6217   -5.3830 S   0  0  0  0  0  0  0  0  0  0  0  0
   -1.0016   -1.3685   -7.8647 C   0  0  0  0  0  0  0  0  0  0  0  0
    0.1757   -1.9103   -8.3128 C   0  0  0  0  0  0  0  0  0  0  0  0
    0.4877   -1.8492   -9.7599 C   0  0  0  0  0  0  0  0  0  0  0  0
   -0.2831   -1.6618  -10.6727 O   0  0  0  0  0  0  0  0  0  0  0  0
    1.9634   -1.9953   -9.8362 C   0  0  0  0  0  0  0  0  0  0  0  0
    2.7888   -1.8580  -10.9326 C   0  0  0  0  0  0  0  0  0  0  0  0
    4.1611   -1.9872  -10.7457 C   0  0  0  0  0  0  0  0  0  0  0  0
    5.2451   -1.8199  -12.0709 Cl  0  0  0  0  0  0  0  0  0  0  0  0
    4.6584   -2.2512   -9.4688 C   0  0  0  0  0  0  0  0  0  0  0  0
    5.9822   -2.3579   -9.2925 F   0  0  0  0  0  0  0  0  0  0  0  0
    3.8338   -2.4058   -8.3644 C   0  0  0  0  0  0  0  0  0  0  0  0
    2.4692   -2.2754   -8.5545 C   0  0  0  0  0  0  0  0  0  0  0  0
    1.3473   -2.3951   -7.6245 C   0  0  0  0  0  0  0  0  0  0  0  0
    1.3813   -3.1017   -6.4465 C   0  0  0  0  0  0  0  0  0  0  0  0
    2.5601   -3.6059   -5.8695 C   0  0  0  0  0  0  0  0  0  0  0  0
    3.5006   -4.0065   -5.3441 N   0  0  0  0  0  0  0  0  0  0  0  0
    0.2234   -3.4680   -5.7298 C   0  0  0  0  0  0  0  0  0  0  0  0
   -0.6982   -3.8312   -5.1496 N   0  0  0  0  0  0  0  0  0  0  0  0
    1.3768    0.2447    7.2406 H   0  0  0  0  0  0  0  0  0  0  0  0
   -4.8450   -0.5701    7.1207 H   0  0  0  0  0  0  0  0  0  0  0  0
   -7.0149    1.0424    9.1237 H   0  0  0  0  0  0  0  0  0  0  0  0
   -6.8370   -0.3888   10.1304 H   0  0  0  0  0  0  0  0  0  0  0  0
   -6.9036   -0.5499    8.3683 H   0  0  0  0  0  0  0  0  0  0  0  0
   -4.9069    1.0277   11.0917 H   0  0  0  0  0  0  0  0  0  0  0  0
   -2.4847    1.3393   11.0532 H   0  0  0  0  0  0  0  0  0  0  0  0
    4.4479    1.0227    4.0562 H   0  0  0  0  0  0  0  0  0  0  0  0
    6.4348    0.7445    5.6961 H   0  0  0  0  0  0  0  0  0  0  0  0
    6.9807   -0.2502    8.0147 H   0  0  0  0  0  0  0  0  0  0  0  0
    5.5571   -0.4217    9.0527 H   0  0  0  0  0  0  0  0  0  0  0  0
    5.3090   -2.7959    8.3387 H   0  0  0  0  0  0  0  0  0  0  0  0
    6.7314   -2.6395    7.3040 H   0  0  0  0  0  0  0  0  0  0  0  0
    6.8969   -2.5113    9.0584 H   0  0  0  0  0  0  0  0  0  0  0  0
    2.7363   -0.0257    2.6798 H   0  0  0  0  0  0  0  0  0  0  0  0
   -3.9315    2.9098    1.5006 H   0  0  0  0  0  0  0  0  0  0  0  0
   -6.1601    2.6918    0.5394 H   0  0  0  0  0  0  0  0  0  0  0  0
   -9.4039    1.6896   -0.7655 H   0  0  0  0  0  0  0  0  0  0  0  0
   -7.9786    2.7448   -0.8728 H   0  0  0  0  0  0  0  0  0  0  0  0
   -8.4188    1.9758    0.6858 H   0  0  0  0  0  0  0  0  0  0  0  0
   -5.2639   -1.3241   -0.6294 H   0  0  0  0  0  0  0  0  0  0  0  0
   -3.0327   -1.1182    0.3893 H   0  0  0  0  0  0  0  0  0  0  0  0
   -3.7950    1.0694    3.5746 H   0  0  0  0  0  0  0  0  0  0  0  0
   -3.4753    2.1286    5.7699 H   0  0  0  0  0  0  0  0  0  0  0  0
    0.6479    4.7621    6.4896 H   0  0  0  0  0  0  0  0  0  0  0  0
    0.9995    3.0186    6.7274 H   0  0  0  0  0  0  0  0  0  0  0  0
    0.6143    4.0585    8.1177 H   0  0  0  0  0  0  0  0  0  0  0  0
    0.3094    3.6452    4.4814 H   0  0  0  0  0  0  0  0  0  0  0  0
   -0.0345    2.6497    2.2882 H   0  0  0  0  0  0  0  0  0  0  0  0
    0.1867   -2.5701   -2.5117 H   0  0  0  0  0  0  0  0  0  0  0  0
    1.1165   -4.7889   -2.0003 H   0  0  0  0  0  0  0  0  0  0  0  0
    5.5098   -6.8427   -3.0628 H   0  0  0  0  0  0  0  0  0  0  0  0
    5.0720   -5.2943   -3.8291 H   0  0  0  0  0  0  0  0  0  0  0  0
    6.0836   -5.3235   -2.3455 H   0  0  0  0  0  0  0  0  0  0  0  0
    5.0720   -3.2054   -2.3547 H   0  0  0  0  0  0  0  0  0  0  0  0
    4.1498   -0.9914   -2.8201 H   0  0  0  0  0  0  0  0  0  0  0  0
    1.3388    2.2472   -3.1676 H   0  0  0  0  0  0  0  0  0  0  0  0
    2.3146    3.7268   -4.8244 H   0  0  0  0  0  0  0  0  0  0  0  0
    2.4408    4.8853   -6.8625 H   0  0  0  0  0  0  0  0  0  0  0  0
    3.9645    5.4252   -7.6006 H   0  0  0  0  0  0  0  0  0  0  0  0
    3.9062    5.1169   -5.8519 H   0  0  0  0  0  0  0  0  0  0  0  0
    4.1249    0.3720   -6.7662 H   0  0  0  0  0  0  0  0  0  0  0  0
    3.1221   -1.1272   -5.0983 H   0  0  0  0  0  0  0  0  0  0  0  0
   -5.1229   -0.3601   -4.3509 H   0  0  0  0  0  0  0  0  0  0  0  0
   -6.6846    1.4749   -3.3914 H   0  0  0  0  0  0  0  0  0  0  0  0
   -6.6052    3.9159   -2.5456 H   0  0  0  0  0  0  0  0  0  0  0  0
   -5.6729    4.8363   -3.7273 H   0  0  0  0  0  0  0  0  0  0  0  0
   -4.5955    3.9868   -0.9972 H   0  0  0  0  0  0  0  0  0  0  0  0
   -3.7593    4.9870   -2.1834 H   0  0  0  0  0  0  0  0  0  0  0  0
   -5.2115    5.6012   -1.3871 H   0  0  0  0  0  0  0  0  0  0  0  0
   -3.3580   -0.2228   -6.8004 H   0  0  0  0  0  0  0  0  0  0  0  0
   -1.7594   -1.2156   -8.6264 H   0  0  0  0  0  0  0  0  0  0  0  0
    2.3793   -1.6533  -11.9088 H   0  0  0  0  0  0  0  0  0  0  0  0
    4.2768   -2.6078   -7.4027 H   0  0  0  0  0  0  0  0  0  0  0  0
  1  2  2  0  0  0  0
  2  3  1  0  0  0  0
  3  4  2  0  0  0  0
  3  5  1  0  0  0  0
  5  6  2  0  0  0  0
  6  7  1  0  0  0  0
  7  8  1  0  0  0  0
  7  9  2  0  0  0  0
  9 10  1  0  0  0  0
 10 11  2  0  0  0  0
 11 12  1  0  0  0  0
 12 13  2  0  0  0  0
 13 14  1  0  0  0  0
 14 15  3  0  0  0  0
 13 16  1  0  0  0  0
 16 17  3  0  0  0  0
  1 18  1  0  0  0  0
 18 19  2  0  0  0  0
 19 20  1  0  0  0  0
 20 21  2  0  0  0  0
 21 22  1  0  0  0  0
 22 23  2  0  0  0  0
 23 24  1  0  0  0  0
 24 25  1  0  0  0  0
 23 26  1  0  0  0  0
 19 27  1  0  0  0  0
 27 28  2  0  0  0  0
 28 29  1  0  0  0  0
 28 30  1  0  0  0  0
 30 31  2  0  0  0  0
 31 32  1  0  0  0  0
 32 33  1  0  0  0  0
 33 34  2  0  0  0  0
 34 35  1  0  0  0  0
 35 36  2  0  0  0  0
 36 37  1  0  0  0  0
 37 38  1  0  0  0  0
 36 39  1  0  0  0  0
 39 40  2  0  0  0  0
 32 41  1  0  0  0  0
 41 42  2  0  0  0  0
 42 43  1  0  0  0  0
 43 44  2  0  0  0  0
 44 45  1  0  0  0  0
 45 46  1  0  0  0  0
 44 47  1  0  0  0  0
 47 48  2  0  0  0  0
 31 49  1  0  0  0  0
 49 50  1  0  0  0  0
 50 51  1  0  0  0  0
 51 52  2  0  0  0  0
 52 53  1  0  0  0  0
 53 54  1  0  0  0  0
 54 55  2  0  0  0  0
 55 56  1  0  0  0  0
 56 57  2  0  0  0  0
 57 58  1  0  0  0  0
 58 59  1  0  0  0  0
 57 60  1  0  0  0  0
 60 61  2  0  0  0  0
 53 62  1  0  0  0  0
 62 63  2  0  0  0  0
 63 64  1  0  0  0  0
 64 65  2  0  0  0  0
 65 66  1  0  0  0  0
 66 67  1  0  0  0  0
 65 68  1  0  0  0  0
 68 69  2  0  0  0  0
 52 70  1  0  0  0  0
 70 71  1  0  0  0  0
 51 72  1  0  0  0  0
 72 73  2  0  0  0  0
 73 74  1  0  0  0  0
 74 75  2  0  0  0  0
 75 76  1  0  0  0  0
 76 77  2  0  0  0  0
 77 78  1  0  0  0  0
 78 79  1  0  0  0  0
 77 80  1  0  0  0  0
 73 81  1  0  0  0  0
 81 82  2  0  0  0  0
 82 83  1  0  0  0  0
 82 84  1  0  0  0  0
 84 85  2  0  0  0  0
 85 86  1  0  0  0  0
 86 87  2  0  0  0  0
 86 88  1  0  0  0  0
 88 89  2  0  0  0  0
 89 90  1  0  0  0  0
 90 91  1  0  0  0  0
 90 92  2  0  0  0  0
 92 93  1  0  0  0  0
 92 94  1  0  0  0  0
 94 95  2  0  0  0  0
 95 96  1  0  0  0  0
 96 97  2  0  0  0  0
 97 98  1  0  0  0  0
 98 99  3  0  0  0  0
 97100  1  0  0  0  0
100101  3  0  0  0  0
 12  2  1  0  0  0  0
 29 18  1  0  0  0  0
 71 30  1  0  0  0  0
 83 72  1  0  0  0  0
 96 85  1  0  0  0  0
 11  5  1  0  0  0  0
 26 20  1  0  0  0  0
 40 33  1  0  0  0  0
 48 41  1  0  0  0  0
 70 49  2  0  0  0  0
 80 74  1  0  0  0  0
 95 88  1  0  0  0  0
 61 54  1  0  0  0  0
 69 62  1  0  0  0  0
  1102  1  0  0  0  0
  6103  1  0  0  0  0
  8104  1  0  0  0  0
  8105  1  0  0  0  0
  8106  1  0  0  0  0
  9107  1  0  0  0  0
 10108  1  0  0  0  0
 21109  1  0  0  0  0
 22110  1  0  0  0  0
 24111  1  0  0  0  0
 24112  1  0  0  0  0
 25113  1  0  0  0  0
 25114  1  0  0  0  0
 25115  1  0  0  0  0
 27116  1  0  0  0  0
 34117  1  0  0  0  0
 35118  1  0  0  0  0
 38119  1  0  0  0  0
 38120  1  0  0  0  0
 38121  1  0  0  0  0
 39122  1  0  0  0  0
 40123  1  0  0  0  0
 42124  1  0  0  0  0
 43125  1  0  0  0  0
 46126  1  0  0  0  0
 46127  1  0  0  0  0
 46128  1  0  0  0  0
 47129  1  0  0  0  0
 48130  1  0  0  0  0
 55131  1  0  0  0  0
 56132  1  0  0  0  0
 59133  1  0  0  0  0
 59134  1  0  0  0  0
 59135  1  0  0  0  0
 60136  1  0  0  0  0
 61137  1  0  0  0  0
 63138  1  0  0  0  0
 64139  1  0  0  0  0
 67140  1  0  0  0  0
 67141  1  0  0  0  0
 67142  1  0  0  0  0
 68143  1  0  0  0  0
 69144  1  0  0  0  0
 75145  1  0  0  0  0
 76146  1  0  0  0  0
 78147  1  0  0  0  0
 78148  1  0  0  0  0
 79149  1  0  0  0  0
 79150  1  0  0  0  0
 79151  1  0  0  0  0
 81152  1  0  0  0  0
 84153  1  0  0  0  0
 89154  1  0  0  0  0
 94155  1  0  0  0  0
M  END
