155

C          0.47830        0.01210        6.68330
C         -0.70510        0.11840        7.37480
C         -2.02190       -0.28430        6.87870
O         -2.28400       -0.79590        5.80210
C         -2.97490        0.02020        7.96020
C         -4.34290       -0.15370        7.98160
C         -5.05100        0.21580        9.12240
C         -6.53800        0.06410        9.18710
C         -4.35480        0.74590       10.20680
C         -2.97980        0.92520       10.19030
C         -2.27650        0.56080        9.05320
C         -0.85700        0.63660        8.71600
C          0.12120        1.15620        9.52740
C         -0.11180        1.66260       10.82220
N         -0.21670        2.09400       11.88160
C          1.48380        1.29800        9.20000
N          2.60520        1.47870        9.01860
C          0.70180       -0.26690        5.33430
C          1.97420       -0.19190        4.71870
C          3.23410       -0.14060        5.40770
C          4.38740        0.46470        4.97330
C          5.46130        0.31950        5.86560
C          5.15140       -0.40930        6.97680
C          6.02510       -0.76650        8.12700
C          6.25610       -2.27600        8.21260
S          3.50750       -0.93510        6.93470
C          1.88290       -0.11940        3.32840
C          0.58350       -0.14490        2.85530
S         -0.55840       -0.41300        4.13420
C          0.21140        0.01560        1.49380
C         -0.96400        0.50830        0.92380
N         -2.05090        1.05180        1.58190
C         -3.32490        0.91680        1.00560
C         -4.22390        1.97870        1.03710
C         -5.48510        1.85280        0.48870
C         -5.86370        0.66260       -0.11750
S         -7.44600        0.38560       -0.84480
C         -8.39890        1.86480       -0.39420
C         -4.96320       -0.39930       -0.16210
C         -3.71220       -0.27940        0.40040
C         -1.91700        1.74960        2.78800
C         -2.90670        1.64890        3.76920
C         -2.72330        2.22940        5.00230
C         -1.54260        2.90860        5.29520
S         -1.35290        3.48700        6.95260
C          0.41720        3.87120        7.06640
C         -0.59110        3.08130        4.29880
C         -0.78570        2.51820        3.05280
C         -0.89080        0.45310       -0.49050
S         -1.97160        0.89820       -1.76840
C         -0.79120        0.40500       -2.97680
C          0.41470        0.00140       -2.39060
N          1.55050       -0.39540       -3.08020
C          2.10770       -1.63800       -2.72960
C          1.25630       -2.70940       -2.46040
C          1.77450       -3.95380       -2.18200
C          3.15150       -4.15420       -2.17850
S          3.74720       -5.78870       -1.89700
C          5.27170       -5.79820       -2.88880
C          4.00250       -3.07700       -2.39370
C          3.48460       -1.82680       -2.66050
C          2.15720        0.45180       -4.00860
C          1.94570        1.82780       -3.95640
C          2.50260        2.66810       -4.90040
C          3.29000        2.14950       -5.91940
S          4.04480        3.11170       -7.18820
C          3.52360        4.81140       -6.82140
C          3.51490        0.77360       -5.97140
C          2.95630       -0.06330       -5.03570
C          0.31970       -0.00610       -0.98580
S          1.42030       -0.40970        0.27850
C         -1.15740        0.19680       -4.32090
C         -2.41340        0.35190       -4.92830
C         -3.52510        1.07370       -4.33900
C         -4.80360        0.64580       -4.14590
C         -5.64750        1.64480       -3.61740
C         -5.02350        2.83700       -3.42550
C         -5.59400        4.11330       -2.90920
C         -4.73730        4.71180       -1.79540
S         -3.35680        2.75090       -3.89710
C         -2.47250       -0.23410       -6.18980
C         -1.28620       -0.82820       -6.60240
S         -0.05910       -0.62170       -5.38300
C         -1.00160       -1.36850       -7.86470
C          0.17570       -1.91030       -8.31280
C          0.48770       -1.84920       -9.75990
O         -0.28310       -1.66180      -10.67270
C          1.96340       -1.99530       -9.83620
C          2.78880       -1.85800      -10.93260
C          4.16110       -1.98720      -10.74570
Cl         5.24510       -1.81990      -12.07090
C          4.65840       -2.25120       -9.46880
F          5.98220       -2.35790       -9.29250
C          3.83380       -2.40580       -8.36440
C          2.46920       -2.27540       -8.55450
C          1.34730       -2.39510       -7.62450
C          1.38130       -3.10170       -6.44650
C          2.56010       -3.60590       -5.86950
N          3.50060       -4.00650       -5.34410
C          0.22340       -3.46800       -5.72980
N         -0.69820       -3.83120       -5.14960
H          1.37680        0.24470        7.24060
H         -4.84500       -0.57010        7.12070
H         -7.01490        1.04240        9.12370
H         -6.83700       -0.38880       10.13040
H         -6.90360       -0.54990        8.36830
H         -4.90690        1.02770       11.09170
H         -2.48470        1.33930       11.05320
H          4.44790        1.02270        4.05620
H          6.43480        0.74450        5.69610
H          6.98070       -0.25020        8.01470
H          5.55710       -0.42170        9.05270
H          5.30900       -2.79590        8.33870
H          6.73140       -2.63950        7.30400
H          6.89690       -2.51130        9.05840
H          2.73630       -0.02570        2.67980
H         -3.93150        2.90980        1.50060
H         -6.16010        2.69180        0.53940
H         -9.40390        1.68960       -0.76550
H         -7.97860        2.74480       -0.87280
H         -8.41880        1.97580        0.68580
H         -5.26390       -1.32410       -0.62940
H         -3.03270       -1.11820        0.38930
H         -3.79500        1.06940        3.57460
H         -3.47530        2.12860        5.76990
H          0.64790        4.76210        6.48960
H          0.99950        3.01860        6.72740
H          0.61430        4.05850        8.11770
H          0.30940        3.64520        4.48140
H         -0.03450        2.64970        2.28820
H          0.18670       -2.57010       -2.51170
H          1.11650       -4.78890       -2.00030
H          5.50980       -6.84270       -3.06280
H          5.07200       -5.29430       -3.82910
H          6.08360       -5.32350       -2.34550
H          5.07200       -3.20540       -2.35470
H          4.14980       -0.99140       -2.82010
H          1.33880        2.24720       -3.16760
H          2.31460        3.72680       -4.82440
H          2.44080        4.88530       -6.86250
H          3.96450        5.42520       -7.60060
H          3.90620        5.11690       -5.85190
H          4.12490        0.37200       -6.76620
H          3.12210       -1.12720       -5.09830
H         -5.12290       -0.36010       -4.35090
H         -6.68460        1.47490       -3.39140
H         -6.60520        3.91590       -2.54560
H         -5.67290        4.83630       -3.72730
H         -4.59550        3.98680       -0.99720
H         -3.75930        4.98700       -2.18340
H         -5.21150        5.60120       -1.38710
H         -3.35800       -0.22280       -6.80040
H         -1.75940       -1.21560       -8.62640
H          2.37930       -1.65330      -11.90880
H          4.27680       -2.60780       -7.40270
