
  xtb     02132209203D
 energy: -326.754446202168 gnorm: 0.000748646728 xtb: 6.4.1 (unknown)
199213  0     0  0            999 V2000
    1.5002   -1.5490    8.1502 C   0  0  0  0  0  0  0  0  0  0  0  0
    2.6617   -1.3662    8.8467 C   0  0  0  0  0  0  0  0  0  0  0  0
    3.7661   -0.6792    8.3204 C   0  0  0  0  0  0  0  0  0  0  0  0
    4.6158   -0.0222    7.9109 N   0  0  0  0  0  0  0  0  0  0  0  0
    2.7370   -1.8364   10.2431 C   0  0  0  0  0  0  0  0  0  0  0  0
    1.8096   -2.3150   10.8498 O   0  0  0  0  0  0  0  0  0  0  0  0
    3.9820   -1.7233   10.7270 O   0  0  0  0  0  0  0  0  0  0  0  0
    4.1992   -2.1995   12.0533 C   0  0  0  0  0  0  0  0  0  0  0  0
    3.7369   -1.1950   13.0986 C   0  0  0  0  0  0  0  0  0  0  0  0
    1.3241   -1.3831    6.7603 C   0  0  0  0  0  0  0  0  0  0  0  0
    2.2454   -1.5407    5.7187 C   0  0  0  0  0  0  0  0  0  0  0  0
    3.5210   -2.0491    5.8267 N   0  0  0  0  0  0  0  0  0  0  0  0
    4.5068   -1.5780    4.9438 C   0  0  0  0  0  0  0  0  0  0  0  0
    5.4666   -2.4438    4.4241 C   0  0  0  0  0  0  0  0  0  0  0  0
    6.3958   -1.9858    3.5188 C   0  0  0  0  0  0  0  0  0  0  0  0
    6.3924   -0.6519    3.1164 C   0  0  0  0  0  0  0  0  0  0  0  0
    7.6062   -0.1901    1.9209 S   0  0  0  0  0  0  0  0  0  0  0  0
    7.4754    1.6191    1.8422 C   0  0  0  0  0  0  0  0  0  0  0  0
    5.4573    0.2210    3.6549 C   0  0  0  0  0  0  0  0  0  0  0  0
    4.5263   -0.2394    4.5648 C   0  0  0  0  0  0  0  0  0  0  0  0
    3.8251   -3.0518    6.7575 C   0  0  0  0  0  0  0  0  0  0  0  0
    5.0648   -3.0811    7.3915 C   0  0  0  0  0  0  0  0  0  0  0  0
    5.3495   -4.0403    8.3427 C   0  0  0  0  0  0  0  0  0  0  0  0
    4.3966   -4.9916    8.6810 C   0  0  0  0  0  0  0  0  0  0  0  0
    4.6264   -6.2319    9.9126 S   0  0  0  0  0  0  0  0  0  0  0  0
    6.2226   -5.8064   10.6657 C   0  0  0  0  0  0  0  0  0  0  0  0
    3.1701   -4.9939    8.0180 C   0  0  0  0  0  0  0  0  0  0  0  0
    2.8896   -4.0413    7.0656 C   0  0  0  0  0  0  0  0  0  0  0  0
    1.6482   -1.2292    4.4742 C   0  0  0  0  0  0  0  0  0  0  0  0
    2.2085   -1.2762    2.8385 S   0  0  0  0  0  0  0  0  0  0  0  0
    0.6189   -0.8039    2.2599 C   0  0  0  0  0  0  0  0  0  0  0  0
   -0.2866   -0.6368    3.2916 C   0  0  0  0  0  0  0  0  0  0  0  0
   -1.6181   -0.2831    3.1105 N   0  0  0  0  0  0  0  0  0  0  0  0
   -2.4007   -0.9514    2.1677 C   0  0  0  0  0  0  0  0  0  0  0  0
   -3.4233   -0.2824    1.4939 C   0  0  0  0  0  0  0  0  0  0  0  0
   -4.2173   -0.9499    0.5897 C   0  0  0  0  0  0  0  0  0  0  0  0
   -4.0168   -2.3055    0.3358 C   0  0  0  0  0  0  0  0  0  0  0  0
   -5.0979   -3.0535   -0.8447 S   0  0  0  0  0  0  0  0  0  0  0  0
   -4.7653   -4.8281   -0.6842 C   0  0  0  0  0  0  0  0  0  0  0  0
   -2.9904   -2.9736    0.9903 C   0  0  0  0  0  0  0  0  0  0  0  0
   -2.1900   -2.3008    1.8928 C   0  0  0  0  0  0  0  0  0  0  0  0
   -2.1531    0.7142    3.9380 C   0  0  0  0  0  0  0  0  0  0  0  0
   -1.3634    1.7939    4.3215 C   0  0  0  0  0  0  0  0  0  0  0  0
   -1.8587    2.7690    5.1648 C   0  0  0  0  0  0  0  0  0  0  0  0
   -3.1640    2.6875    5.6279 C   0  0  0  0  0  0  0  0  0  0  0  0
   -3.9110    3.8615    6.7104 S   0  0  0  0  0  0  0  0  0  0  0  0
   -2.6082    5.0931    6.9867 C   0  0  0  0  0  0  0  0  0  0  0  0
   -3.9620    1.6138    5.2362 C   0  0  0  0  0  0  0  0  0  0  0  0
   -3.4638    0.6339    4.4084 C   0  0  0  0  0  0  0  0  0  0  0  0
    0.3064   -0.8898    4.5499 C   0  0  0  0  0  0  0  0  0  0  0  0
   -0.2860   -0.9546    6.1679 S   0  0  0  0  0  0  0  0  0  0  0  0
    0.3495   -0.4120    0.9006 C   0  0  0  0  0  0  0  0  0  0  0  0
    0.3359   -1.1013   -0.2942 C   0  0  0  0  0  0  0  0  0  0  0  0
    0.5826   -2.4531   -0.4506 N   0  0  0  0  0  0  0  0  0  0  0  0
   -0.1538   -3.2210   -1.3560 C   0  0  0  0  0  0  0  0  0  0  0  0
    0.4018   -4.3760   -1.9038 C   0  0  0  0  0  0  0  0  0  0  0  0
   -0.3118   -5.1565   -2.7925 C   0  0  0  0  0  0  0  0  0  0  0  0
   -1.5913   -4.7819   -3.1771 C   0  0  0  0  0  0  0  0  0  0  0  0
   -2.6100   -5.7045   -4.2890 S   0  0  0  0  0  0  0  0  0  0  0  0
   -1.4833   -6.9502   -4.9769 C   0  0  0  0  0  0  0  0  0  0  0  0
   -2.1475   -3.6212   -2.6455 C   0  0  0  0  0  0  0  0  0  0  0  0
   -1.4489   -2.8611   -1.7347 C   0  0  0  0  0  0  0  0  0  0  0  0
    1.5944   -3.0788    0.3065 C   0  0  0  0  0  0  0  0  0  0  0  0
    1.2853   -4.1700    1.1109 C   0  0  0  0  0  0  0  0  0  0  0  0
    2.2728   -4.8127    1.8295 C   0  0  0  0  0  0  0  0  0  0  0  0
    3.5883   -4.3740    1.7449 C   0  0  0  0  0  0  0  0  0  0  0  0
    4.9223   -5.1772    2.5751 S   0  0  0  0  0  0  0  0  0  0  0  0
    4.0988   -6.0482    3.9434 C   0  0  0  0  0  0  0  0  0  0  0  0
    3.9033   -3.2840    0.9376 C   0  0  0  0  0  0  0  0  0  0  0  0
    2.9137   -2.6386    0.2259 C   0  0  0  0  0  0  0  0  0  0  0  0
   -0.0604   -0.2501   -1.3622 C   0  0  0  0  0  0  0  0  0  0  0  0
   -0.2179   -0.4713   -3.0667 S   0  0  0  0  0  0  0  0  0  0  0  0
   -0.8110    1.1690   -3.2464 C   0  0  0  0  0  0  0  0  0  0  0  0
   -0.8049    1.8748   -2.0570 C   0  0  0  0  0  0  0  0  0  0  0  0
   -1.1240    3.2162   -1.9155 N   0  0  0  0  0  0  0  0  0  0  0  0
   -1.5598    3.7415   -0.6911 C   0  0  0  0  0  0  0  0  0  0  0  0
   -2.4184    3.0385    0.1548 C   0  0  0  0  0  0  0  0  0  0  0  0
   -2.8190    3.5903    1.3533 C   0  0  0  0  0  0  0  0  0  0  0  0
   -2.3853    4.8567    1.7292 C   0  0  0  0  0  0  0  0  0  0  0  0
   -2.9474    5.4655    3.2868 S   0  0  0  0  0  0  0  0  0  0  0  0
   -2.6938    7.2622    3.1544 C   0  0  0  0  0  0  0  0  0  0  0  0
   -1.5380    5.5661    0.8884 C   0  0  0  0  0  0  0  0  0  0  0  0
   -1.1317    5.0114   -0.3072 C   0  0  0  0  0  0  0  0  0  0  0  0
   -0.9857    4.0956   -3.0047 C   0  0  0  0  0  0  0  0  0  0  0  0
   -2.0140    4.9865   -3.3120 C   0  0  0  0  0  0  0  0  0  0  0  0
   -1.9259    5.7859   -4.4285 C   0  0  0  0  0  0  0  0  0  0  0  0
   -0.8107    5.7137   -5.2619 C   0  0  0  0  0  0  0  0  0  0  0  0
   -0.8641    6.6927   -6.7291 S   0  0  0  0  0  0  0  0  0  0  0  0
    0.7052    6.3228   -7.5636 C   0  0  0  0  0  0  0  0  0  0  0  0
    0.2449    4.8812   -4.9201 C   0  0  0  0  0  0  0  0  0  0  0  0
    0.1570    4.0824   -3.7963 C   0  0  0  0  0  0  0  0  0  0  0  0
   -0.3760    1.0427   -0.9864 C   0  0  0  0  0  0  0  0  0  0  0  0
   -0.1235    1.2784    0.7041 S   0  0  0  0  0  0  0  0  0  0  0  0
   -1.1203    1.6450   -4.5875 C   0  0  0  0  0  0  0  0  0  0  0  0
   -0.1368    1.5508   -5.5808 C   0  0  0  0  0  0  0  0  0  0  0  0
   -0.2998    2.1216   -6.8201 C   0  0  0  0  0  0  0  0  0  0  0  0
   -1.4618    2.8365   -7.1525 C   0  0  0  0  0  0  0  0  0  0  0  0
   -2.4515    2.9451   -6.1724 C   0  0  0  0  0  0  0  0  0  0  0  0
   -3.6828    3.7121   -6.1000 C   0  0  0  0  0  0  0  0  0  0  0  0
   -3.9486    4.7926   -6.8743 C   0  0  0  0  0  0  0  0  0  0  0  0
   -5.0506    5.7012   -6.9021 C   0  0  0  0  0  0  0  0  0  0  0  0
   -6.3134    5.6075   -6.2416 C   0  0  0  0  0  0  0  0  0  0  0  0
   -7.1315    6.6401   -6.5323 C   0  0  0  0  0  0  0  0  0  0  0  0
   -6.4036    7.7728   -7.6181 S   0  0  0  0  0  0  0  0  0  0  0  0
   -4.9847    6.8350   -7.6862 C   0  0  0  0  0  0  0  0  0  0  0  0
   -4.3730    3.2328   -4.8788 C   0  0  0  0  0  0  0  0  0  0  0  0
   -5.4742    3.4914   -4.4410 O   0  0  0  0  0  0  0  0  0  0  0  0
   -3.4821    2.4081   -4.2175 N   0  0  0  0  0  0  0  0  0  0  0  0
   -3.9186    1.5914   -3.1082 C   0  0  0  0  0  0  0  0  0  0  0  0
   -4.0669    0.1256   -3.5047 C   0  0  0  0  0  0  0  0  0  0  0  0
   -2.3148    2.2692   -4.9419 C   0  0  0  0  0  0  0  0  0  0  0  0
   -1.5614    3.3240   -8.5087 C   0  0  0  0  0  0  0  0  0  0  0  0
   -2.6355    3.2673   -9.3282 C   0  0  0  0  0  0  0  0  0  0  0  0
   -3.8767    2.7033   -8.9702 C   0  0  0  0  0  0  0  0  0  0  0  0
   -4.8812    2.2152   -8.7096 N   0  0  0  0  0  0  0  0  0  0  0  0
   -2.5075    3.8097  -10.7070 C   0  0  0  0  0  0  0  0  0  0  0  0
   -1.5008    4.3258  -11.1294 O   0  0  0  0  0  0  0  0  0  0  0  0
   -3.6364    3.6563  -11.3963 O   0  0  0  0  0  0  0  0  0  0  0  0
   -3.6697    4.1797  -12.7236 C   0  0  0  0  0  0  0  0  0  0  0  0
   -4.0039    5.6645  -12.7205 C   0  0  0  0  0  0  0  0  0  0  0  0
    0.6352   -1.8489    8.7308 H   0  0  0  0  0  0  0  0  0  0  0  0
    3.6672   -3.1492   12.1794 H   0  0  0  0  0  0  0  0  0  0  0  0
    5.2776   -2.3616   12.1168 H   0  0  0  0  0  0  0  0  0  0  0  0
    4.2232   -0.2359   12.9363 H   0  0  0  0  0  0  0  0  0  0  0  0
    3.9882   -1.5599   14.0904 H   0  0  0  0  0  0  0  0  0  0  0  0
    2.6599   -1.0624   13.0338 H   0  0  0  0  0  0  0  0  0  0  0  0
    5.4780   -3.4781    4.7277 H   0  0  0  0  0  0  0  0  0  0  0  0
    7.1278   -2.6622    3.1053 H   0  0  0  0  0  0  0  0  0  0  0  0
    6.5172    1.9088    1.4209 H   0  0  0  0  0  0  0  0  0  0  0  0
    8.2780    1.9418    1.1863 H   0  0  0  0  0  0  0  0  0  0  0  0
    7.6157    2.0404    2.8332 H   0  0  0  0  0  0  0  0  0  0  0  0
    5.4413    1.2629    3.3796 H   0  0  0  0  0  0  0  0  0  0  0  0
    3.8154    0.4483    4.9970 H   0  0  0  0  0  0  0  0  0  0  0  0
    5.8014   -2.3297    7.1535 H   0  0  0  0  0  0  0  0  0  0  0  0
    6.3144   -4.0208    8.8217 H   0  0  0  0  0  0  0  0  0  0  0  0
    6.1911   -4.7883   11.0427 H   0  0  0  0  0  0  0  0  0  0  0  0
    6.3514   -6.5024   11.4889 H   0  0  0  0  0  0  0  0  0  0  0  0
    7.0246   -5.9373    9.9449 H   0  0  0  0  0  0  0  0  0  0  0  0
    2.4403   -5.7492    8.2653 H   0  0  0  0  0  0  0  0  0  0  0  0
    1.9335   -4.0529    6.5627 H   0  0  0  0  0  0  0  0  0  0  0  0
   -3.5944    0.7623    1.6979 H   0  0  0  0  0  0  0  0  0  0  0  0
   -5.0088   -0.4297    0.0716 H   0  0  0  0  0  0  0  0  0  0  0  0
   -4.9161   -5.1359    0.3464 H   0  0  0  0  0  0  0  0  0  0  0  0
   -5.4880   -5.3185   -1.3289 H   0  0  0  0  0  0  0  0  0  0  0  0
   -3.7592   -5.0535   -1.0268 H   0  0  0  0  0  0  0  0  0  0  0  0
   -2.8052   -4.0196    0.8050 H   0  0  0  0  0  0  0  0  0  0  0  0
   -1.3990   -2.8304    2.4037 H   0  0  0  0  0  0  0  0  0  0  0  0
   -0.3525    1.8737    3.9483 H   0  0  0  0  0  0  0  0  0  0  0  0
   -1.2182    3.5895    5.4420 H   0  0  0  0  0  0  0  0  0  0  0  0
   -1.7578    4.6308    7.4793 H   0  0  0  0  0  0  0  0  0  0  0  0
   -2.3260    5.5403    6.0385 H   0  0  0  0  0  0  0  0  0  0  0  0
   -3.0478    5.8434    7.6365 H   0  0  0  0  0  0  0  0  0  0  0  0
   -4.9756    1.5540    5.6018 H   0  0  0  0  0  0  0  0  0  0  0  0
   -4.0844   -0.2030    4.1258 H   0  0  0  0  0  0  0  0  0  0  0  0
    1.4048   -4.6686   -1.6312 H   0  0  0  0  0  0  0  0  0  0  0  0
    0.1500   -6.0489   -3.1834 H   0  0  0  0  0  0  0  0  0  0  0  0
   -2.0503   -7.4634   -5.7474 H   0  0  0  0  0  0  0  0  0  0  0  0
   -0.6198   -6.4601   -5.4168 H   0  0  0  0  0  0  0  0  0  0  0  0
   -1.1871   -7.6573   -4.2073 H   0  0  0  0  0  0  0  0  0  0  0  0
   -3.1402   -3.3252   -2.9481 H   0  0  0  0  0  0  0  0  0  0  0  0
   -1.9157   -1.9881   -1.3077 H   0  0  0  0  0  0  0  0  0  0  0  0
    0.2636   -4.5171    1.1610 H   0  0  0  0  0  0  0  0  0  0  0  0
    2.0099   -5.6588    2.4442 H   0  0  0  0  0  0  0  0  0  0  0  0
    4.8906   -6.3574    4.6190 H   0  0  0  0  0  0  0  0  0  0  0  0
    3.4239   -5.3680    4.4548 H   0  0  0  0  0  0  0  0  0  0  0  0
    3.5733   -6.9249    3.5766 H   0  0  0  0  0  0  0  0  0  0  0  0
    4.9278   -2.9514    0.8774 H   0  0  0  0  0  0  0  0  0  0  0  0
    3.1546   -1.7908   -0.3976 H   0  0  0  0  0  0  0  0  0  0  0  0
   -2.7869    2.0654   -0.1321 H   0  0  0  0  0  0  0  0  0  0  0  0
   -3.4835    3.0534    2.0133 H   0  0  0  0  0  0  0  0  0  0  0  0
   -3.2392    7.6992    3.9851 H   0  0  0  0  0  0  0  0  0  0  0  0
   -3.1052    7.6164    2.2144 H   0  0  0  0  0  0  0  0  0  0  0  0
   -1.6385    7.5063    3.2387 H   0  0  0  0  0  0  0  0  0  0  0  0
   -1.1780    6.5460    1.1585 H   0  0  0  0  0  0  0  0  0  0  0  0
   -0.4676    5.5652   -0.9544 H   0  0  0  0  0  0  0  0  0  0  0  0
   -2.8910    5.0275   -2.6837 H   0  0  0  0  0  0  0  0  0  0  0  0
   -2.7314    6.4577   -4.6825 H   0  0  0  0  0  0  0  0  0  0  0  0
    0.7929    5.2538   -7.7305 H   0  0  0  0  0  0  0  0  0  0  0  0
    1.5370    6.6996   -6.9755 H   0  0  0  0  0  0  0  0  0  0  0  0
    0.6602    6.8422   -8.5158 H   0  0  0  0  0  0  0  0  0  0  0  0
    1.1401    4.8377   -5.5185 H   0  0  0  0  0  0  0  0  0  0  0  0
    0.9786    3.4316   -3.5372 H   0  0  0  0  0  0  0  0  0  0  0  0
    0.7821    1.0348   -5.3445 H   0  0  0  0  0  0  0  0  0  0  0  0
    0.4734    2.0076   -7.5657 H   0  0  0  0  0  0  0  0  0  0  0  0
   -3.1771    5.0579   -7.5883 H   0  0  0  0  0  0  0  0  0  0  0  0
   -6.5691    4.7975   -5.5859 H   0  0  0  0  0  0  0  0  0  0  0  0
   -8.1287    6.8213   -6.1842 H   0  0  0  0  0  0  0  0  0  0  0  0
   -4.1560    7.1633   -8.2832 H   0  0  0  0  0  0  0  0  0  0  0  0
   -3.2223    1.6897   -2.2751 H   0  0  0  0  0  0  0  0  0  0  0  0
   -4.8879    1.9994   -2.8082 H   0  0  0  0  0  0  0  0  0  0  0  0
   -3.1114   -0.2941   -3.8117 H   0  0  0  0  0  0  0  0  0  0  0  0
   -4.4423   -0.4494   -2.6619 H   0  0  0  0  0  0  0  0  0  0  0  0
   -4.7678    0.0295   -4.3304 H   0  0  0  0  0  0  0  0  0  0  0  0
   -0.6479    3.6889   -8.9678 H   0  0  0  0  0  0  0  0  0  0  0  0
   -2.6978    4.0083  -13.1985 H   0  0  0  0  0  0  0  0  0  0  0  0
   -4.4428    3.6023  -13.2338 H   0  0  0  0  0  0  0  0  0  0  0  0
   -4.9386    5.8359  -12.1916 H   0  0  0  0  0  0  0  0  0  0  0  0
   -3.2111    6.2244  -12.2298 H   0  0  0  0  0  0  0  0  0  0  0  0
   -4.1028    6.0177  -13.7427 H   0  0  0  0  0  0  0  0  0  0  0  0
  1  2  2  0  0  0  0
  2  3  1  0  0  0  0
  3  4  3  0  0  0  0
  2  5  1  0  0  0  0
  5  6  2  0  0  0  0
  5  7  1  0  0  0  0
  7  8  1  0  0  0  0
  8  9  1  0  0  0  0
  1 10  1  0  0  0  0
 10 11  2  0  0  0  0
 11 12  1  0  0  0  0
 12 13  1  0  0  0  0
 13 14  2  0  0  0  0
 14 15  1  0  0  0  0
 15 16  2  0  0  0  0
 16 17  1  0  0  0  0
 17 18  1  0  0  0  0
 16 19  1  0  0  0  0
 19 20  2  0  0  0  0
 12 21  1  0  0  0  0
 21 22  2  0  0  0  0
 22 23  1  0  0  0  0
 23 24  2  0  0  0  0
 24 25  1  0  0  0  0
 25 26  1  0  0  0  0
 24 27  1  0  0  0  0
 27 28  2  0  0  0  0
 11 29  1  0  0  0  0
 29 30  1  0  0  0  0
 30 31  1  0  0  0  0
 31 32  2  0  0  0  0
 32 33  1  0  0  0  0
 33 34  1  0  0  0  0
 34 35  2  0  0  0  0
 35 36  1  0  0  0  0
 36 37  2  0  0  0  0
 37 38  1  0  0  0  0
 38 39  1  0  0  0  0
 37 40  1  0  0  0  0
 40 41  2  0  0  0  0
 33 42  1  0  0  0  0
 42 43  2  0  0  0  0
 43 44  1  0  0  0  0
 44 45  2  0  0  0  0
 45 46  1  0  0  0  0
 46 47  1  0  0  0  0
 45 48  1  0  0  0  0
 48 49  2  0  0  0  0
 32 50  1  0  0  0  0
 50 51  1  0  0  0  0
 31 52  1  0  0  0  0
 52 53  2  0  0  0  0
 53 54  1  0  0  0  0
 54 55  1  0  0  0  0
 55 56  2  0  0  0  0
 56 57  1  0  0  0  0
 57 58  2  0  0  0  0
 58 59  1  0  0  0  0
 59 60  1  0  0  0  0
 58 61  1  0  0  0  0
 61 62  2  0  0  0  0
 54 63  1  0  0  0  0
 63 64  2  0  0  0  0
 64 65  1  0  0  0  0
 65 66  2  0  0  0  0
 66 67  1  0  0  0  0
 67 68  1  0  0  0  0
 66 69  1  0  0  0  0
 69 70  2  0  0  0  0
 53 71  1  0  0  0  0
 71 72  1  0  0  0  0
 72 73  1  0  0  0  0
 73 74  2  0  0  0  0
 74 75  1  0  0  0  0
 75 76  1  0  0  0  0
 76 77  2  0  0  0  0
 77 78  1  0  0  0  0
 78 79  2  0  0  0  0
 79 80  1  0  0  0  0
 80 81  1  0  0  0  0
 79 82  1  0  0  0  0
 82 83  2  0  0  0  0
 75 84  1  0  0  0  0
 84 85  2  0  0  0  0
 85 86  1  0  0  0  0
 86 87  2  0  0  0  0
 87 88  1  0  0  0  0
 88 89  1  0  0  0  0
 87 90  1  0  0  0  0
 90 91  2  0  0  0  0
 74 92  1  0  0  0  0
 92 93  1  0  0  0  0
 73 94  1  0  0  0  0
 94 95  2  0  0  0  0
 95 96  1  0  0  0  0
 96 97  2  0  0  0  0
 97 98  1  0  0  0  0
 98 99  1  0  0  0  0
 99100  2  0  0  0  0
100101  1  0  0  0  0
101102  1  0  0  0  0
102103  2  0  0  0  0
103104  1  0  0  0  0
104105  1  0  0  0  0
 99106  1  0  0  0  0
106107  2  0  0  0  0
106108  1  0  0  0  0
108109  1  0  0  0  0
109110  1  0  0  0  0
108111  1  0  0  0  0
 97112  1  0  0  0  0
112113  2  0  0  0  0
113114  1  0  0  0  0
114115  3  0  0  0  0
113116  1  0  0  0  0
116117  2  0  0  0  0
116118  1  0  0  0  0
118119  1  0  0  0  0
119120  1  0  0  0  0
 51 10  1  0  0  0  0
 93 52  1  0  0  0  0
111 94  1  0  0  0  0
 20 13  1  0  0  0  0
 28 21  1  0  0  0  0
 50 29  2  0  0  0  0
 62 55  1  0  0  0  0
 70 63  1  0  0  0  0
 92 71  2  0  0  0  0
111 98  2  0  0  0  0
 41 34  1  0  0  0  0
 49 42  1  0  0  0  0
 83 76  1  0  0  0  0
 91 84  1  0  0  0  0
105101  2  0  0  0  0
  1121  1  0  0  0  0
  8122  1  0  0  0  0
  8123  1  0  0  0  0
  9124  1  0  0  0  0
  9125  1  0  0  0  0
  9126  1  0  0  0  0
 14127  1  0  0  0  0
 15128  1  0  0  0  0
 18129  1  0  0  0  0
 18130  1  0  0  0  0
 18131  1  0  0  0  0
 19132  1  0  0  0  0
 20133  1  0  0  0  0
 22134  1  0  0  0  0
 23135  1  0  0  0  0
 26136  1  0  0  0  0
 26137  1  0  0  0  0
 26138  1  0  0  0  0
 27139  1  0  0  0  0
 28140  1  0  0  0  0
 35141  1  0  0  0  0
 36142  1  0  0  0  0
 39143  1  0  0  0  0
 39144  1  0  0  0  0
 39145  1  0  0  0  0
 40146  1  0  0  0  0
 41147  1  0  0  0  0
 43148  1  0  0  0  0
 44149  1  0  0  0  0
 47150  1  0  0  0  0
 47151  1  0  0  0  0
 47152  1  0  0  0  0
 48153  1  0  0  0  0
 49154  1  0  0  0  0
 56155  1  0  0  0  0
 57156  1  0  0  0  0
 60157  1  0  0  0  0
 60158  1  0  0  0  0
 60159  1  0  0  0  0
 61160  1  0  0  0  0
 62161  1  0  0  0  0
 64162  1  0  0  0  0
 65163  1  0  0  0  0
 68164  1  0  0  0  0
 68165  1  0  0  0  0
 68166  1  0  0  0  0
 69167  1  0  0  0  0
 70168  1  0  0  0  0
 77169  1  0  0  0  0
 78170  1  0  0  0  0
 81171  1  0  0  0  0
 81172  1  0  0  0  0
 81173  1  0  0  0  0
 82174  1  0  0  0  0
 83175  1  0  0  0  0
 85176  1  0  0  0  0
 86177  1  0  0  0  0
 89178  1  0  0  0  0
 89179  1  0  0  0  0
 89180  1  0  0  0  0
 90181  1  0  0  0  0
 91182  1  0  0  0  0
 95183  1  0  0  0  0
 96184  1  0  0  0  0
100185  1  0  0  0  0
102186  1  0  0  0  0
103187  1  0  0  0  0
105188  1  0  0  0  0
109189  1  0  0  0  0
109190  1  0  0  0  0
110191  1  0  0  0  0
110192  1  0  0  0  0
110193  1  0  0  0  0
112194  1  0  0  0  0
119195  1  0  0  0  0
119196  1  0  0  0  0
120197  1  0  0  0  0
120198  1  0  0  0  0
120199  1  0  0  0  0
M  END
