192

C         -2.10790       -1.06860       -8.65190
C         -2.99800       -0.39120       -9.42450
C         -3.25010       -0.80450      -10.74140
N         -3.42850       -1.11880      -11.83180
C         -3.73860        0.83320       -8.99420
O         -4.93660        0.93750       -8.94040
O         -2.88460        1.81730       -8.70290
C         -3.44430        3.03360       -8.20370
C         -2.37630        3.76870       -7.41580
C         -1.80440       -0.82160       -7.29340
C         -0.77880       -1.40230       -6.53610
N          0.21410       -2.21280       -7.03980
C          0.81180       -3.16470       -6.20050
C          0.03540       -3.91120       -5.31320
C          0.62910       -4.81740       -4.46380
C          2.00850       -5.01050       -4.48860
S          2.66580       -6.14610       -3.30700
C          4.41910       -6.28530       -3.76170
C          2.78120       -4.29530       -5.39460
C          2.18670       -3.37840       -6.23860
C          0.73110       -2.01850       -8.33370
C          1.08480       -3.11850       -9.11460
C          1.56880       -2.93570      -10.39080
C          1.70530       -1.65350      -10.91900
S          2.32030       -1.53410      -12.56750
C          1.89200        0.16120      -13.05670
C          1.37830       -0.55490      -10.13400
C          0.90240       -0.73730       -8.85120
C         -0.86310       -1.01880       -5.17660
S          0.10210       -1.29170       -3.74850
C         -0.97880       -0.27290       -2.79790
C         -1.95170        0.33900       -3.58700
N         -2.85140        1.33140       -3.23470
C         -2.45730        2.50150       -2.58470
C         -3.39200        3.23140       -1.84570
C         -3.02270        4.39550       -1.21380
C         -1.71650        4.87270       -1.31590
S         -1.34880        6.38420       -0.47700
C          0.46790        6.43150       -0.45500
C         -0.79210        4.16440       -2.06930
C         -1.15470        2.98050       -2.68440
C         -4.11730        1.24810       -3.84390
C         -4.80800        0.03710       -3.80590
C         -5.99560       -0.10590       -4.48710
C         -6.51560        0.95510       -5.22450
S         -8.02720        0.67830       -6.09030
C         -7.88120        1.78920       -7.52060
C         -5.85150        2.17610       -5.22760
C         -4.66160        2.32220       -4.54300
C         -1.89900       -0.14120       -4.91660
S         -2.81340        0.24480       -6.32580
C         -0.79150       -0.24800       -1.38030
C         -1.72670        0.15580       -0.43450
F         -2.98000        0.49060       -0.78930
C         -1.44030        0.19340        0.93180
F         -2.39500        0.70510        1.73180
C         -0.24190       -0.24480        1.47580
C          0.65540       -0.86500        0.55760
N          1.71090       -1.55840        1.01120
C          2.51920       -2.14560        0.16140
C          3.61540       -2.98070        0.74870
C          3.15410       -4.43410        0.88840
C          2.31470       -2.02300       -1.23800
N          1.26920       -1.36860       -1.68190
C          0.40020       -0.81410       -0.83360
C          3.22360       -2.59970       -2.27700
C          4.35250       -1.62700       -2.61990
C          0.07210       -0.11530        2.87560
C          1.30360        0.15410        3.46150
N          2.50590        0.44280        2.84770
C          3.67120        0.04980        3.54510
C          4.70620        0.95080        3.76310
C          5.79160        0.57900        4.53420
C          5.87030       -0.68650        5.10130
C          6.99350       -1.06800        6.00990
C          4.84800       -1.59370        4.84300
C          3.76040       -1.23610        4.07340
C          2.61010        1.03770        1.59480
C          1.62380        1.89700        1.11220
C          1.67760        2.36170       -0.18600
C          2.73570        2.03500       -1.02540
C          2.75180        2.46330       -2.46070
C          3.76830        1.26660       -0.50300
C          3.70850        0.76450        0.77990
C          1.18860        0.15450        4.87500
S          2.31680        0.43710        6.14760
C          1.05020        0.21250        7.35210
C         -0.20360        0.00020        6.76510
N         -1.39290       -0.13850        7.43920
C         -1.67970        0.63580        8.57600
C         -1.28530        1.97030        8.64370
C         -1.56170        2.71790        9.77040
C         -2.24520        2.16670       10.84860
C         -2.51360        2.97490       12.07980
C         -2.65170        0.84020       10.76360
C         -2.37460        0.07810        9.64580
C         -2.38310       -0.98920        6.91500
C         -3.72150       -0.60800        6.92430
C         -4.68300       -1.45230        6.40750
C         -4.34110       -2.68640        5.86570
C         -5.38980       -3.57880        5.27760
C         -3.00280       -3.05880        5.86440
C         -2.03130       -2.22770        6.38610
C         -0.09170       -0.06690        5.35520
S         -1.21710       -0.27910        4.06300
C          1.37000        0.20700        8.72790
C          2.62090        0.21450        9.26110
C          2.79590        0.25310       10.65010
N          2.95880        0.32960       11.78610
C          3.90640        0.03660        8.48990
O          4.32340       -1.05900        8.22510
O          4.60430        1.11760        8.14210
C          4.16430        2.43050        8.46420
C          4.81330        2.92720        9.74940
H         -1.60820       -1.91650       -9.10470
H         -3.79390        3.63000       -9.05380
H         -4.30340        2.78670       -7.57020
H         -2.77790        4.70800       -7.04650
H         -1.51740        3.97350       -8.04930
H         -2.05350        3.16370       -6.57240
H         -1.03550       -3.77800       -5.29650
H          0.03090       -5.38800       -3.77040
H          4.50750       -6.61610       -4.79200
H          4.83390       -7.03660       -3.09690
H          4.92540       -5.33680       -3.60630
H          3.84990       -4.42750       -5.44300
H          2.79690       -2.81270       -6.92680
H          0.96300       -4.11520       -8.71750
H          1.83270       -3.78530      -11.00120
H          2.07830        0.21360      -14.12490
H          0.84030        0.34080      -12.85430
H          2.52490        0.87700      -12.53950
H          1.49900        0.44940      -10.50640
H          0.65340        0.12240       -8.24710
H         -4.40100        2.86020       -1.75770
H         -3.73980        4.94990       -0.62840
H          0.85520        6.62400       -1.45150
H          0.72960        7.25460        0.20230
H          0.85570        5.50010       -0.05280
H          0.21080        4.53760       -2.20350
H         -0.42280        2.43610       -3.26300
H         -4.39410       -0.78900       -3.24730
H         -6.52940       -1.04330       -4.46810
H         -8.00870        2.82410       -7.21640
H         -8.68510        1.50560       -8.19250
H         -6.92230        1.62320       -8.00210
H         -6.25480        3.01720       -5.76950
H         -4.13930        3.26780       -4.56230
H          3.85570       -2.58510        1.73610
H          4.50750       -2.93220        0.12440
H          2.28360       -4.48550        1.53740
H          3.94760       -5.03690        1.32290
H          2.88510       -4.85620       -0.07780
H          2.62610       -2.77500       -3.17200
H          3.63700       -3.54730       -1.93300
H          3.93350       -0.68980       -2.97600
H          4.98110       -2.04520       -3.40260
H          4.97030       -1.42330       -1.74810
H          4.64250        1.94520        3.34480
H          6.57910        1.29550        4.71820
H          6.60360       -1.16390        7.02290
H          7.77850       -0.31640        6.00590
H          7.41760       -2.02860        5.72270
H          4.89760       -2.58260        5.27320
H          2.95480       -1.93400        3.89460
H          0.80330        2.18790        1.75040
H          0.87060        2.97770       -0.55360
H          3.76880        2.49870       -2.84490
H          2.18740        1.74790       -3.06170
H          2.29580        3.44240       -2.58530
H          4.62500        1.03780       -1.12000
H          4.50040        0.13110        1.15060
H         -0.76180        2.41370        7.80920
H         -1.24850        3.75110        9.81060
H         -2.61480        4.03030       11.83760
H         -1.68440        2.86770       12.78000
H         -3.41930        2.63640       12.57720
H         -3.18610        0.39330       11.58890
H         -2.68880       -0.95390        9.59500
H         -4.00020        0.35210        7.33250
H         -5.71810       -1.14370        6.41650
H         -5.57950       -3.29350        4.24230
H         -6.32540       -3.49150        5.82530
H         -5.06840       -4.61740        5.28830
H         -2.71560       -4.01690        5.45610
H         -0.99620       -2.53710        6.39340
H          0.53700        0.18550        9.41960
H          3.07210        2.45800        8.54710
H          4.47260        3.04620        7.61490
H          4.52740        3.96020        9.92590
H          4.49640        2.32470       10.59760
H          5.89500        2.86740        9.66420
