
  xtb     02032219383D
 energy: -188.206857021064 gnorm: 0.000507828677 xtb: 6.4.1 (unknown)
104107  0     0  0            999 V2000
    7.8280   -1.8771   -1.0890 C   0  0  0  0  0  0  0  0  0  0  0  0
    8.3800   -1.8987   -2.3147 C   0  0  0  0  0  0  0  0  0  0  0  0
    9.7535   -2.1657   -2.4967 C   0  0  0  0  0  0  0  0  0  0  0  0
   10.8648   -2.3961   -2.6582 N   0  0  0  0  0  0  0  0  0  0  0  0
    7.5799   -1.7342   -3.5754 C   0  0  0  0  0  0  0  0  0  0  0  0
    6.4691   -2.1765   -3.7164 O   0  0  0  0  0  0  0  0  0  0  0  0
    8.2749   -1.0762   -4.4916 O   0  0  0  0  0  0  0  0  0  0  0  0
    7.6444   -0.8558   -5.7554 C   0  0  0  0  0  0  0  0  0  0  0  0
    7.7635   -2.0774   -6.6544 C   0  0  0  0  0  0  0  0  0  0  0  0
    6.4292   -1.5758   -0.8174 C   0  0  0  0  0  0  0  0  0  0  0  0
    5.7675   -0.5141   -1.4308 C   0  0  0  0  0  0  0  0  0  0  0  0
    6.4423    0.3115   -2.2514 F   0  0  0  0  0  0  0  0  0  0  0  0
    4.4260   -0.2777   -1.1902 C   0  0  0  0  0  0  0  0  0  0  0  0
    3.8077    0.7216   -1.8367 F   0  0  0  0  0  0  0  0  0  0  0  0
    3.7155   -1.0775   -0.3032 C   0  0  0  0  0  0  0  0  0  0  0  0
    4.3724   -2.1190    0.3640 C   0  0  0  0  0  0  0  0  0  0  0  0
    3.6434   -2.8541    1.2517 O   0  0  0  0  0  0  0  0  0  0  0  0
    4.1171   -2.8869    2.5994 C   0  0  0  0  0  0  0  0  0  0  0  0
    3.2492   -3.8692    3.3659 C   0  0  0  0  0  0  0  0  0  0  0  0
    5.7215   -2.3824    0.0882 C   0  0  0  0  0  0  0  0  0  0  0  0
    6.3946   -3.4164    0.6755 O   0  0  0  0  0  0  0  0  0  0  0  0
    5.9003   -4.7267    0.3720 C   0  0  0  0  0  0  0  0  0  0  0  0
    6.6532   -5.7201    1.2384 C   0  0  0  0  0  0  0  0  0  0  0  0
    2.2941   -0.8201   -0.0285 C   0  0  0  0  0  0  0  0  0  0  0  0
    1.3362   -1.7859   -0.2251 C   0  0  0  0  0  0  0  0  0  0  0  0
    1.6692   -2.9843   -0.7222 F   0  0  0  0  0  0  0  0  0  0  0  0
   -0.0212   -1.5391    0.0499 C   0  0  0  0  0  0  0  0  0  0  0  0
   -0.8956   -2.5390   -0.1441 F   0  0  0  0  0  0  0  0  0  0  0  0
   -0.4569   -0.3247    0.5196 C   0  0  0  0  0  0  0  0  0  0  0  0
    0.5086    0.6892    0.7346 C   0  0  0  0  0  0  0  0  0  0  0  0
    0.1204    1.8956    1.1826 N   0  0  0  0  0  0  0  0  0  0  0  0
    1.0201    2.8228    1.3933 C   0  0  0  0  0  0  0  0  0  0  0  0
    0.4887    4.1389    1.8739 C   0  0  0  0  0  0  0  0  0  0  0  0
    0.4127    5.1576    0.7350 C   0  0  0  0  0  0  0  0  0  0  0  0
    2.4054    2.5564    1.1708 C   0  0  0  0  0  0  0  0  0  0  0  0
    2.7963    1.3856    0.7331 N   0  0  0  0  0  0  0  0  0  0  0  0
    1.8797    0.4375    0.4761 C   0  0  0  0  0  0  0  0  0  0  0  0
    3.5023    3.5544    1.3910 C   0  0  0  0  0  0  0  0  0  0  0  0
    4.1069    3.9749    0.0489 C   0  0  0  0  0  0  0  0  0  0  0  0
   -1.8794   -0.0571    0.7980 C   0  0  0  0  0  0  0  0  0  0  0  0
   -2.2769    0.2715    2.0844 C   0  0  0  0  0  0  0  0  0  0  0  0
   -1.3748    0.2950    3.0758 F   0  0  0  0  0  0  0  0  0  0  0  0
   -3.6057    0.5452    2.3599 C   0  0  0  0  0  0  0  0  0  0  0  0
   -3.9580    0.9395    3.5941 F   0  0  0  0  0  0  0  0  0  0  0  0
   -4.5551    0.5120    1.3405 C   0  0  0  0  0  0  0  0  0  0  0  0
   -4.1640    0.1754    0.0283 C   0  0  0  0  0  0  0  0  0  0  0  0
   -5.0903    0.1893   -0.9780 O   0  0  0  0  0  0  0  0  0  0  0  0
   -6.2385   -0.6594   -0.8802 C   0  0  0  0  0  0  0  0  0  0  0  0
   -7.4645    0.0632   -1.4162 C   0  0  0  0  0  0  0  0  0  0  0  0
   -2.8151   -0.1083   -0.2527 C   0  0  0  0  0  0  0  0  0  0  0  0
   -2.2620   -0.3358   -1.4621 O   0  0  0  0  0  0  0  0  0  0  0  0
   -2.9954   -0.8824   -2.5515 C   0  0  0  0  0  0  0  0  0  0  0  0
   -3.3048   -2.3594   -2.3391 C   0  0  0  0  0  0  0  0  0  0  0  0
   -5.9244    0.9348    1.5801 C   0  0  0  0  0  0  0  0  0  0  0  0
   -6.7183    0.6134    2.6199 C   0  0  0  0  0  0  0  0  0  0  0  0
   -6.3784   -0.3170    3.6255 C   0  0  0  0  0  0  0  0  0  0  0  0
   -6.1312   -1.1174    4.4073 N   0  0  0  0  0  0  0  0  0  0  0  0
   -8.0957    1.1902    2.6593 C   0  0  0  0  0  0  0  0  0  0  0  0
   -8.5559    1.8576    1.7655 O   0  0  0  0  0  0  0  0  0  0  0  0
   -8.7324    0.8522    3.7736 O   0  0  0  0  0  0  0  0  0  0  0  0
  -10.0602    1.3493    3.9485 C   0  0  0  0  0  0  0  0  0  0  0  0
  -10.0506    2.7573    4.5249 C   0  0  0  0  0  0  0  0  0  0  0  0
    8.4337   -2.1234   -0.2261 H   0  0  0  0  0  0  0  0  0  0  0  0
    6.5921   -0.6061   -5.5853 H   0  0  0  0  0  0  0  0  0  0  0  0
    8.1677    0.0022   -6.1809 H   0  0  0  0  0  0  0  0  0  0  0  0
    8.8077   -2.3594   -6.7669 H   0  0  0  0  0  0  0  0  0  0  0  0
    7.2151   -2.9126   -6.2253 H   0  0  0  0  0  0  0  0  0  0  0  0
    7.3485   -1.8499   -7.6320 H   0  0  0  0  0  0  0  0  0  0  0  0
    4.0277   -1.8783    3.0266 H   0  0  0  0  0  0  0  0  0  0  0  0
    5.1694   -3.1863    2.6354 H   0  0  0  0  0  0  0  0  0  0  0  0
    2.2079   -3.5637    3.3124 H   0  0  0  0  0  0  0  0  0  0  0  0
    3.5592   -3.8984    4.4065 H   0  0  0  0  0  0  0  0  0  0  0  0
    3.3395   -4.8641    2.9380 H   0  0  0  0  0  0  0  0  0  0  0  0
    4.8231   -4.7835    0.5578 H   0  0  0  0  0  0  0  0  0  0  0  0
    6.0797   -4.9272   -0.6926 H   0  0  0  0  0  0  0  0  0  0  0  0
    7.7214   -5.6387    1.0562 H   0  0  0  0  0  0  0  0  0  0  0  0
    6.4650   -5.5243    2.2909 H   0  0  0  0  0  0  0  0  0  0  0  0
    6.3277   -6.7287    1.0016 H   0  0  0  0  0  0  0  0  0  0  0  0
   -0.5147    3.9605    2.2622 H   0  0  0  0  0  0  0  0  0  0  0  0
    1.1108    4.5279    2.6817 H   0  0  0  0  0  0  0  0  0  0  0  0
   -0.1977    4.7655   -0.0748 H   0  0  0  0  0  0  0  0  0  0  0  0
    1.4012    5.3849    0.3448 H   0  0  0  0  0  0  0  0  0  0  0  0
   -0.0372    6.0802    1.0931 H   0  0  0  0  0  0  0  0  0  0  0  0
    3.1390    4.4281    1.9294 H   0  0  0  0  0  0  0  0  0  0  0  0
    4.2816    3.0740    1.9862 H   0  0  0  0  0  0  0  0  0  0  0  0
    4.9363    4.6591    0.2093 H   0  0  0  0  0  0  0  0  0  0  0  0
    3.3639    4.4686   -0.5733 H   0  0  0  0  0  0  0  0  0  0  0  0
    4.4679    3.1001   -0.4837 H   0  0  0  0  0  0  0  0  0  0  0  0
   -6.0439   -1.5508   -1.4917 H   0  0  0  0  0  0  0  0  0  0  0  0
   -6.3942   -0.9788    0.1548 H   0  0  0  0  0  0  0  0  0  0  0  0
   -8.2877   -0.6405   -1.5013 H   0  0  0  0  0  0  0  0  0  0  0  0
   -7.7688    0.8737   -0.7595 H   0  0  0  0  0  0  0  0  0  0  0  0
   -7.2464    0.4723   -2.3991 H   0  0  0  0  0  0  0  0  0  0  0  0
   -3.9052   -0.3073   -2.7356 H   0  0  0  0  0  0  0  0  0  0  0  0
   -2.3180   -0.7590   -3.4007 H   0  0  0  0  0  0  0  0  0  0  0  0
   -3.8939   -2.5022   -1.4358 H   0  0  0  0  0  0  0  0  0  0  0  0
   -2.3830   -2.9241   -2.2309 H   0  0  0  0  0  0  0  0  0  0  0  0
   -3.8587   -2.7447   -3.1906 H   0  0  0  0  0  0  0  0  0  0  0  0
   -6.3516    1.5870    0.8255 H   0  0  0  0  0  0  0  0  0  0  0  0
  -10.5736    1.3365    2.9812 H   0  0  0  0  0  0  0  0  0  0  0  0
  -10.5344    0.6449    4.6342 H   0  0  0  0  0  0  0  0  0  0  0  0
   -9.4897    2.7766    5.4561 H   0  0  0  0  0  0  0  0  0  0  0  0
  -11.0704    3.0779    4.7167 H   0  0  0  0  0  0  0  0  0  0  0  0
   -9.5916    3.4468    3.8204 H   0  0  0  0  0  0  0  0  0  0  0  0
  1  2  2  0  0  0  0
  2  3  1  0  0  0  0
  3  4  3  0  0  0  0
  2  5  1  0  0  0  0
  5  6  2  0  0  0  0
  5  7  1  0  0  0  0
  7  8  1  0  0  0  0
  8  9  1  0  0  0  0
  1 10  1  0  0  0  0
 10 11  2  0  0  0  0
 11 12  1  0  0  0  0
 11 13  1  0  0  0  0
 13 14  1  0  0  0  0
 13 15  2  0  0  0  0
 15 16  1  0  0  0  0
 16 17  1  0  0  0  0
 17 18  1  0  0  0  0
 18 19  1  0  0  0  0
 16 20  2  0  0  0  0
 20 21  1  0  0  0  0
 21 22  1  0  0  0  0
 22 23  1  0  0  0  0
 15 24  1  0  0  0  0
 24 25  2  0  0  0  0
 25 26  1  0  0  0  0
 25 27  1  0  0  0  0
 27 28  1  0  0  0  0
 27 29  2  0  0  0  0
 29 30  1  0  0  0  0
 30 31  2  0  0  0  0
 31 32  1  0  0  0  0
 32 33  1  0  0  0  0
 33 34  1  0  0  0  0
 32 35  2  0  0  0  0
 35 36  1  0  0  0  0
 36 37  2  0  0  0  0
 35 38  1  0  0  0  0
 38 39  1  0  0  0  0
 29 40  1  0  0  0  0
 40 41  2  0  0  0  0
 41 42  1  0  0  0  0
 41 43  1  0  0  0  0
 43 44  1  0  0  0  0
 43 45  2  0  0  0  0
 45 46  1  0  0  0  0
 46 47  1  0  0  0  0
 47 48  1  0  0  0  0
 48 49  1  0  0  0  0
 46 50  2  0  0  0  0
 50 51  1  0  0  0  0
 51 52  1  0  0  0  0
 52 53  1  0  0  0  0
 45 54  1  0  0  0  0
 54 55  2  0  0  0  0
 55 56  1  0  0  0  0
 56 57  3  0  0  0  0
 55 58  1  0  0  0  0
 58 59  2  0  0  0  0
 58 60  1  0  0  0  0
 60 61  1  0  0  0  0
 61 62  1  0  0  0  0
 20 10  1  0  0  0  0
 37 24  1  0  0  0  0
 50 40  1  0  0  0  0
 37 30  1  0  0  0  0
  1 63  1  0  0  0  0
  8 64  1  0  0  0  0
  8 65  1  0  0  0  0
  9 66  1  0  0  0  0
  9 67  1  0  0  0  0
  9 68  1  0  0  0  0
 18 69  1  0  0  0  0
 18 70  1  0  0  0  0
 19 71  1  0  0  0  0
 19 72  1  0  0  0  0
 19 73  1  0  0  0  0
 22 74  1  0  0  0  0
 22 75  1  0  0  0  0
 23 76  1  0  0  0  0
 23 77  1  0  0  0  0
 23 78  1  0  0  0  0
 33 79  1  0  0  0  0
 33 80  1  0  0  0  0
 34 81  1  0  0  0  0
 34 82  1  0  0  0  0
 34 83  1  0  0  0  0
 38 84  1  0  0  0  0
 38 85  1  0  0  0  0
 39 86  1  0  0  0  0
 39 87  1  0  0  0  0
 39 88  1  0  0  0  0
 48 89  1  0  0  0  0
 48 90  1  0  0  0  0
 49 91  1  0  0  0  0
 49 92  1  0  0  0  0
 49 93  1  0  0  0  0
 52 94  1  0  0  0  0
 52 95  1  0  0  0  0
 53 96  1  0  0  0  0
 53 97  1  0  0  0  0
 53 98  1  0  0  0  0
 54 99  1  0  0  0  0
 61100  1  0  0  0  0
 61101  1  0  0  0  0
 62102  1  0  0  0  0
 62103  1  0  0  0  0
 62104  1  0  0  0  0
M  END
