199

C          1.50020       -1.54900        8.15020
C          2.66170       -1.36620        8.84670
C          3.76610       -0.67920        8.32040
N          4.61580       -0.02220        7.91090
C          2.73700       -1.83640       10.24310
O          1.80960       -2.31500       10.84980
O          3.98200       -1.72330       10.72700
C          4.19920       -2.19950       12.05330
C          3.73690       -1.19500       13.09860
C          1.32410       -1.38310        6.76030
C          2.24540       -1.54070        5.71870
N          3.52100       -2.04910        5.82670
C          4.50680       -1.57800        4.94380
C          5.46660       -2.44380        4.42410
C          6.39580       -1.98580        3.51880
C          6.39240       -0.65190        3.11640
S          7.60620       -0.19010        1.92090
C          7.47540        1.61910        1.84220
C          5.45730        0.22100        3.65490
C          4.52630       -0.23940        4.56480
C          3.82510       -3.05180        6.75750
C          5.06480       -3.08110        7.39150
C          5.34950       -4.04030        8.34270
C          4.39660       -4.99160        8.68100
S          4.62640       -6.23190        9.91260
C          6.22260       -5.80640       10.66570
C          3.17010       -4.99390        8.01800
C          2.88960       -4.04130        7.06560
C          1.64820       -1.22920        4.47420
S          2.20850       -1.27620        2.83850
C          0.61890       -0.80390        2.25990
C         -0.28660       -0.63680        3.29160
N         -1.61810       -0.28310        3.11050
C         -2.40070       -0.95140        2.16770
C         -3.42330       -0.28240        1.49390
C         -4.21730       -0.94990        0.58970
C         -4.01680       -2.30550        0.33580
S         -5.09790       -3.05350       -0.84470
C         -4.76530       -4.82810       -0.68420
C         -2.99040       -2.97360        0.99030
C         -2.19000       -2.30080        1.89280
C         -2.15310        0.71420        3.93800
C         -1.36340        1.79390        4.32150
C         -1.85870        2.76900        5.16480
C         -3.16400        2.68750        5.62790
S         -3.91100        3.86150        6.71040
C         -2.60820        5.09310        6.98670
C         -3.96200        1.61380        5.23620
C         -3.46380        0.63390        4.40840
C          0.30640       -0.88980        4.54990
S         -0.28600       -0.95460        6.16790
C          0.34950       -0.41200        0.90060
C          0.33590       -1.10130       -0.29420
N          0.58260       -2.45310       -0.45060
C         -0.15380       -3.22100       -1.35600
C          0.40180       -4.37600       -1.90380
C         -0.31180       -5.15650       -2.79250
C         -1.59130       -4.78190       -3.17710
S         -2.61000       -5.70450       -4.28900
C         -1.48330       -6.95020       -4.97690
C         -2.14750       -3.62120       -2.64550
C         -1.44890       -2.86110       -1.73470
C          1.59440       -3.07880        0.30650
C          1.28530       -4.17000        1.11090
C          2.27280       -4.81270        1.82950
C          3.58830       -4.37400        1.74490
S          4.92230       -5.17720        2.57510
C          4.09880       -6.04820        3.94340
C          3.90330       -3.28400        0.93760
C          2.91370       -2.63860        0.22590
C         -0.06040       -0.25010       -1.36220
S         -0.21790       -0.47130       -3.06670
C         -0.81100        1.16900       -3.24640
C         -0.80490        1.87480       -2.05700
N         -1.12400        3.21620       -1.91550
C         -1.55980        3.74150       -0.69110
C         -2.41840        3.03850        0.15480
C         -2.81900        3.59030        1.35330
C         -2.38530        4.85670        1.72920
S         -2.94740        5.46550        3.28680
C         -2.69380        7.26220        3.15440
C         -1.53800        5.56610        0.88840
C         -1.13170        5.01140       -0.30720
C         -0.98570        4.09560       -3.00470
C         -2.01400        4.98650       -3.31200
C         -1.92590        5.78590       -4.42850
C         -0.81070        5.71370       -5.26190
S         -0.86410        6.69270       -6.72910
C          0.70520        6.32280       -7.56360
C          0.24490        4.88120       -4.92010
C          0.15700        4.08240       -3.79630
C         -0.37600        1.04270       -0.98640
S         -0.12350        1.27840        0.70410
C         -1.12030        1.64500       -4.58750
C         -0.13680        1.55080       -5.58080
C         -0.29980        2.12160       -6.82010
C         -1.46180        2.83650       -7.15250
C         -2.45150        2.94510       -6.17240
C         -3.68280        3.71210       -6.10000
C         -3.94860        4.79260       -6.87430
C         -5.05060        5.70120       -6.90210
C         -6.31340        5.60750       -6.24160
C         -7.13150        6.64010       -6.53230
S         -6.40360        7.77280       -7.61810
C         -4.98470        6.83500       -7.68620
C         -4.37300        3.23280       -4.87880
O         -5.47420        3.49140       -4.44100
N         -3.48210        2.40810       -4.21750
C         -3.91860        1.59140       -3.10820
C         -4.06690        0.12560       -3.50470
C         -2.31480        2.26920       -4.94190
C         -1.56140        3.32400       -8.50870
C         -2.63550        3.26730       -9.32820
C         -3.87670        2.70330       -8.97020
N         -4.88120        2.21520       -8.70960
C         -2.50750        3.80970      -10.70700
O         -1.50080        4.32580      -11.12940
O         -3.63640        3.65630      -11.39630
C         -3.66970        4.17970      -12.72360
C         -4.00390        5.66450      -12.72050
H          0.63520       -1.84890        8.73080
H          3.66720       -3.14920       12.17940
H          5.27760       -2.36160       12.11680
H          4.22320       -0.23590       12.93630
H          3.98820       -1.55990       14.09040
H          2.65990       -1.06240       13.03380
H          5.47800       -3.47810        4.72770
H          7.12780       -2.66220        3.10530
H          6.51720        1.90880        1.42090
H          8.27800        1.94180        1.18630
H          7.61570        2.04040        2.83320
H          5.44130        1.26290        3.37960
H          3.81540        0.44830        4.99700
H          5.80140       -2.32970        7.15350
H          6.31440       -4.02080        8.82170
H          6.19110       -4.78830       11.04270
H          6.35140       -6.50240       11.48890
H          7.02460       -5.93730        9.94490
H          2.44030       -5.74920        8.26530
H          1.93350       -4.05290        6.56270
H         -3.59440        0.76230        1.69790
H         -5.00880       -0.42970        0.07160
H         -4.91610       -5.13590        0.34640
H         -5.48800       -5.31850       -1.32890
H         -3.75920       -5.05350       -1.02680
H         -2.80520       -4.01960        0.80500
H         -1.39900       -2.83040        2.40370
H         -0.35250        1.87370        3.94830
H         -1.21820        3.58950        5.44200
H         -1.75780        4.63080        7.47930
H         -2.32600        5.54030        6.03850
H         -3.04780        5.84340        7.63650
H         -4.97560        1.55400        5.60180
H         -4.08440       -0.20300        4.12580
H          1.40480       -4.66860       -1.63120
H          0.15000       -6.04890       -3.18340
H         -2.05030       -7.46340       -5.74740
H         -0.61980       -6.46010       -5.41680
H         -1.18710       -7.65730       -4.20730
H         -3.14020       -3.32520       -2.94810
H         -1.91570       -1.98810       -1.30770
H          0.26360       -4.51710        1.16100
H          2.00990       -5.65880        2.44420
H          4.89060       -6.35740        4.61900
H          3.42390       -5.36800        4.45480
H          3.57330       -6.92490        3.57660
H          4.92780       -2.95140        0.87740
H          3.15460       -1.79080       -0.39760
H         -2.78690        2.06540       -0.13210
H         -3.48350        3.05340        2.01330
H         -3.23920        7.69920        3.98510
H         -3.10520        7.61640        2.21440
H         -1.63850        7.50630        3.23870
H         -1.17800        6.54600        1.15850
H         -0.46760        5.56520       -0.95440
H         -2.89100        5.02750       -2.68370
H         -2.73140        6.45770       -4.68250
H          0.79290        5.25380       -7.73050
H          1.53700        6.69960       -6.97550
H          0.66020        6.84220       -8.51580
H          1.14010        4.83770       -5.51850
H          0.97860        3.43160       -3.53720
H          0.78210        1.03480       -5.34450
H          0.47340        2.00760       -7.56570
H         -3.17710        5.05790       -7.58830
H         -6.56910        4.79750       -5.58590
H         -8.12870        6.82130       -6.18420
H         -4.15600        7.16330       -8.28320
H         -3.22230        1.68970       -2.27510
H         -4.88790        1.99940       -2.80820
H         -3.11140       -0.29410       -3.81170
H         -4.44230       -0.44940       -2.66190
H         -4.76780        0.02950       -4.33040
H         -0.64790        3.68890       -8.96780
H         -2.69780        4.00830      -13.19850
H         -4.44280        3.60230      -13.23380
H         -4.93860        5.83590      -12.19160
H         -3.21110        6.22440      -12.22980
H         -4.10280        6.01770      -13.74270
