104

C          7.82800       -1.87710       -1.08900
C          8.38000       -1.89870       -2.31470
C          9.75350       -2.16570       -2.49670
N         10.86480       -2.39610       -2.65820
C          7.57990       -1.73420       -3.57540
O          6.46910       -2.17650       -3.71640
O          8.27490       -1.07620       -4.49160
C          7.64440       -0.85580       -5.75540
C          7.76350       -2.07740       -6.65440
C          6.42920       -1.57580       -0.81740
C          5.76750       -0.51410       -1.43080
F          6.44230        0.31150       -2.25140
C          4.42600       -0.27770       -1.19020
F          3.80770        0.72160       -1.83670
C          3.71550       -1.07750       -0.30320
C          4.37240       -2.11900        0.36400
O          3.64340       -2.85410        1.25170
C          4.11710       -2.88690        2.59940
C          3.24920       -3.86920        3.36590
C          5.72150       -2.38240        0.08820
O          6.39460       -3.41640        0.67550
C          5.90030       -4.72670        0.37200
C          6.65320       -5.72010        1.23840
C          2.29410       -0.82010       -0.02850
C          1.33620       -1.78590       -0.22510
F          1.66920       -2.98430       -0.72220
C         -0.02120       -1.53910        0.04990
F         -0.89560       -2.53900       -0.14410
C         -0.45690       -0.32470        0.51960
C          0.50860        0.68920        0.73460
N          0.12040        1.89560        1.18260
C          1.02010        2.82280        1.39330
C          0.48870        4.13890        1.87390
C          0.41270        5.15760        0.73500
C          2.40540        2.55640        1.17080
N          2.79630        1.38560        0.73310
C          1.87970        0.43750        0.47610
C          3.50230        3.55440        1.39100
C          4.10690        3.97490        0.04890
C         -1.87940       -0.05710        0.79800
C         -2.27690        0.27150        2.08440
F         -1.37480        0.29500        3.07580
C         -3.60570        0.54520        2.35990
F         -3.95800        0.93950        3.59410
C         -4.55510        0.51200        1.34050
C         -4.16400        0.17540        0.02830
O         -5.09030        0.18930       -0.97800
C         -6.23850       -0.65940       -0.88020
C         -7.46450        0.06320       -1.41620
C         -2.81510       -0.10830       -0.25270
O         -2.26200       -0.33580       -1.46210
C         -2.99540       -0.88240       -2.55150
C         -3.30480       -2.35940       -2.33910
C         -5.92440        0.93480        1.58010
C         -6.71830        0.61340        2.61990
C         -6.37840       -0.31700        3.62550
N         -6.13120       -1.11740        4.40730
C         -8.09570        1.19020        2.65930
O         -8.55590        1.85760        1.76550
O         -8.73240        0.85220        3.77360
C        -10.06020        1.34930        3.94850
C        -10.05060        2.75730        4.52490
H          8.43370       -2.12340       -0.22610
H          6.59210       -0.60610       -5.58530
H          8.16770        0.00220       -6.18090
H          8.80770       -2.35940       -6.76690
H          7.21510       -2.91260       -6.22530
H          7.34850       -1.84990       -7.63200
H          4.02770       -1.87830        3.02660
H          5.16940       -3.18630        2.63540
H          2.20790       -3.56370        3.31240
H          3.55920       -3.89840        4.40650
H          3.33950       -4.86410        2.93800
H          4.82310       -4.78350        0.55780
H          6.07970       -4.92720       -0.69260
H          7.72140       -5.63870        1.05620
H          6.46500       -5.52430        2.29090
H          6.32770       -6.72870        1.00160
H         -0.51470        3.96050        2.26220
H          1.11080        4.52790        2.68170
H         -0.19770        4.76550       -0.07480
H          1.40120        5.38490        0.34480
H         -0.03720        6.08020        1.09310
H          3.13900        4.42810        1.92940
H          4.28160        3.07400        1.98620
H          4.93630        4.65910        0.20930
H          3.36390        4.46860       -0.57330
H          4.46790        3.10010       -0.48370
H         -6.04390       -1.55080       -1.49170
H         -6.39420       -0.97880        0.15480
H         -8.28770       -0.64050       -1.50130
H         -7.76880        0.87370       -0.75950
H         -7.24640        0.47230       -2.39910
H         -3.90520       -0.30730       -2.73560
H         -2.31800       -0.75900       -3.40070
H         -3.89390       -2.50220       -1.43580
H         -2.38300       -2.92410       -2.23090
H         -3.85870       -2.74470       -3.19060
H         -6.35160        1.58700        0.82550
H        -10.57360        1.33650        2.98120
H        -10.53440        0.64490        4.63420
H         -9.48970        2.77660        5.45610
H        -11.07040        3.07790        4.71670
H         -9.59160        3.44680        3.82040
