210

C         -6.37120        2.51550       -5.92430
C         -6.94500        1.47640       -6.59360
C         -6.58160        0.04340       -6.49390
O         -5.63670       -0.46740       -5.92280
C         -7.66160       -0.68670       -7.18960
C         -7.79860       -2.04880       -7.37560
C         -8.92410       -2.51250       -8.04100
C         -9.88540       -1.62350       -8.49950
C         -9.74710       -0.25320       -8.32380
C         -8.62130        0.22050       -7.66820
C         -8.18030        1.57570       -7.35400
C         -8.78670        2.72750       -7.77750
C         -8.29800        4.03610       -7.57240
N         -7.96200        5.13070       -7.48280
C         -9.98040        2.76300       -8.52920
N        -10.94670        2.86340       -9.14090
C         -5.16600        2.53050       -5.16350
C         -3.99680        1.80150       -5.46570
C         -3.68300        1.10380       -6.66270
C         -2.49350        0.45960       -6.62470
C         -1.83360       -0.36790       -7.67380
C         -2.42520       -0.16060       -9.06290
S         -1.68130        0.67640       -5.09290
C         -2.94860        1.72880       -4.52370
C         -2.97450        2.39930       -3.30260
C         -4.03540        3.30540       -3.10840
C         -5.10310        3.34240       -4.02130
S         -6.33090        4.45230       -3.50360
C         -5.36880        4.93660       -2.12780
C         -5.86220        6.00610       -1.21750
C         -5.83180        7.37450       -1.90060
C         -4.20820        4.24910       -2.05540
C         -2.00590        2.14810       -2.26040
C         -2.26560        1.88030       -0.92530
N         -3.52560        1.82890       -0.33620
C         -4.61310        1.32830       -1.06440
C         -5.87830        1.90870       -0.96850
C         -6.91350        1.46060       -1.76040
C         -6.71100        0.42490       -2.66590
S         -8.07560       -0.05900       -3.68680
C         -7.77230       -1.83800       -3.89340
C         -5.46240       -0.17450       -2.75140
C         -4.43030        0.26640       -1.94900
C         -3.70880        2.45780        0.89980
C         -4.66230        1.98440        1.80150
C         -4.90800        2.66180        2.97600
C         -4.20130        3.82040        3.27770
S         -4.60860        4.69000        4.76840
C         -4.42810        6.42270        4.23950
C         -3.19950        4.25660        2.42350
C         -2.95690        3.58040        1.24630
C         -1.07190        1.57520       -0.22750
S         -0.69000        1.10470        1.39670
C          1.00660        0.88830        0.96250
C          1.25250        1.24790       -0.35990
N          2.48560        1.20960       -1.00460
C          3.58270        1.91950       -0.51470
C          4.87720        1.57370       -0.91040
C          5.96270        2.23090       -0.38160
C          5.79210        3.24360        0.56150
S          7.26420        3.99400        1.18230
C          6.67020        5.12490        2.47240
C          4.50790        3.60050        0.94770
C          3.41560        2.94720        0.41030
C          2.46170        0.64850       -2.29130
C          1.73520       -0.52350       -2.48630
C          1.57150       -1.05550       -3.74890
C          2.15410       -0.42840       -4.84160
S          1.99290       -1.00120       -6.50320
C          0.91260       -2.45430       -6.35680
C          2.92060        0.71820       -4.64560
C          3.06870        1.25830       -3.38760
C          0.06150        1.60990       -1.02260
S         -0.30510        2.01030       -2.66040
C          1.91120        0.21070        1.81480
C          1.75020       -0.18710        3.14300
N          0.76770        0.25220        4.01440
C          0.41000        1.59950        4.11330
C         -0.80590        1.92920        4.71410
C         -1.17090        3.24570        4.88940
C         -0.32920        4.26020        4.45400
S         -0.73590        5.97280        4.67620
C         -1.43910        5.95950        6.35470
C          0.86290        3.94230        3.81690
C          1.23660        2.62490        3.65410
C          0.46560       -0.60690        5.09620
C          0.62460       -0.18230        6.41160
C          0.41340       -1.05120        7.46270
C          0.04330       -2.36650        7.21100
S         -0.18960       -3.57790        8.46860
C         -0.07160       -2.63520       10.01670
C         -0.14330       -2.78800        5.89570
C          0.06350       -1.91780        4.84770
C          2.76320       -1.09380        3.52100
S          3.09340       -1.96410        4.97340
C          4.57290       -2.63060        4.27510
C          4.80230       -2.13320        2.97590
N          5.92420       -2.36720        2.23470
C          7.18620       -2.56350        2.83370
C          7.56030       -1.85550        3.97140
C          8.79920       -2.05950        4.54450
C          9.68860       -2.96680        3.98190
S         11.29370       -3.30710        4.62430
C         11.34880       -2.37590        6.18130
C          9.32240       -3.65910        2.82860
C          8.08460       -3.46090        2.25910
C          5.86610       -2.22510        0.83520
C          4.84630       -2.83580        0.11100
C          4.76270       -2.67700       -1.25880
C          5.71020       -1.91360       -1.92670
S          5.67470       -1.59440       -3.66190
C          4.55830       -2.86850       -4.30950
C          6.74860       -1.32380       -1.20540
C          6.82720       -1.47390        0.16000
C          3.73410       -1.31430        2.55460
S          3.38710       -0.44210        1.10410
C          5.25880       -3.68350        4.88840
C          5.03870       -4.23310        6.12640
C          5.38250       -5.65120        6.37410
O          6.09920       -6.36020        5.70070
C          4.61390       -6.02430        7.58420
C          4.47500       -7.25920        8.18410
C          3.65640       -7.35890        9.30210
C          3.00010       -6.24290        9.79810
C          3.14840       -4.99460        9.20700
C          3.95990       -4.88620        8.09200
C          4.34110       -3.73300        7.27880
C          4.29180       -2.41730        7.68180
C          5.02550       -1.40950        7.02650
N          5.68000       -0.59220        6.55230
C          3.59210       -1.96590        8.80930
N          3.00200       -1.54250        9.70130
H         -6.93820        3.43860       -5.86420
H         -7.04000       -2.72740       -7.01510
H         -9.05500       -3.57230       -8.20210
H        -10.75990       -2.00180       -9.00730
H        -10.50920        0.41460       -8.69030
H         -4.31930        1.12450       -7.52750
H         -1.92920       -1.42380       -7.39800
H         -0.76580       -0.13110       -7.68710
H         -3.46230       -0.48550       -9.09250
H         -1.86400       -0.73910       -9.79260
H         -2.37890        0.88830       -9.34540
H         -5.23430        6.02070       -0.32320
H         -6.88800        5.78080       -0.91450
H         -6.45990        7.36500       -2.78820
H         -6.19720        8.14190       -1.22320
H         -4.81630        7.62600       -2.19770
H         -3.47730        4.41590       -1.28620
H         -6.04340        2.72780       -0.28530
H         -7.88650        1.92280       -1.69600
H         -6.91710       -1.99320       -4.54400
H         -7.60860       -2.28530       -2.91780
H         -8.66840       -2.24540       -4.35110
H         -5.27790       -0.96660       -3.45780
H         -3.46260       -0.20800       -2.02050
H         -5.22120        1.09170        1.56470
H         -5.65770        2.30420        3.66500
H         -3.37960        6.68950        4.14570
H         -4.89450        7.02270        5.01440
H         -4.94900        6.55820        3.29690
H         -2.61150        5.12890        2.66010
H         -2.18060        3.93950        0.58630
H          5.02310        0.77450       -1.61910
H          6.96180        1.95820       -0.68360
H          7.56280        5.55320        2.91800
H          6.11390        4.56990        3.22220
H          6.06620        5.91270        2.03120
H          4.33870        4.38970        1.66270
H          2.42120        3.24190        0.71280
H          1.28150       -1.01200       -1.63600
H          0.98170       -1.95110       -3.86310
H         -0.02430       -2.16890       -5.88790
H          1.41360       -3.23930       -5.79710
H          0.73310       -2.78890       -7.37370
H          3.38120        1.19260       -5.49810
H          3.63560        2.16620       -3.25210
H         -1.46340        1.14130        5.04830
H         -2.11290        3.47360        5.36160
H         -1.49210        6.99760        6.66730
H         -0.77380        5.40430        7.00830
H         -2.43300        5.52200        6.35120
H          1.50680        4.73740        3.47190
H          2.18640        2.39180        3.19640
H          0.94030        0.83110        6.61120
H          0.57220       -0.69910        8.46830
H         -0.83980       -1.86790       10.03500
H          0.92170       -2.20480       10.12100
H         -0.25050       -3.35580       10.80890
H         -0.44270       -3.80790        5.70900
H         -0.07050       -2.24810        3.82820
H          6.88250       -1.14560        4.42090
H          9.05570       -1.49440        5.42520
H         11.30600       -1.30910        5.98190
H         12.30170       -2.62650        6.63720
H         10.53510       -2.69120        6.82770
H         10.01770       -4.35960        2.39320
H          7.80130       -4.00620        1.37110
H          4.11340       -3.43870        0.62720
H          3.95390       -3.14980       -1.79160
H          3.54760       -2.68930       -3.95570
H          4.59360       -2.76350       -5.38960
H          4.91680       -3.85060       -4.01550
H          7.48520       -0.73840       -1.73350
H          7.62540       -1.00540        0.71510
H          5.94970       -4.23540        4.25960
H          4.99360       -8.11740        7.78470
H          3.52770       -8.31440        9.78840
H          2.35990       -6.34230       10.66190
H          2.62690       -4.14080        9.60630
