
  xtb     02052216313D
 energy: -347.957200378327 gnorm: 0.000487871814 xtb: 6.4.1 (unknown)
210228  0     0  0            999 V2000
   -6.3712    2.5155   -5.9243 C   0  0  0  0  0  0  0  0  0  0  0  0
   -6.9450    1.4764   -6.5936 C   0  0  0  0  0  0  0  0  0  0  0  0
   -6.5816    0.0434   -6.4939 C   0  0  0  0  0  0  0  0  0  0  0  0
   -5.6367   -0.4674   -5.9228 O   0  0  0  0  0  0  0  0  0  0  0  0
   -7.6616   -0.6867   -7.1896 C   0  0  0  0  0  0  0  0  0  0  0  0
   -7.7986   -2.0488   -7.3756 C   0  0  0  0  0  0  0  0  0  0  0  0
   -8.9241   -2.5125   -8.0410 C   0  0  0  0  0  0  0  0  0  0  0  0
   -9.8854   -1.6235   -8.4995 C   0  0  0  0  0  0  0  0  0  0  0  0
   -9.7471   -0.2532   -8.3238 C   0  0  0  0  0  0  0  0  0  0  0  0
   -8.6213    0.2205   -7.6682 C   0  0  0  0  0  0  0  0  0  0  0  0
   -8.1803    1.5757   -7.3540 C   0  0  0  0  0  0  0  0  0  0  0  0
   -8.7867    2.7275   -7.7775 C   0  0  0  0  0  0  0  0  0  0  0  0
   -8.2980    4.0361   -7.5724 C   0  0  0  0  0  0  0  0  0  0  0  0
   -7.9620    5.1307   -7.4828 N   0  0  0  0  0  0  0  0  0  0  0  0
   -9.9804    2.7630   -8.5292 C   0  0  0  0  0  0  0  0  0  0  0  0
  -10.9467    2.8634   -9.1409 N   0  0  0  0  0  0  0  0  0  0  0  0
   -5.1660    2.5305   -5.1635 C   0  0  0  0  0  0  0  0  0  0  0  0
   -3.9968    1.8015   -5.4657 C   0  0  0  0  0  0  0  0  0  0  0  0
   -3.6830    1.1038   -6.6627 C   0  0  0  0  0  0  0  0  0  0  0  0
   -2.4935    0.4596   -6.6247 C   0  0  0  0  0  0  0  0  0  0  0  0
   -1.8336   -0.3679   -7.6738 C   0  0  0  0  0  0  0  0  0  0  0  0
   -2.4252   -0.1606   -9.0629 C   0  0  0  0  0  0  0  0  0  0  0  0
   -1.6813    0.6764   -5.0929 S   0  0  0  0  0  0  0  0  0  0  0  0
   -2.9486    1.7288   -4.5237 C   0  0  0  0  0  0  0  0  0  0  0  0
   -2.9745    2.3993   -3.3026 C   0  0  0  0  0  0  0  0  0  0  0  0
   -4.0354    3.3054   -3.1084 C   0  0  0  0  0  0  0  0  0  0  0  0
   -5.1031    3.3424   -4.0213 C   0  0  0  0  0  0  0  0  0  0  0  0
   -6.3309    4.4523   -3.5036 S   0  0  0  0  0  0  0  0  0  0  0  0
   -5.3688    4.9366   -2.1278 C   0  0  0  0  0  0  0  0  0  0  0  0
   -5.8622    6.0061   -1.2175 C   0  0  0  0  0  0  0  0  0  0  0  0
   -5.8318    7.3745   -1.9006 C   0  0  0  0  0  0  0  0  0  0  0  0
   -4.2082    4.2491   -2.0554 C   0  0  0  0  0  0  0  0  0  0  0  0
   -2.0059    2.1481   -2.2604 C   0  0  0  0  0  0  0  0  0  0  0  0
   -2.2656    1.8803   -0.9253 C   0  0  0  0  0  0  0  0  0  0  0  0
   -3.5256    1.8289   -0.3362 N   0  0  0  0  0  0  0  0  0  0  0  0
   -4.6131    1.3283   -1.0644 C   0  0  0  0  0  0  0  0  0  0  0  0
   -5.8783    1.9087   -0.9685 C   0  0  0  0  0  0  0  0  0  0  0  0
   -6.9135    1.4606   -1.7604 C   0  0  0  0  0  0  0  0  0  0  0  0
   -6.7110    0.4249   -2.6659 C   0  0  0  0  0  0  0  0  0  0  0  0
   -8.0756   -0.0590   -3.6868 S   0  0  0  0  0  0  0  0  0  0  0  0
   -7.7723   -1.8380   -3.8934 C   0  0  0  0  0  0  0  0  0  0  0  0
   -5.4624   -0.1745   -2.7514 C   0  0  0  0  0  0  0  0  0  0  0  0
   -4.4303    0.2664   -1.9490 C   0  0  0  0  0  0  0  0  0  0  0  0
   -3.7088    2.4578    0.8998 C   0  0  0  0  0  0  0  0  0  0  0  0
   -4.6623    1.9844    1.8015 C   0  0  0  0  0  0  0  0  0  0  0  0
   -4.9080    2.6618    2.9760 C   0  0  0  0  0  0  0  0  0  0  0  0
   -4.2013    3.8204    3.2777 C   0  0  0  0  0  0  0  0  0  0  0  0
   -4.6086    4.6900    4.7684 S   0  0  0  0  0  0  0  0  0  0  0  0
   -4.4281    6.4227    4.2395 C   0  0  0  0  0  0  0  0  0  0  0  0
   -3.1995    4.2566    2.4235 C   0  0  0  0  0  0  0  0  0  0  0  0
   -2.9569    3.5804    1.2463 C   0  0  0  0  0  0  0  0  0  0  0  0
   -1.0719    1.5752   -0.2275 C   0  0  0  0  0  0  0  0  0  0  0  0
   -0.6900    1.1047    1.3967 S   0  0  0  0  0  0  0  0  0  0  0  0
    1.0066    0.8883    0.9625 C   0  0  0  0  0  0  0  0  0  0  0  0
    1.2525    1.2479   -0.3599 C   0  0  0  0  0  0  0  0  0  0  0  0
    2.4856    1.2096   -1.0046 N   0  0  0  0  0  0  0  0  0  0  0  0
    3.5827    1.9195   -0.5147 C   0  0  0  0  0  0  0  0  0  0  0  0
    4.8772    1.5737   -0.9104 C   0  0  0  0  0  0  0  0  0  0  0  0
    5.9627    2.2309   -0.3816 C   0  0  0  0  0  0  0  0  0  0  0  0
    5.7921    3.2436    0.5615 C   0  0  0  0  0  0  0  0  0  0  0  0
    7.2642    3.9940    1.1823 S   0  0  0  0  0  0  0  0  0  0  0  0
    6.6702    5.1249    2.4724 C   0  0  0  0  0  0  0  0  0  0  0  0
    4.5079    3.6005    0.9477 C   0  0  0  0  0  0  0  0  0  0  0  0
    3.4156    2.9472    0.4103 C   0  0  0  0  0  0  0  0  0  0  0  0
    2.4617    0.6485   -2.2913 C   0  0  0  0  0  0  0  0  0  0  0  0
    1.7352   -0.5235   -2.4863 C   0  0  0  0  0  0  0  0  0  0  0  0
    1.5715   -1.0555   -3.7489 C   0  0  0  0  0  0  0  0  0  0  0  0
    2.1541   -0.4284   -4.8416 C   0  0  0  0  0  0  0  0  0  0  0  0
    1.9929   -1.0012   -6.5032 S   0  0  0  0  0  0  0  0  0  0  0  0
    0.9126   -2.4543   -6.3568 C   0  0  0  0  0  0  0  0  0  0  0  0
    2.9206    0.7182   -4.6456 C   0  0  0  0  0  0  0  0  0  0  0  0
    3.0687    1.2583   -3.3876 C   0  0  0  0  0  0  0  0  0  0  0  0
    0.0615    1.6099   -1.0226 C   0  0  0  0  0  0  0  0  0  0  0  0
   -0.3051    2.0103   -2.6604 S   0  0  0  0  0  0  0  0  0  0  0  0
    1.9112    0.2107    1.8148 C   0  0  0  0  0  0  0  0  0  0  0  0
    1.7502   -0.1871    3.1430 C   0  0  0  0  0  0  0  0  0  0  0  0
    0.7677    0.2522    4.0144 N   0  0  0  0  0  0  0  0  0  0  0  0
    0.4100    1.5995    4.1133 C   0  0  0  0  0  0  0  0  0  0  0  0
   -0.8059    1.9292    4.7141 C   0  0  0  0  0  0  0  0  0  0  0  0
   -1.1709    3.2457    4.8894 C   0  0  0  0  0  0  0  0  0  0  0  0
   -0.3292    4.2602    4.4540 C   0  0  0  0  0  0  0  0  0  0  0  0
   -0.7359    5.9728    4.6762 S   0  0  0  0  0  0  0  0  0  0  0  0
   -1.4391    5.9595    6.3547 C   0  0  0  0  0  0  0  0  0  0  0  0
    0.8629    3.9423    3.8169 C   0  0  0  0  0  0  0  0  0  0  0  0
    1.2366    2.6249    3.6541 C   0  0  0  0  0  0  0  0  0  0  0  0
    0.4656   -0.6069    5.0962 C   0  0  0  0  0  0  0  0  0  0  0  0
    0.6246   -0.1823    6.4116 C   0  0  0  0  0  0  0  0  0  0  0  0
    0.4134   -1.0512    7.4627 C   0  0  0  0  0  0  0  0  0  0  0  0
    0.0433   -2.3665    7.2110 C   0  0  0  0  0  0  0  0  0  0  0  0
   -0.1896   -3.5779    8.4686 S   0  0  0  0  0  0  0  0  0  0  0  0
   -0.0716   -2.6352   10.0167 C   0  0  0  0  0  0  0  0  0  0  0  0
   -0.1433   -2.7880    5.8957 C   0  0  0  0  0  0  0  0  0  0  0  0
    0.0635   -1.9178    4.8477 C   0  0  0  0  0  0  0  0  0  0  0  0
    2.7632   -1.0938    3.5210 C   0  0  0  0  0  0  0  0  0  0  0  0
    3.0934   -1.9641    4.9734 S   0  0  0  0  0  0  0  0  0  0  0  0
    4.5729   -2.6306    4.2751 C   0  0  0  0  0  0  0  0  0  0  0  0
    4.8023   -2.1332    2.9759 C   0  0  0  0  0  0  0  0  0  0  0  0
    5.9242   -2.3672    2.2347 N   0  0  0  0  0  0  0  0  0  0  0  0
    7.1862   -2.5635    2.8337 C   0  0  0  0  0  0  0  0  0  0  0  0
    7.5603   -1.8555    3.9714 C   0  0  0  0  0  0  0  0  0  0  0  0
    8.7992   -2.0595    4.5445 C   0  0  0  0  0  0  0  0  0  0  0  0
    9.6886   -2.9668    3.9819 C   0  0  0  0  0  0  0  0  0  0  0  0
   11.2937   -3.3071    4.6243 S   0  0  0  0  0  0  0  0  0  0  0  0
   11.3488   -2.3759    6.1813 C   0  0  0  0  0  0  0  0  0  0  0  0
    9.3224   -3.6591    2.8286 C   0  0  0  0  0  0  0  0  0  0  0  0
    8.0846   -3.4609    2.2591 C   0  0  0  0  0  0  0  0  0  0  0  0
    5.8661   -2.2251    0.8352 C   0  0  0  0  0  0  0  0  0  0  0  0
    4.8463   -2.8358    0.1110 C   0  0  0  0  0  0  0  0  0  0  0  0
    4.7627   -2.6770   -1.2588 C   0  0  0  0  0  0  0  0  0  0  0  0
    5.7102   -1.9136   -1.9267 C   0  0  0  0  0  0  0  0  0  0  0  0
    5.6747   -1.5944   -3.6619 S   0  0  0  0  0  0  0  0  0  0  0  0
    4.5583   -2.8685   -4.3095 C   0  0  0  0  0  0  0  0  0  0  0  0
    6.7486   -1.3238   -1.2054 C   0  0  0  0  0  0  0  0  0  0  0  0
    6.8272   -1.4739    0.1600 C   0  0  0  0  0  0  0  0  0  0  0  0
    3.7341   -1.3143    2.5546 C   0  0  0  0  0  0  0  0  0  0  0  0
    3.3871   -0.4421    1.1041 S   0  0  0  0  0  0  0  0  0  0  0  0
    5.2588   -3.6835    4.8884 C   0  0  0  0  0  0  0  0  0  0  0  0
    5.0387   -4.2331    6.1264 C   0  0  0  0  0  0  0  0  0  0  0  0
    5.3825   -5.6512    6.3741 C   0  0  0  0  0  0  0  0  0  0  0  0
    6.0992   -6.3602    5.7007 O   0  0  0  0  0  0  0  0  0  0  0  0
    4.6139   -6.0243    7.5842 C   0  0  0  0  0  0  0  0  0  0  0  0
    4.4750   -7.2592    8.1841 C   0  0  0  0  0  0  0  0  0  0  0  0
    3.6564   -7.3589    9.3021 C   0  0  0  0  0  0  0  0  0  0  0  0
    3.0001   -6.2429    9.7981 C   0  0  0  0  0  0  0  0  0  0  0  0
    3.1484   -4.9946    9.2070 C   0  0  0  0  0  0  0  0  0  0  0  0
    3.9599   -4.8862    8.0920 C   0  0  0  0  0  0  0  0  0  0  0  0
    4.3411   -3.7330    7.2788 C   0  0  0  0  0  0  0  0  0  0  0  0
    4.2918   -2.4173    7.6818 C   0  0  0  0  0  0  0  0  0  0  0  0
    5.0255   -1.4095    7.0265 C   0  0  0  0  0  0  0  0  0  0  0  0
    5.6800   -0.5922    6.5523 N   0  0  0  0  0  0  0  0  0  0  0  0
    3.5921   -1.9659    8.8093 C   0  0  0  0  0  0  0  0  0  0  0  0
    3.0020   -1.5425    9.7013 N   0  0  0  0  0  0  0  0  0  0  0  0
   -6.9382    3.4386   -5.8642 H   0  0  0  0  0  0  0  0  0  0  0  0
   -7.0400   -2.7274   -7.0151 H   0  0  0  0  0  0  0  0  0  0  0  0
   -9.0550   -3.5723   -8.2021 H   0  0  0  0  0  0  0  0  0  0  0  0
  -10.7599   -2.0018   -9.0073 H   0  0  0  0  0  0  0  0  0  0  0  0
  -10.5092    0.4146   -8.6903 H   0  0  0  0  0  0  0  0  0  0  0  0
   -4.3193    1.1245   -7.5275 H   0  0  0  0  0  0  0  0  0  0  0  0
   -1.9292   -1.4238   -7.3980 H   0  0  0  0  0  0  0  0  0  0  0  0
   -0.7658   -0.1311   -7.6871 H   0  0  0  0  0  0  0  0  0  0  0  0
   -3.4623   -0.4855   -9.0925 H   0  0  0  0  0  0  0  0  0  0  0  0
   -1.8640   -0.7391   -9.7926 H   0  0  0  0  0  0  0  0  0  0  0  0
   -2.3789    0.8883   -9.3454 H   0  0  0  0  0  0  0  0  0  0  0  0
   -5.2343    6.0207   -0.3232 H   0  0  0  0  0  0  0  0  0  0  0  0
   -6.8880    5.7808   -0.9145 H   0  0  0  0  0  0  0  0  0  0  0  0
   -6.4599    7.3650   -2.7882 H   0  0  0  0  0  0  0  0  0  0  0  0
   -6.1972    8.1419   -1.2232 H   0  0  0  0  0  0  0  0  0  0  0  0
   -4.8163    7.6260   -2.1977 H   0  0  0  0  0  0  0  0  0  0  0  0
   -3.4773    4.4159   -1.2862 H   0  0  0  0  0  0  0  0  0  0  0  0
   -6.0434    2.7278   -0.2853 H   0  0  0  0  0  0  0  0  0  0  0  0
   -7.8865    1.9228   -1.6960 H   0  0  0  0  0  0  0  0  0  0  0  0
   -6.9171   -1.9932   -4.5440 H   0  0  0  0  0  0  0  0  0  0  0  0
   -7.6086   -2.2853   -2.9178 H   0  0  0  0  0  0  0  0  0  0  0  0
   -8.6684   -2.2454   -4.3511 H   0  0  0  0  0  0  0  0  0  0  0  0
   -5.2779   -0.9666   -3.4578 H   0  0  0  0  0  0  0  0  0  0  0  0
   -3.4626   -0.2080   -2.0205 H   0  0  0  0  0  0  0  0  0  0  0  0
   -5.2212    1.0917    1.5647 H   0  0  0  0  0  0  0  0  0  0  0  0
   -5.6577    2.3042    3.6650 H   0  0  0  0  0  0  0  0  0  0  0  0
   -3.3796    6.6895    4.1457 H   0  0  0  0  0  0  0  0  0  0  0  0
   -4.8945    7.0227    5.0144 H   0  0  0  0  0  0  0  0  0  0  0  0
   -4.9490    6.5582    3.2969 H   0  0  0  0  0  0  0  0  0  0  0  0
   -2.6115    5.1289    2.6601 H   0  0  0  0  0  0  0  0  0  0  0  0
   -2.1806    3.9395    0.5863 H   0  0  0  0  0  0  0  0  0  0  0  0
    5.0231    0.7745   -1.6191 H   0  0  0  0  0  0  0  0  0  0  0  0
    6.9618    1.9582   -0.6836 H   0  0  0  0  0  0  0  0  0  0  0  0
    7.5628    5.5532    2.9180 H   0  0  0  0  0  0  0  0  0  0  0  0
    6.1139    4.5699    3.2222 H   0  0  0  0  0  0  0  0  0  0  0  0
    6.0662    5.9127    2.0312 H   0  0  0  0  0  0  0  0  0  0  0  0
    4.3387    4.3897    1.6627 H   0  0  0  0  0  0  0  0  0  0  0  0
    2.4212    3.2419    0.7128 H   0  0  0  0  0  0  0  0  0  0  0  0
    1.2815   -1.0120   -1.6360 H   0  0  0  0  0  0  0  0  0  0  0  0
    0.9817   -1.9511   -3.8631 H   0  0  0  0  0  0  0  0  0  0  0  0
   -0.0243   -2.1689   -5.8879 H   0  0  0  0  0  0  0  0  0  0  0  0
    1.4136   -3.2393   -5.7971 H   0  0  0  0  0  0  0  0  0  0  0  0
    0.7331   -2.7889   -7.3737 H   0  0  0  0  0  0  0  0  0  0  0  0
    3.3812    1.1926   -5.4981 H   0  0  0  0  0  0  0  0  0  0  0  0
    3.6356    2.1662   -3.2521 H   0  0  0  0  0  0  0  0  0  0  0  0
   -1.4634    1.1413    5.0483 H   0  0  0  0  0  0  0  0  0  0  0  0
   -2.1129    3.4736    5.3616 H   0  0  0  0  0  0  0  0  0  0  0  0
   -1.4921    6.9976    6.6673 H   0  0  0  0  0  0  0  0  0  0  0  0
   -0.7738    5.4043    7.0083 H   0  0  0  0  0  0  0  0  0  0  0  0
   -2.4330    5.5220    6.3512 H   0  0  0  0  0  0  0  0  0  0  0  0
    1.5068    4.7374    3.4719 H   0  0  0  0  0  0  0  0  0  0  0  0
    2.1864    2.3918    3.1964 H   0  0  0  0  0  0  0  0  0  0  0  0
    0.9403    0.8311    6.6112 H   0  0  0  0  0  0  0  0  0  0  0  0
    0.5722   -0.6991    8.4683 H   0  0  0  0  0  0  0  0  0  0  0  0
   -0.8398   -1.8679   10.0350 H   0  0  0  0  0  0  0  0  0  0  0  0
    0.9217   -2.2048   10.1210 H   0  0  0  0  0  0  0  0  0  0  0  0
   -0.2505   -3.3558   10.8089 H   0  0  0  0  0  0  0  0  0  0  0  0
   -0.4427   -3.8079    5.7090 H   0  0  0  0  0  0  0  0  0  0  0  0
   -0.0705   -2.2481    3.8282 H   0  0  0  0  0  0  0  0  0  0  0  0
    6.8825   -1.1456    4.4209 H   0  0  0  0  0  0  0  0  0  0  0  0
    9.0557   -1.4944    5.4252 H   0  0  0  0  0  0  0  0  0  0  0  0
   11.3060   -1.3091    5.9819 H   0  0  0  0  0  0  0  0  0  0  0  0
   12.3017   -2.6265    6.6372 H   0  0  0  0  0  0  0  0  0  0  0  0
   10.5351   -2.6912    6.8277 H   0  0  0  0  0  0  0  0  0  0  0  0
   10.0177   -4.3596    2.3932 H   0  0  0  0  0  0  0  0  0  0  0  0
    7.8013   -4.0062    1.3711 H   0  0  0  0  0  0  0  0  0  0  0  0
    4.1134   -3.4387    0.6272 H   0  0  0  0  0  0  0  0  0  0  0  0
    3.9539   -3.1498   -1.7916 H   0  0  0  0  0  0  0  0  0  0  0  0
    3.5476   -2.6893   -3.9557 H   0  0  0  0  0  0  0  0  0  0  0  0
    4.5936   -2.7635   -5.3896 H   0  0  0  0  0  0  0  0  0  0  0  0
    4.9168   -3.8506   -4.0155 H   0  0  0  0  0  0  0  0  0  0  0  0
    7.4852   -0.7384   -1.7335 H   0  0  0  0  0  0  0  0  0  0  0  0
    7.6254   -1.0054    0.7151 H   0  0  0  0  0  0  0  0  0  0  0  0
    5.9497   -4.2354    4.2596 H   0  0  0  0  0  0  0  0  0  0  0  0
    4.9936   -8.1174    7.7847 H   0  0  0  0  0  0  0  0  0  0  0  0
    3.5277   -8.3144    9.7884 H   0  0  0  0  0  0  0  0  0  0  0  0
    2.3599   -6.3423   10.6619 H   0  0  0  0  0  0  0  0  0  0  0  0
    2.6269   -4.1408    9.6063 H   0  0  0  0  0  0  0  0  0  0  0  0
  1  2  2  0  0  0  0
  2  3  1  0  0  0  0
  3  4  2  0  0  0  0
  3  5  1  0  0  0  0
  5  6  2  0  0  0  0
  6  7  1  0  0  0  0
  7  8  2  0  0  0  0
  8  9  1  0  0  0  0
  9 10  2  0  0  0  0
 10 11  1  0  0  0  0
 11 12  2  0  0  0  0
 12 13  1  0  0  0  0
 13 14  3  0  0  0  0
 12 15  1  0  0  0  0
 15 16  3  0  0  0  0
  1 17  1  0  0  0  0
 17 18  2  0  0  0  0
 18 19  1  0  0  0  0
 19 20  2  0  0  0  0
 20 21  1  0  0  0  0
 21 22  1  0  0  0  0
 20 23  1  0  0  0  0
 23 24  1  0  0  0  0
 24 25  2  0  0  0  0
 25 26  1  0  0  0  0
 26 27  2  0  0  0  0
 27 28  1  0  0  0  0
 28 29  1  0  0  0  0
 29 30  1  0  0  0  0
 30 31  1  0  0  0  0
 29 32  2  0  0  0  0
 25 33  1  0  0  0  0
 33 34  2  0  0  0  0
 34 35  1  0  0  0  0
 35 36  1  0  0  0  0
 36 37  2  0  0  0  0
 37 38  1  0  0  0  0
 38 39  2  0  0  0  0
 39 40  1  0  0  0  0
 40 41  1  0  0  0  0
 39 42  1  0  0  0  0
 42 43  2  0  0  0  0
 35 44  1  0  0  0  0
 44 45  2  0  0  0  0
 45 46  1  0  0  0  0
 46 47  2  0  0  0  0
 47 48  1  0  0  0  0
 48 49  1  0  0  0  0
 47 50  1  0  0  0  0
 50 51  2  0  0  0  0
 34 52  1  0  0  0  0
 52 53  1  0  0  0  0
 53 54  1  0  0  0  0
 54 55  2  0  0  0  0
 55 56  1  0  0  0  0
 56 57  1  0  0  0  0
 57 58  2  0  0  0  0
 58 59  1  0  0  0  0
 59 60  2  0  0  0  0
 60 61  1  0  0  0  0
 61 62  1  0  0  0  0
 60 63  1  0  0  0  0
 63 64  2  0  0  0  0
 56 65  1  0  0  0  0
 65 66  2  0  0  0  0
 66 67  1  0  0  0  0
 67 68  2  0  0  0  0
 68 69  1  0  0  0  0
 69 70  1  0  0  0  0
 68 71  1  0  0  0  0
 71 72  2  0  0  0  0
 55 73  1  0  0  0  0
 73 74  1  0  0  0  0
 54 75  1  0  0  0  0
 75 76  2  0  0  0  0
 76 77  1  0  0  0  0
 77 78  1  0  0  0  0
 78 79  2  0  0  0  0
 79 80  1  0  0  0  0
 80 81  2  0  0  0  0
 81 82  1  0  0  0  0
 82 83  1  0  0  0  0
 81 84  1  0  0  0  0
 84 85  2  0  0  0  0
 77 86  1  0  0  0  0
 86 87  2  0  0  0  0
 87 88  1  0  0  0  0
 88 89  2  0  0  0  0
 89 90  1  0  0  0  0
 90 91  1  0  0  0  0
 89 92  1  0  0  0  0
 92 93  2  0  0  0  0
 76 94  1  0  0  0  0
 94 95  1  0  0  0  0
 95 96  1  0  0  0  0
 96 97  2  0  0  0  0
 97 98  1  0  0  0  0
 98 99  1  0  0  0  0
 99100  2  0  0  0  0
100101  1  0  0  0  0
101102  2  0  0  0  0
102103  1  0  0  0  0
103104  1  0  0  0  0
102105  1  0  0  0  0
105106  2  0  0  0  0
 98107  1  0  0  0  0
107108  2  0  0  0  0
108109  1  0  0  0  0
109110  2  0  0  0  0
110111  1  0  0  0  0
111112  1  0  0  0  0
110113  1  0  0  0  0
113114  2  0  0  0  0
 97115  1  0  0  0  0
115116  1  0  0  0  0
 96117  1  0  0  0  0
117118  2  0  0  0  0
118119  1  0  0  0  0
119120  2  0  0  0  0
119121  1  0  0  0  0
121122  2  0  0  0  0
122123  1  0  0  0  0
123124  2  0  0  0  0
124125  1  0  0  0  0
125126  2  0  0  0  0
126127  1  0  0  0  0
127128  2  0  0  0  0
128129  1  0  0  0  0
129130  3  0  0  0  0
128131  1  0  0  0  0
131132  3  0  0  0  0
 11  2  1  0  0  0  0
 27 17  1  0  0  0  0
 74 33  1  0  0  0  0
116 75  1  0  0  0  0
127118  1  0  0  0  0
 10  5  1  0  0  0  0
 24 18  1  0  0  0  0
 32 26  1  0  0  0  0
 43 36  1  0  0  0  0
 51 44  1  0  0  0  0
 73 52  2  0  0  0  0
 85 78  1  0  0  0  0
 93 86  1  0  0  0  0
115 94  2  0  0  0  0
126121  1  0  0  0  0
 64 57  1  0  0  0  0
 72 65  1  0  0  0  0
106 99  1  0  0  0  0
114107  1  0  0  0  0
  1133  1  0  0  0  0
  6134  1  0  0  0  0
  7135  1  0  0  0  0
  8136  1  0  0  0  0
  9137  1  0  0  0  0
 19138  1  0  0  0  0
 21139  1  0  0  0  0
 21140  1  0  0  0  0
 22141  1  0  0  0  0
 22142  1  0  0  0  0
 22143  1  0  0  0  0
 30144  1  0  0  0  0
 30145  1  0  0  0  0
 31146  1  0  0  0  0
 31147  1  0  0  0  0
 31148  1  0  0  0  0
 32149  1  0  0  0  0
 37150  1  0  0  0  0
 38151  1  0  0  0  0
 41152  1  0  0  0  0
 41153  1  0  0  0  0
 41154  1  0  0  0  0
 42155  1  0  0  0  0
 43156  1  0  0  0  0
 45157  1  0  0  0  0
 46158  1  0  0  0  0
 49159  1  0  0  0  0
 49160  1  0  0  0  0
 49161  1  0  0  0  0
 50162  1  0  0  0  0
 51163  1  0  0  0  0
 58164  1  0  0  0  0
 59165  1  0  0  0  0
 62166  1  0  0  0  0
 62167  1  0  0  0  0
 62168  1  0  0  0  0
 63169  1  0  0  0  0
 64170  1  0  0  0  0
 66171  1  0  0  0  0
 67172  1  0  0  0  0
 70173  1  0  0  0  0
 70174  1  0  0  0  0
 70175  1  0  0  0  0
 71176  1  0  0  0  0
 72177  1  0  0  0  0
 79178  1  0  0  0  0
 80179  1  0  0  0  0
 83180  1  0  0  0  0
 83181  1  0  0  0  0
 83182  1  0  0  0  0
 84183  1  0  0  0  0
 85184  1  0  0  0  0
 87185  1  0  0  0  0
 88186  1  0  0  0  0
 91187  1  0  0  0  0
 91188  1  0  0  0  0
 91189  1  0  0  0  0
 92190  1  0  0  0  0
 93191  1  0  0  0  0
100192  1  0  0  0  0
101193  1  0  0  0  0
104194  1  0  0  0  0
104195  1  0  0  0  0
104196  1  0  0  0  0
105197  1  0  0  0  0
106198  1  0  0  0  0
108199  1  0  0  0  0
109200  1  0  0  0  0
112201  1  0  0  0  0
112202  1  0  0  0  0
112203  1  0  0  0  0
113204  1  0  0  0  0
114205  1  0  0  0  0
117206  1  0  0  0  0
122207  1  0  0  0  0
123208  1  0  0  0  0
124209  1  0  0  0  0
125210  1  0  0  0  0
M  END
