
  xtb     02122205113D
 energy: -367.136379083406 gnorm: 0.000471611581 xtb: 6.4.1 (unknown)
222242  0     0  0            999 V2000
    7.8976    0.7324    5.3049 C   0  0  0  0  0  0  0  0  0  0  0  0
    8.7122    1.8421    5.4177 C   0  0  0  0  0  0  0  0  0  0  0  0
    8.8426    2.8667    4.3758 C   0  0  0  0  0  0  0  0  0  0  0  0
    8.2401    2.9316    3.3163 O   0  0  0  0  0  0  0  0  0  0  0  0
    9.9546    3.7381    4.8108 C   0  0  0  0  0  0  0  0  0  0  0  0
   10.4946    4.8385    4.1789 C   0  0  0  0  0  0  0  0  0  0  0  0
   11.5433    5.5040    4.8013 C   0  0  0  0  0  0  0  0  0  0  0  0
   12.0340    5.0603    6.0188 C   0  0  0  0  0  0  0  0  0  0  0  0
   11.4953    3.9478    6.6555 C   0  0  0  0  0  0  0  0  0  0  0  0
   10.4452    3.2842    6.0467 C   0  0  0  0  0  0  0  0  0  0  0  0
    9.6637    2.1175    6.4555 C   0  0  0  0  0  0  0  0  0  0  0  0
    9.7164    1.5010    7.6817 C   0  0  0  0  0  0  0  0  0  0  0  0
    8.8458    0.4676    8.0796 C   0  0  0  0  0  0  0  0  0  0  0  0
    8.1520   -0.3558    8.4806 N   0  0  0  0  0  0  0  0  0  0  0  0
   10.5855    1.8819    8.7197 C   0  0  0  0  0  0  0  0  0  0  0  0
   11.2573    2.1620    9.6091 N   0  0  0  0  0  0  0  0  0  0  0  0
    6.7491    0.6427    4.5195 C   0  0  0  0  0  0  0  0  0  0  0  0
    5.8681    1.6376    4.0415 C   0  0  0  0  0  0  0  0  0  0  0  0
    5.8264    2.9411    4.4379 N   0  0  0  0  0  0  0  0  0  0  0  0
    6.3533    3.3801    5.6629 C   0  0  0  0  0  0  0  0  0  0  0  0
    6.1835    2.6400    6.8320 C   0  0  0  0  0  0  0  0  0  0  0  0
    6.7405    3.0771    8.0147 C   0  0  0  0  0  0  0  0  0  0  0  0
    7.4805    4.2567    8.0725 C   0  0  0  0  0  0  0  0  0  0  0  0
    8.1205    4.6866    9.3545 C   0  0  0  0  0  0  0  0  0  0  0  0
    7.6098    5.0080    6.9126 C   0  0  0  0  0  0  0  0  0  0  0  0
    7.0521    4.5835    5.7206 C   0  0  0  0  0  0  0  0  0  0  0  0
    5.2075    3.9074    3.6155 C   0  0  0  0  0  0  0  0  0  0  0  0
    4.3044    4.8106    4.1653 C   0  0  0  0  0  0  0  0  0  0  0  0
    3.7037    5.7582    3.3601 C   0  0  0  0  0  0  0  0  0  0  0  0
    3.9864    5.8294    2.0008 C   0  0  0  0  0  0  0  0  0  0  0  0
    3.3067    6.8396    1.1293 C   0  0  0  0  0  0  0  0  0  0  0  0
    4.9029    4.9311    1.4666 C   0  0  0  0  0  0  0  0  0  0  0  0
    5.5117    3.9804    2.2608 C   0  0  0  0  0  0  0  0  0  0  0  0
    4.9140    1.0652    3.1691 C   0  0  0  0  0  0  0  0  0  0  0  0
    3.5764    1.7096    2.2875 S   0  0  0  0  0  0  0  0  0  0  0  0
    3.1747    0.1085    1.6809 C   0  0  0  0  0  0  0  0  0  0  0  0
    3.9866   -0.8832    2.2119 C   0  0  0  0  0  0  0  0  0  0  0  0
    3.7930   -2.2366    2.0284 N   0  0  0  0  0  0  0  0  0  0  0  0
    4.8477   -3.1480    2.2139 C   0  0  0  0  0  0  0  0  0  0  0  0
    6.1309   -2.8579    1.7619 C   0  0  0  0  0  0  0  0  0  0  0  0
    7.1569   -3.7649    1.9460 C   0  0  0  0  0  0  0  0  0  0  0  0
    6.9368   -4.9791    2.5808 C   0  0  0  0  0  0  0  0  0  0  0  0
    8.0545   -5.9514    2.8001 C   0  0  0  0  0  0  0  0  0  0  0  0
    5.6516   -5.2608    3.0320 C   0  0  0  0  0  0  0  0  0  0  0  0
    4.6193   -4.3623    2.8581 C   0  0  0  0  0  0  0  0  0  0  0  0
    2.4938   -2.7363    1.8317 C   0  0  0  0  0  0  0  0  0  0  0  0
    1.4063   -2.2113    2.5245 C   0  0  0  0  0  0  0  0  0  0  0  0
    0.1327   -2.6910    2.2924 C   0  0  0  0  0  0  0  0  0  0  0  0
   -0.0912   -3.7202    1.3866 C   0  0  0  0  0  0  0  0  0  0  0  0
   -1.4763   -4.2163    1.1022 C   0  0  0  0  0  0  0  0  0  0  0  0
    1.0060   -4.2739    0.7364 C   0  0  0  0  0  0  0  0  0  0  0  0
    2.2823   -3.7875    0.9447 C   0  0  0  0  0  0  0  0  0  0  0  0
    4.9909   -0.3154    3.0371 C   0  0  0  0  0  0  0  0  0  0  0  0
    6.2525   -0.9784    4.0081 S   0  0  0  0  0  0  0  0  0  0  0  0
    2.0506    0.0039    0.7931 C   0  0  0  0  0  0  0  0  0  0  0  0
    1.9617   -0.5265   -0.4849 C   0  0  0  0  0  0  0  0  0  0  0  0
    3.0109   -1.0258   -1.2304 N   0  0  0  0  0  0  0  0  0  0  0  0
    2.7447   -1.7840   -2.3869 C   0  0  0  0  0  0  0  0  0  0  0  0
    3.3605   -1.4536   -3.5951 C   0  0  0  0  0  0  0  0  0  0  0  0
    3.0561   -2.1502   -4.7423 C   0  0  0  0  0  0  0  0  0  0  0  0
    2.1333   -3.1937   -4.7111 C   0  0  0  0  0  0  0  0  0  0  0  0
    1.7642   -3.9897   -6.2444 S   0  0  0  0  0  0  0  0  0  0  0  0
    0.1320   -4.7245   -5.9318 C   0  0  0  0  0  0  0  0  0  0  0  0
    1.5603   -3.5615   -3.5031 C   0  0  0  0  0  0  0  0  0  0  0  0
    1.8616   -2.8583   -2.3514 C   0  0  0  0  0  0  0  0  0  0  0  0
    4.3388   -0.6120   -1.0273 C   0  0  0  0  0  0  0  0  0  0  0  0
    4.6671    0.6925   -0.6722 C   0  0  0  0  0  0  0  0  0  0  0  0
    5.9830    1.0531   -0.4470 C   0  0  0  0  0  0  0  0  0  0  0  0
    7.0002    0.1239   -0.6156 C   0  0  0  0  0  0  0  0  0  0  0  0
    8.7129    0.4430   -0.3416 S   0  0  0  0  0  0  0  0  0  0  0  0
    8.7835    2.1678    0.2125 C   0  0  0  0  0  0  0  0  0  0  0  0
    6.6783   -1.1664   -1.0381 C   0  0  0  0  0  0  0  0  0  0  0  0
    5.3657   -1.5343   -1.2276 C   0  0  0  0  0  0  0  0  0  0  0  0
    0.6325   -0.4170   -0.9747 C   0  0  0  0  0  0  0  0  0  0  0  0
   -0.1504   -0.8542   -2.4564 S   0  0  0  0  0  0  0  0  0  0  0  0
   -1.6676   -0.2045   -1.8749 C   0  0  0  0  0  0  0  0  0  0  0  0
   -1.5463    0.4043   -0.6325 C   0  0  0  0  0  0  0  0  0  0  0  0
   -2.5437    1.1549   -0.0099 N   0  0  0  0  0  0  0  0  0  0  0  0
   -2.9507    0.7980    1.2796 C   0  0  0  0  0  0  0  0  0  0  0  0
   -3.5038    1.7431    2.1406 C   0  0  0  0  0  0  0  0  0  0  0  0
   -3.9733    1.3733    3.3847 C   0  0  0  0  0  0  0  0  0  0  0  0
   -3.8861    0.0506    3.7973 C   0  0  0  0  0  0  0  0  0  0  0  0
   -4.4838   -0.5309    5.3558 S   0  0  0  0  0  0  0  0  0  0  0  0
   -5.6719    0.7500    5.8470 C   0  0  0  0  0  0  0  0  0  0  0  0
   -3.2892   -0.8877    2.9604 C   0  0  0  0  0  0  0  0  0  0  0  0
   -2.8303   -0.5224    1.7142 C   0  0  0  0  0  0  0  0  0  0  0  0
   -3.3034    2.0206   -0.8098 C   0  0  0  0  0  0  0  0  0  0  0  0
   -4.6749    2.1845   -0.6244 C   0  0  0  0  0  0  0  0  0  0  0  0
   -5.4314    2.9005   -1.5306 C   0  0  0  0  0  0  0  0  0  0  0  0
   -4.8338    3.4549   -2.6527 C   0  0  0  0  0  0  0  0  0  0  0  0
   -5.7350    4.2747   -3.9311 S   0  0  0  0  0  0  0  0  0  0  0  0
   -7.4179    3.6266   -3.7199 C   0  0  0  0  0  0  0  0  0  0  0  0
   -3.4509    3.3713   -2.7978 C   0  0  0  0  0  0  0  0  0  0  0  0
   -2.6950    2.6747   -1.8834 C   0  0  0  0  0  0  0  0  0  0  0  0
   -0.2408    0.2396   -0.1201 C   0  0  0  0  0  0  0  0  0  0  0  0
    0.5371    0.7324    1.3337 S   0  0  0  0  0  0  0  0  0  0  0  0
   -2.8675   -0.3412   -2.6258 C   0  0  0  0  0  0  0  0  0  0  0  0
   -4.1307   -0.3466   -2.1080 C   0  0  0  0  0  0  0  0  0  0  0  0
   -5.1551   -0.3464   -3.0771 C   0  0  0  0  0  0  0  0  0  0  0  0
   -6.5460   -0.2274   -2.8611 C   0  0  0  0  0  0  0  0  0  0  0  0
   -7.1102   -0.0985   -1.5343 C   0  0  0  0  0  0  0  0  0  0  0  0
   -8.1726    0.6685   -1.1335 C   0  0  0  0  0  0  0  0  0  0  0  0
   -8.4352    0.6122    0.2452 C   0  0  0  0  0  0  0  0  0  0  0  0
   -7.5851   -0.2189    0.9170 C   0  0  0  0  0  0  0  0  0  0  0  0
   -7.5224   -0.4262    2.6487 S   0  0  0  0  0  0  0  0  0  0  0  0
   -6.6770   -2.0375    2.8070 C   0  0  0  0  0  0  0  0  0  0  0  0
   -7.5612   -3.1884    2.3739 C   0  0  0  0  0  0  0  0  0  0  0  0
   -6.4377   -0.9483   -0.1618 S   0  0  0  0  0  0  0  0  0  0  0  0
   -7.3401   -0.1619   -4.0055 C   0  0  0  0  0  0  0  0  0  0  0  0
   -6.8104   -0.2819   -5.3190 C   0  0  0  0  0  0  0  0  0  0  0  0
   -5.4173   -0.4577   -5.5304 C   0  0  0  0  0  0  0  0  0  0  0  0
   -4.8779   -0.7106   -6.8410 C   0  0  0  0  0  0  0  0  0  0  0  0
   -5.4188   -1.4576   -7.8589 C   0  0  0  0  0  0  0  0  0  0  0  0
   -4.5742   -1.6012   -8.9676 C   0  0  0  0  0  0  0  0  0  0  0  0
   -3.3757   -0.9575   -8.8107 C   0  0  0  0  0  0  0  0  0  0  0  0
   -2.0962   -0.9017   -9.9897 S   0  0  0  0  0  0  0  0  0  0  0  0
   -0.6611   -0.4074   -8.9670 C   0  0  0  0  0  0  0  0  0  0  0  0
   -0.2090   -1.5108   -8.0322 C   0  0  0  0  0  0  0  0  0  0  0  0
   -3.2890   -0.1429   -7.2808 S   0  0  0  0  0  0  0  0  0  0  0  0
   -4.6248   -0.4095   -4.3910 C   0  0  0  0  0  0  0  0  0  0  0  0
   -2.8782   -0.4537   -4.3682 S   0  0  0  0  0  0  0  0  0  0  0  0
   -7.8127   -0.1492   -6.2883 C   0  0  0  0  0  0  0  0  0  0  0  0
   -9.0847    0.0355   -5.7756 C   0  0  0  0  0  0  0  0  0  0  0  0
   -9.0677    0.0704   -4.0252 S   0  0  0  0  0  0  0  0  0  0  0  0
  -10.2100    0.1552   -6.6130 C   0  0  0  0  0  0  0  0  0  0  0  0
  -11.5294    0.3523   -6.3099 C   0  0  0  0  0  0  0  0  0  0  0  0
  -12.0876    0.5894   -4.9671 C   0  0  0  0  0  0  0  0  0  0  0  0
  -11.4956    0.5982   -3.9047 O   0  0  0  0  0  0  0  0  0  0  0  0
  -13.5266    0.8397   -5.1658 C   0  0  0  0  0  0  0  0  0  0  0  0
  -14.4900    1.1328   -4.2208 C   0  0  0  0  0  0  0  0  0  0  0  0
  -15.7928    1.3340   -4.6544 C   0  0  0  0  0  0  0  0  0  0  0  0
  -16.1062    1.2427   -6.0029 C   0  0  0  0  0  0  0  0  0  0  0  0
  -15.1397    0.9471   -6.9556 C   0  0  0  0  0  0  0  0  0  0  0  0
  -13.8352    0.7418   -6.5339 C   0  0  0  0  0  0  0  0  0  0  0  0
  -12.6152    0.4150   -7.2712 C   0  0  0  0  0  0  0  0  0  0  0  0
  -12.5470    0.1771   -8.6195 C   0  0  0  0  0  0  0  0  0  0  0  0
  -11.3895   -0.1894   -9.3379 C   0  0  0  0  0  0  0  0  0  0  0  0
  -10.5016   -0.5016   -9.9972 N   0  0  0  0  0  0  0  0  0  0  0  0
  -13.6528    0.2457   -9.4935 C   0  0  0  0  0  0  0  0  0  0  0  0
  -14.5042    0.2853  -10.2626 N   0  0  0  0  0  0  0  0  0  0  0  0
    8.1867   -0.1752    5.8211 H   0  0  0  0  0  0  0  0  0  0  0  0
   10.1006    5.1684    3.2293 H   0  0  0  0  0  0  0  0  0  0  0  0
   11.9808    6.3731    4.3329 H   0  0  0  0  0  0  0  0  0  0  0  0
   12.8540    5.5856    6.4854 H   0  0  0  0  0  0  0  0  0  0  0  0
   11.9016    3.6170    7.5976 H   0  0  0  0  0  0  0  0  0  0  0  0
    5.6175    1.7209    6.8104 H   0  0  0  0  0  0  0  0  0  0  0  0
    6.6056    2.4899    8.9112 H   0  0  0  0  0  0  0  0  0  0  0  0
    7.4103    4.6266   10.1770 H   0  0  0  0  0  0  0  0  0  0  0  0
    8.9589    4.0323    9.5958 H   0  0  0  0  0  0  0  0  0  0  0  0
    8.4932    5.7050    9.2819 H   0  0  0  0  0  0  0  0  0  0  0  0
    8.1662    5.9338    6.9341 H   0  0  0  0  0  0  0  0  0  0  0  0
    7.1637    5.1764    4.8251 H   0  0  0  0  0  0  0  0  0  0  0  0
    4.0759    4.7627    5.2200 H   0  0  0  0  0  0  0  0  0  0  0  0
    2.9993    6.4525    3.7945 H   0  0  0  0  0  0  0  0  0  0  0  0
    3.0435    7.7290    1.6967 H   0  0  0  0  0  0  0  0  0  0  0  0
    3.9439    7.1266    0.2960 H   0  0  0  0  0  0  0  0  0  0  0  0
    2.3883    6.4167    0.7209 H   0  0  0  0  0  0  0  0  0  0  0  0
    5.1478    4.9840    0.4154 H   0  0  0  0  0  0  0  0  0  0  0  0
    6.2485    3.3045    1.8587 H   0  0  0  0  0  0  0  0  0  0  0  0
    6.3212   -1.9270    1.2537 H   0  0  0  0  0  0  0  0  0  0  0  0
    8.1448   -3.5186    1.5852 H   0  0  0  0  0  0  0  0  0  0  0  0
    7.7009   -6.9762    2.7106 H   0  0  0  0  0  0  0  0  0  0  0  0
    8.8563   -5.7892    2.0839 H   0  0  0  0  0  0  0  0  0  0  0  0
    8.4651   -5.8249    3.8024 H   0  0  0  0  0  0  0  0  0  0  0  0
    5.4581   -6.1964    3.5365 H   0  0  0  0  0  0  0  0  0  0  0  0
    3.6305   -4.5953    3.2250 H   0  0  0  0  0  0  0  0  0  0  0  0
    1.5606   -1.4291    3.2528 H   0  0  0  0  0  0  0  0  0  0  0  0
   -0.6956   -2.2600    2.8348 H   0  0  0  0  0  0  0  0  0  0  0  0
   -1.4778   -5.2931    0.9470 H   0  0  0  0  0  0  0  0  0  0  0  0
   -1.8636   -3.7492    0.1948 H   0  0  0  0  0  0  0  0  0  0  0  0
   -2.1508   -3.9781    1.9209 H   0  0  0  0  0  0  0  0  0  0  0  0
    0.8576   -5.0960    0.0498 H   0  0  0  0  0  0  0  0  0  0  0  0
    3.1238   -4.2168    0.4210 H   0  0  0  0  0  0  0  0  0  0  0  0
    4.0617   -0.6332   -3.6300 H   0  0  0  0  0  0  0  0  0  0  0  0
    3.5151   -1.8824   -5.6815 H   0  0  0  0  0  0  0  0  0  0  0  0
   -0.5058   -3.9874   -5.4534 H   0  0  0  0  0  0  0  0  0  0  0  0
    0.2277   -5.6185   -5.3223 H   0  0  0  0  0  0  0  0  0  0  0  0
   -0.2671   -4.9887   -6.9059 H   0  0  0  0  0  0  0  0  0  0  0  0
    0.8730   -4.3900   -3.4438 H   0  0  0  0  0  0  0  0  0  0  0  0
    1.4084   -3.1412   -1.4144 H   0  0  0  0  0  0  0  0  0  0  0  0
    3.8923    1.4385   -0.5812 H   0  0  0  0  0  0  0  0  0  0  0  0
    6.1992    2.0669   -0.1523 H   0  0  0  0  0  0  0  0  0  0  0  0
    8.3359    2.2705    1.1972 H   0  0  0  0  0  0  0  0  0  0  0  0
    9.8418    2.4039    0.2733 H   0  0  0  0  0  0  0  0  0  0  0  0
    8.3081    2.8140   -0.5194 H   0  0  0  0  0  0  0  0  0  0  0  0
    7.4721   -1.8810   -1.1923 H   0  0  0  0  0  0  0  0  0  0  0  0
    5.1243   -2.5430   -1.5271 H   0  0  0  0  0  0  0  0  0  0  0  0
   -3.5677    2.7745    1.8281 H   0  0  0  0  0  0  0  0  0  0  0  0
   -4.4027    2.1261    4.0258 H   0  0  0  0  0  0  0  0  0  0  0  0
   -5.1498    1.6475    6.1661 H   0  0  0  0  0  0  0  0  0  0  0  0
   -6.2263    0.3335    6.6821 H   0  0  0  0  0  0  0  0  0  0  0  0
   -6.3434    0.9525    5.0178 H   0  0  0  0  0  0  0  0  0  0  0  0
   -3.2125   -1.9115    3.2957 H   0  0  0  0  0  0  0  0  0  0  0  0
   -2.3960   -1.2627    1.0589 H   0  0  0  0  0  0  0  0  0  0  0  0
   -5.1675    1.7240    0.2187 H   0  0  0  0  0  0  0  0  0  0  0  0
   -6.4921    2.9916   -1.3621 H   0  0  0  0  0  0  0  0  0  0  0  0
   -7.9577    3.9009   -4.6209 H   0  0  0  0  0  0  0  0  0  0  0  0
   -7.8955    4.0793   -2.8557 H   0  0  0  0  0  0  0  0  0  0  0  0
   -7.3746    2.5460   -3.6256 H   0  0  0  0  0  0  0  0  0  0  0  0
   -2.9813    3.8448   -3.6461 H   0  0  0  0  0  0  0  0  0  0  0  0
   -1.6262    2.6009   -2.0169 H   0  0  0  0  0  0  0  0  0  0  0  0
   -4.3031   -0.3674   -1.0514 H   0  0  0  0  0  0  0  0  0  0  0  0
   -8.7459    1.2837   -1.8023 H   0  0  0  0  0  0  0  0  0  0  0  0
   -9.2185    1.1632    0.7320 H   0  0  0  0  0  0  0  0  0  0  0  0
   -6.4200   -2.1074    3.8635 H   0  0  0  0  0  0  0  0  0  0  0  0
   -5.7599   -1.9785    2.2200 H   0  0  0  0  0  0  0  0  0  0  0  0
   -8.4736   -3.2106    2.9654 H   0  0  0  0  0  0  0  0  0  0  0  0
   -7.8301   -3.0965    1.3234 H   0  0  0  0  0  0  0  0  0  0  0  0
   -7.0314   -4.1283    2.5128 H   0  0  0  0  0  0  0  0  0  0  0  0
   -6.3710   -1.9509   -7.7840 H   0  0  0  0  0  0  0  0  0  0  0  0
   -4.8213   -2.1680   -9.8461 H   0  0  0  0  0  0  0  0  0  0  0  0
    0.1123   -0.1655   -9.6951 H   0  0  0  0  0  0  0  0  0  0  0  0
   -0.9417    0.4960   -8.4257 H   0  0  0  0  0  0  0  0  0  0  0  0
    0.6637   -1.1827   -7.4722 H   0  0  0  0  0  0  0  0  0  0  0  0
    0.0563   -2.4030   -8.5939 H   0  0  0  0  0  0  0  0  0  0  0  0
   -0.9931   -1.7622   -7.3216 H   0  0  0  0  0  0  0  0  0  0  0  0
   -7.6257   -0.1527   -7.3470 H   0  0  0  0  0  0  0  0  0  0  0  0
   -9.9582    0.0678   -7.6632 H   0  0  0  0  0  0  0  0  0  0  0  0
  -14.2218    1.1990   -3.1775 H   0  0  0  0  0  0  0  0  0  0  0  0
  -16.5684    1.5637   -3.9395 H   0  0  0  0  0  0  0  0  0  0  0  0
  -17.1243    1.4044   -6.3238 H   0  0  0  0  0  0  0  0  0  0  0  0
  -15.4142    0.8850   -7.9957 H   0  0  0  0  0  0  0  0  0  0  0  0
  1  2  2  0  0  0  0
  2  3  1  0  0  0  0
  3  4  2  0  0  0  0
  3  5  1  0  0  0  0
  5  6  2  0  0  0  0
  6  7  1  0  0  0  0
  7  8  2  0  0  0  0
  8  9  1  0  0  0  0
  9 10  2  0  0  0  0
 10 11  1  0  0  0  0
 11 12  2  0  0  0  0
 12 13  1  0  0  0  0
 13 14  3  0  0  0  0
 12 15  1  0  0  0  0
 15 16  3  0  0  0  0
  1 17  1  0  0  0  0
 17 18  2  0  0  0  0
 18 19  1  0  0  0  0
 19 20  1  0  0  0  0
 20 21  2  0  0  0  0
 21 22  1  0  0  0  0
 22 23  2  0  0  0  0
 23 24  1  0  0  0  0
 23 25  1  0  0  0  0
 25 26  2  0  0  0  0
 19 27  1  0  0  0  0
 27 28  2  0  0  0  0
 28 29  1  0  0  0  0
 29 30  2  0  0  0  0
 30 31  1  0  0  0  0
 30 32  1  0  0  0  0
 32 33  2  0  0  0  0
 18 34  1  0  0  0  0
 34 35  1  0  0  0  0
 35 36  1  0  0  0  0
 36 37  2  0  0  0  0
 37 38  1  0  0  0  0
 38 39  1  0  0  0  0
 39 40  2  0  0  0  0
 40 41  1  0  0  0  0
 41 42  2  0  0  0  0
 42 43  1  0  0  0  0
 42 44  1  0  0  0  0
 44 45  2  0  0  0  0
 38 46  1  0  0  0  0
 46 47  2  0  0  0  0
 47 48  1  0  0  0  0
 48 49  2  0  0  0  0
 49 50  1  0  0  0  0
 49 51  1  0  0  0  0
 51 52  2  0  0  0  0
 37 53  1  0  0  0  0
 53 54  1  0  0  0  0
 36 55  1  0  0  0  0
 55 56  2  0  0  0  0
 56 57  1  0  0  0  0
 57 58  1  0  0  0  0
 58 59  2  0  0  0  0
 59 60  1  0  0  0  0
 60 61  2  0  0  0  0
 61 62  1  0  0  0  0
 62 63  1  0  0  0  0
 61 64  1  0  0  0  0
 64 65  2  0  0  0  0
 57 66  1  0  0  0  0
 66 67  2  0  0  0  0
 67 68  1  0  0  0  0
 68 69  2  0  0  0  0
 69 70  1  0  0  0  0
 70 71  1  0  0  0  0
 69 72  1  0  0  0  0
 72 73  2  0  0  0  0
 56 74  1  0  0  0  0
 74 75  1  0  0  0  0
 75 76  1  0  0  0  0
 76 77  2  0  0  0  0
 77 78  1  0  0  0  0
 78 79  1  0  0  0  0
 79 80  2  0  0  0  0
 80 81  1  0  0  0  0
 81 82  2  0  0  0  0
 82 83  1  0  0  0  0
 83 84  1  0  0  0  0
 82 85  1  0  0  0  0
 85 86  2  0  0  0  0
 78 87  1  0  0  0  0
 87 88  2  0  0  0  0
 88 89  1  0  0  0  0
 89 90  2  0  0  0  0
 90 91  1  0  0  0  0
 91 92  1  0  0  0  0
 90 93  1  0  0  0  0
 93 94  2  0  0  0  0
 77 95  1  0  0  0  0
 95 96  1  0  0  0  0
 76 97  1  0  0  0  0
 97 98  2  0  0  0  0
 98 99  1  0  0  0  0
 99100  2  0  0  0  0
100101  1  0  0  0  0
101102  2  0  0  0  0
102103  1  0  0  0  0
103104  2  0  0  0  0
104105  1  0  0  0  0
105106  1  0  0  0  0
106107  1  0  0  0  0
104108  1  0  0  0  0
100109  1  0  0  0  0
109110  2  0  0  0  0
110111  1  0  0  0  0
111112  1  0  0  0  0
112113  2  0  0  0  0
113114  1  0  0  0  0
114115  2  0  0  0  0
115116  1  0  0  0  0
116117  1  0  0  0  0
117118  1  0  0  0  0
115119  1  0  0  0  0
111120  2  0  0  0  0
120121  1  0  0  0  0
110122  1  0  0  0  0
122123  2  0  0  0  0
123124  1  0  0  0  0
123125  1  0  0  0  0
125126  2  0  0  0  0
126127  1  0  0  0  0
127128  2  0  0  0  0
127129  1  0  0  0  0
129130  2  0  0  0  0
130131  1  0  0  0  0
131132  2  0  0  0  0
132133  1  0  0  0  0
133134  2  0  0  0  0
134135  1  0  0  0  0
135136  2  0  0  0  0
136137  1  0  0  0  0
137138  3  0  0  0  0
136139  1  0  0  0  0
139140  3  0  0  0  0
 11  2  1  0  0  0  0
 54 17  1  0  0  0  0
 96 55  1  0  0  0  0
121 97  1  0  0  0  0
135126  1  0  0  0  0
 10  5  1  0  0  0  0
 26 20  1  0  0  0  0
 33 27  1  0  0  0  0
 53 34  2  0  0  0  0
 65 58  1  0  0  0  0
 73 66  1  0  0  0  0
 95 74  2  0  0  0  0
120 99  1  0  0  0  0
134129  1  0  0  0  0
 45 39  1  0  0  0  0
 52 46  1  0  0  0  0
 86 79  1  0  0  0  0
 94 87  1  0  0  0  0
108101  1  0  0  0  0
124109  1  0  0  0  0
119112  1  0  0  0  0
  1141  1  0  0  0  0
  6142  1  0  0  0  0
  7143  1  0  0  0  0
  8144  1  0  0  0  0
  9145  1  0  0  0  0
 21146  1  0  0  0  0
 22147  1  0  0  0  0
 24148  1  0  0  0  0
 24149  1  0  0  0  0
 24150  1  0  0  0  0
 25151  1  0  0  0  0
 26152  1  0  0  0  0
 28153  1  0  0  0  0
 29154  1  0  0  0  0
 31155  1  0  0  0  0
 31156  1  0  0  0  0
 31157  1  0  0  0  0
 32158  1  0  0  0  0
 33159  1  0  0  0  0
 40160  1  0  0  0  0
 41161  1  0  0  0  0
 43162  1  0  0  0  0
 43163  1  0  0  0  0
 43164  1  0  0  0  0
 44165  1  0  0  0  0
 45166  1  0  0  0  0
 47167  1  0  0  0  0
 48168  1  0  0  0  0
 50169  1  0  0  0  0
 50170  1  0  0  0  0
 50171  1  0  0  0  0
 51172  1  0  0  0  0
 52173  1  0  0  0  0
 59174  1  0  0  0  0
 60175  1  0  0  0  0
 63176  1  0  0  0  0
 63177  1  0  0  0  0
 63178  1  0  0  0  0
 64179  1  0  0  0  0
 65180  1  0  0  0  0
 67181  1  0  0  0  0
 68182  1  0  0  0  0
 71183  1  0  0  0  0
 71184  1  0  0  0  0
 71185  1  0  0  0  0
 72186  1  0  0  0  0
 73187  1  0  0  0  0
 80188  1  0  0  0  0
 81189  1  0  0  0  0
 84190  1  0  0  0  0
 84191  1  0  0  0  0
 84192  1  0  0  0  0
 85193  1  0  0  0  0
 86194  1  0  0  0  0
 88195  1  0  0  0  0
 89196  1  0  0  0  0
 92197  1  0  0  0  0
 92198  1  0  0  0  0
 92199  1  0  0  0  0
 93200  1  0  0  0  0
 94201  1  0  0  0  0
 98202  1  0  0  0  0
102203  1  0  0  0  0
103204  1  0  0  0  0
106205  1  0  0  0  0
106206  1  0  0  0  0
107207  1  0  0  0  0
107208  1  0  0  0  0
107209  1  0  0  0  0
113210  1  0  0  0  0
114211  1  0  0  0  0
117212  1  0  0  0  0
117213  1  0  0  0  0
118214  1  0  0  0  0
118215  1  0  0  0  0
118216  1  0  0  0  0
122217  1  0  0  0  0
125218  1  0  0  0  0
130219  1  0  0  0  0
131220  1  0  0  0  0
132221  1  0  0  0  0
133222  1  0  0  0  0
M  END
