222

C          7.89760        0.73240        5.30490
C          8.71220        1.84210        5.41770
C          8.84260        2.86670        4.37580
O          8.24010        2.93160        3.31630
C          9.95460        3.73810        4.81080
C         10.49460        4.83850        4.17890
C         11.54330        5.50400        4.80130
C         12.03400        5.06030        6.01880
C         11.49530        3.94780        6.65550
C         10.44520        3.28420        6.04670
C          9.66370        2.11750        6.45550
C          9.71640        1.50100        7.68170
C          8.84580        0.46760        8.07960
N          8.15200       -0.35580        8.48060
C         10.58550        1.88190        8.71970
N         11.25730        2.16200        9.60910
C          6.74910        0.64270        4.51950
C          5.86810        1.63760        4.04150
N          5.82640        2.94110        4.43790
C          6.35330        3.38010        5.66290
C          6.18350        2.64000        6.83200
C          6.74050        3.07710        8.01470
C          7.48050        4.25670        8.07250
C          8.12050        4.68660        9.35450
C          7.60980        5.00800        6.91260
C          7.05210        4.58350        5.72060
C          5.20750        3.90740        3.61550
C          4.30440        4.81060        4.16530
C          3.70370        5.75820        3.36010
C          3.98640        5.82940        2.00080
C          3.30670        6.83960        1.12930
C          4.90290        4.93110        1.46660
C          5.51170        3.98040        2.26080
C          4.91400        1.06520        3.16910
S          3.57640        1.70960        2.28750
C          3.17470        0.10850        1.68090
C          3.98660       -0.88320        2.21190
N          3.79300       -2.23660        2.02840
C          4.84770       -3.14800        2.21390
C          6.13090       -2.85790        1.76190
C          7.15690       -3.76490        1.94600
C          6.93680       -4.97910        2.58080
C          8.05450       -5.95140        2.80010
C          5.65160       -5.26080        3.03200
C          4.61930       -4.36230        2.85810
C          2.49380       -2.73630        1.83170
C          1.40630       -2.21130        2.52450
C          0.13270       -2.69100        2.29240
C         -0.09120       -3.72020        1.38660
C         -1.47630       -4.21630        1.10220
C          1.00600       -4.27390        0.73640
C          2.28230       -3.78750        0.94470
C          4.99090       -0.31540        3.03710
S          6.25250       -0.97840        4.00810
C          2.05060        0.00390        0.79310
C          1.96170       -0.52650       -0.48490
N          3.01090       -1.02580       -1.23040
C          2.74470       -1.78400       -2.38690
C          3.36050       -1.45360       -3.59510
C          3.05610       -2.15020       -4.74230
C          2.13330       -3.19370       -4.71110
S          1.76420       -3.98970       -6.24440
C          0.13200       -4.72450       -5.93180
C          1.56030       -3.56150       -3.50310
C          1.86160       -2.85830       -2.35140
C          4.33880       -0.61200       -1.02730
C          4.66710        0.69250       -0.67220
C          5.98300        1.05310       -0.44700
C          7.00020        0.12390       -0.61560
S          8.71290        0.44300       -0.34160
C          8.78350        2.16780        0.21250
C          6.67830       -1.16640       -1.03810
C          5.36570       -1.53430       -1.22760
C          0.63250       -0.41700       -0.97470
S         -0.15040       -0.85420       -2.45640
C         -1.66760       -0.20450       -1.87490
C         -1.54630        0.40430       -0.63250
N         -2.54370        1.15490       -0.00990
C         -2.95070        0.79800        1.27960
C         -3.50380        1.74310        2.14060
C         -3.97330        1.37330        3.38470
C         -3.88610        0.05060        3.79730
S         -4.48380       -0.53090        5.35580
C         -5.67190        0.75000        5.84700
C         -3.28920       -0.88770        2.96040
C         -2.83030       -0.52240        1.71420
C         -3.30340        2.02060       -0.80980
C         -4.67490        2.18450       -0.62440
C         -5.43140        2.90050       -1.53060
C         -4.83380        3.45490       -2.65270
S         -5.73500        4.27470       -3.93110
C         -7.41790        3.62660       -3.71990
C         -3.45090        3.37130       -2.79780
C         -2.69500        2.67470       -1.88340
C         -0.24080        0.23960       -0.12010
S          0.53710        0.73240        1.33370
C         -2.86750       -0.34120       -2.62580
C         -4.13070       -0.34660       -2.10800
C         -5.15510       -0.34640       -3.07710
C         -6.54600       -0.22740       -2.86110
C         -7.11020       -0.09850       -1.53430
C         -8.17260        0.66850       -1.13350
C         -8.43520        0.61220        0.24520
C         -7.58510       -0.21890        0.91700
S         -7.52240       -0.42620        2.64870
C         -6.67700       -2.03750        2.80700
C         -7.56120       -3.18840        2.37390
S         -6.43770       -0.94830       -0.16180
C         -7.34010       -0.16190       -4.00550
C         -6.81040       -0.28190       -5.31900
C         -5.41730       -0.45770       -5.53040
C         -4.87790       -0.71060       -6.84100
C         -5.41880       -1.45760       -7.85890
C         -4.57420       -1.60120       -8.96760
C         -3.37570       -0.95750       -8.81070
S         -2.09620       -0.90170       -9.98970
C         -0.66110       -0.40740       -8.96700
C         -0.20900       -1.51080       -8.03220
S         -3.28900       -0.14290       -7.28080
C         -4.62480       -0.40950       -4.39100
S         -2.87820       -0.45370       -4.36820
C         -7.81270       -0.14920       -6.28830
C         -9.08470        0.03550       -5.77560
S         -9.06770        0.07040       -4.02520
C        -10.21000        0.15520       -6.61300
C        -11.52940        0.35230       -6.30990
C        -12.08760        0.58940       -4.96710
O        -11.49560        0.59820       -3.90470
C        -13.52660        0.83970       -5.16580
C        -14.49000        1.13280       -4.22080
C        -15.79280        1.33400       -4.65440
C        -16.10620        1.24270       -6.00290
C        -15.13970        0.94710       -6.95560
C        -13.83520        0.74180       -6.53390
C        -12.61520        0.41500       -7.27120
C        -12.54700        0.17710       -8.61950
C        -11.38950       -0.18940       -9.33790
N        -10.50160       -0.50160       -9.99720
C        -13.65280        0.24570       -9.49350
N        -14.50420        0.28530      -10.26260
H          8.18670       -0.17520        5.82110
H         10.10060        5.16840        3.22930
H         11.98080        6.37310        4.33290
H         12.85400        5.58560        6.48540
H         11.90160        3.61700        7.59760
H          5.61750        1.72090        6.81040
H          6.60560        2.48990        8.91120
H          7.41030        4.62660       10.17700
H          8.95890        4.03230        9.59580
H          8.49320        5.70500        9.28190
H          8.16620        5.93380        6.93410
H          7.16370        5.17640        4.82510
H          4.07590        4.76270        5.22000
H          2.99930        6.45250        3.79450
H          3.04350        7.72900        1.69670
H          3.94390        7.12660        0.29600
H          2.38830        6.41670        0.72090
H          5.14780        4.98400        0.41540
H          6.24850        3.30450        1.85870
H          6.32120       -1.92700        1.25370
H          8.14480       -3.51860        1.58520
H          7.70090       -6.97620        2.71060
H          8.85630       -5.78920        2.08390
H          8.46510       -5.82490        3.80240
H          5.45810       -6.19640        3.53650
H          3.63050       -4.59530        3.22500
H          1.56060       -1.42910        3.25280
H         -0.69560       -2.26000        2.83480
H         -1.47780       -5.29310        0.94700
H         -1.86360       -3.74920        0.19480
H         -2.15080       -3.97810        1.92090
H          0.85760       -5.09600        0.04980
H          3.12380       -4.21680        0.42100
H          4.06170       -0.63320       -3.63000
H          3.51510       -1.88240       -5.68150
H         -0.50580       -3.98740       -5.45340
H          0.22770       -5.61850       -5.32230
H         -0.26710       -4.98870       -6.90590
H          0.87300       -4.39000       -3.44380
H          1.40840       -3.14120       -1.41440
H          3.89230        1.43850       -0.58120
H          6.19920        2.06690       -0.15230
H          8.33590        2.27050        1.19720
H          9.84180        2.40390        0.27330
H          8.30810        2.81400       -0.51940
H          7.47210       -1.88100       -1.19230
H          5.12430       -2.54300       -1.52710
H         -3.56770        2.77450        1.82810
H         -4.40270        2.12610        4.02580
H         -5.14980        1.64750        6.16610
H         -6.22630        0.33350        6.68210
H         -6.34340        0.95250        5.01780
H         -3.21250       -1.91150        3.29570
H         -2.39600       -1.26270        1.05890
H         -5.16750        1.72400        0.21870
H         -6.49210        2.99160       -1.36210
H         -7.95770        3.90090       -4.62090
H         -7.89550        4.07930       -2.85570
H         -7.37460        2.54600       -3.62560
H         -2.98130        3.84480       -3.64610
H         -1.62620        2.60090       -2.01690
H         -4.30310       -0.36740       -1.05140
H         -8.74590        1.28370       -1.80230
H         -9.21850        1.16320        0.73200
H         -6.42000       -2.10740        3.86350
H         -5.75990       -1.97850        2.22000
H         -8.47360       -3.21060        2.96540
H         -7.83010       -3.09650        1.32340
H         -7.03140       -4.12830        2.51280
H         -6.37100       -1.95090       -7.78400
H         -4.82130       -2.16800       -9.84610
H          0.11230       -0.16550       -9.69510
H         -0.94170        0.49600       -8.42570
H          0.66370       -1.18270       -7.47220
H          0.05630       -2.40300       -8.59390
H         -0.99310       -1.76220       -7.32160
H         -7.62570       -0.15270       -7.34700
H         -9.95820        0.06780       -7.66320
H        -14.22180        1.19900       -3.17750
H        -16.56840        1.56370       -3.93950
H        -17.12430        1.40440       -6.32380
H        -15.41420        0.88500       -7.99570
