
  xtb     02172218323D
 energy: -338.468052726529 gnorm: 0.000425267097 xtb: 6.4.1 (unknown)
204221  0     0  0            999 V2000
   -5.5204    6.5245    0.6164 C   0  0  0  0  0  0  0  0  0  0  0  0
   -6.0277    7.5170    1.4261 C   0  0  0  0  0  0  0  0  0  0  0  0
   -5.4365    8.0128    2.6709 C   0  0  0  0  0  0  0  0  0  0  0  0
   -4.4763    7.5687    3.2767 O   0  0  0  0  0  0  0  0  0  0  0  0
   -6.2326    9.1959    3.0547 C   0  0  0  0  0  0  0  0  0  0  0  0
   -6.0711   10.0345    4.1387 C   0  0  0  0  0  0  0  0  0  0  0  0
   -6.9505   11.0997    4.2799 C   0  0  0  0  0  0  0  0  0  0  0  0
   -7.9595   11.3050    3.3513 C   0  0  0  0  0  0  0  0  0  0  0  0
   -8.1267   10.4598    2.2608 C   0  0  0  0  0  0  0  0  0  0  0  0
   -7.2544    9.3945    2.1104 C   0  0  0  0  0  0  0  0  0  0  0  0
   -7.1748    8.3321    1.1062 C   0  0  0  0  0  0  0  0  0  0  0  0
   -8.0688    8.1468    0.0790 C   0  0  0  0  0  0  0  0  0  0  0  0
   -8.1009    7.0374   -0.7868 C   0  0  0  0  0  0  0  0  0  0  0  0
   -8.2278    6.1480   -1.5048 N   0  0  0  0  0  0  0  0  0  0  0  0
   -9.1192    9.0344   -0.2265 C   0  0  0  0  0  0  0  0  0  0  0  0
   -9.9805    9.7223   -0.5503 N   0  0  0  0  0  0  0  0  0  0  0  0
   -4.4283    5.6788    0.7938 C   0  0  0  0  0  0  0  0  0  0  0  0
   -4.0314    4.7131   -0.1666 C   0  0  0  0  0  0  0  0  0  0  0  0
   -4.5389    4.5718   -1.4302 N   0  0  0  0  0  0  0  0  0  0  0  0
   -4.6089    3.2731   -1.9743 C   0  0  0  0  0  0  0  0  0  0  0  0
   -5.0978    2.2241   -1.1987 C   0  0  0  0  0  0  0  0  0  0  0  0
   -5.1512    0.9473   -1.7169 C   0  0  0  0  0  0  0  0  0  0  0  0
   -4.7312    0.6822   -3.0164 C   0  0  0  0  0  0  0  0  0  0  0  0
   -4.7823   -0.7144   -3.5536 C   0  0  0  0  0  0  0  0  0  0  0  0
   -4.2636    1.7387   -3.7875 C   0  0  0  0  0  0  0  0  0  0  0  0
   -4.1983    3.0216   -3.2785 C   0  0  0  0  0  0  0  0  0  0  0  0
   -4.8994    5.6656   -2.2365 C   0  0  0  0  0  0  0  0  0  0  0  0
   -4.1809    6.8577   -2.1800 C   0  0  0  0  0  0  0  0  0  0  0  0
   -4.5539    7.9269   -2.9694 C   0  0  0  0  0  0  0  0  0  0  0  0
   -5.6311    7.8337   -3.8434 C   0  0  0  0  0  0  0  0  0  0  0  0
   -6.0564    8.9998   -4.6810 C   0  0  0  0  0  0  0  0  0  0  0  0
   -6.3208    6.6291   -3.9151 C   0  0  0  0  0  0  0  0  0  0  0  0
   -5.9694    5.5557   -3.1215 C   0  0  0  0  0  0  0  0  0  0  0  0
   -3.0402    3.8667    0.3618 C   0  0  0  0  0  0  0  0  0  0  0  0
   -2.1375    2.5318   -0.2744 S   0  0  0  0  0  0  0  0  0  0  0  0
   -1.2892    2.3671    1.2542 C   0  0  0  0  0  0  0  0  0  0  0  0
   -1.6342    3.3270    2.1752 C   0  0  0  0  0  0  0  0  0  0  0  0
   -1.1200    3.4888    3.4524 N   0  0  0  0  0  0  0  0  0  0  0  0
   -2.0282    4.0257    4.3967 C   0  0  0  0  0  0  0  0  0  0  0  0
   -1.7620    5.2204    5.0577 C   0  0  0  0  0  0  0  0  0  0  0  0
   -2.7043    5.7610    5.9073 C   0  0  0  0  0  0  0  0  0  0  0  0
   -3.9279    5.1344    6.1148 C   0  0  0  0  0  0  0  0  0  0  0  0
   -4.9648    5.7711    6.9876 C   0  0  0  0  0  0  0  0  0  0  0  0
   -4.1752    3.9318    5.4668 C   0  0  0  0  0  0  0  0  0  0  0  0
   -3.2375    3.3767    4.6170 C   0  0  0  0  0  0  0  0  0  0  0  0
    0.2446    3.4652    3.7414 C   0  0  0  0  0  0  0  0  0  0  0  0
    1.2135    3.5722    2.7459 C   0  0  0  0  0  0  0  0  0  0  0  0
    2.5539    3.5658    3.0776 C   0  0  0  0  0  0  0  0  0  0  0  0
    2.9757    3.4833    4.3989 C   0  0  0  0  0  0  0  0  0  0  0  0
    4.4351    3.5052    4.7417 C   0  0  0  0  0  0  0  0  0  0  0  0
    2.0028    3.3889    5.3876 C   0  0  0  0  0  0  0  0  0  0  0  0
    0.6605    3.3656    5.0692 C   0  0  0  0  0  0  0  0  0  0  0  0
   -2.6513    4.1806    1.6546 C   0  0  0  0  0  0  0  0  0  0  0  0
   -3.4813    5.5580    2.2810 S   0  0  0  0  0  0  0  0  0  0  0  0
   -0.4438    1.1751    1.3313 C   0  0  0  0  0  0  0  0  0  0  0  0
   -0.9270    0.0143    1.8911 C   0  0  0  0  0  0  0  0  0  0  0  0
   -2.0759    0.0348    2.5916 F   0  0  0  0  0  0  0  0  0  0  0  0
   -0.3092   -1.2279    1.6776 C   0  0  0  0  0  0  0  0  0  0  0  0
   -0.9242   -2.3278    2.1542 F   0  0  0  0  0  0  0  0  0  0  0  0
    0.8712   -1.3448    0.9799 C   0  0  0  0  0  0  0  0  0  0  0  0
    1.4746   -0.1410    0.5208 C   0  0  0  0  0  0  0  0  0  0  0  0
    2.6881   -0.1743   -0.0535 N   0  0  0  0  0  0  0  0  0  0  0  0
    3.1858    0.9172   -0.5779 C   0  0  0  0  0  0  0  0  0  0  0  0
    4.6074    0.8361   -1.0430 C   0  0  0  0  0  0  0  0  0  0  0  0
    5.5580    0.9668    0.1508 C   0  0  0  0  0  0  0  0  0  0  0  0
    2.3890    2.0998   -0.6633 C   0  0  0  0  0  0  0  0  0  0  0  0
    1.2393    2.1636   -0.0422 N   0  0  0  0  0  0  0  0  0  0  0  0
    0.7781    1.0887    0.6192 C   0  0  0  0  0  0  0  0  0  0  0  0
    2.7633    3.3054   -1.4726 C   0  0  0  0  0  0  0  0  0  0  0  0
    3.6720    4.2674   -0.7056 C   0  0  0  0  0  0  0  0  0  0  0  0
    1.4542   -2.6190    0.5901 C   0  0  0  0  0  0  0  0  0  0  0  0
    2.7505   -3.0450    0.8137 C   0  0  0  0  0  0  0  0  0  0  0  0
    3.5500   -2.4584    1.7705 N   0  0  0  0  0  0  0  0  0  0  0  0
    2.8740   -1.8680    2.8640 C   0  0  0  0  0  0  0  0  0  0  0  0
    1.8929   -2.5908    3.5370 C   0  0  0  0  0  0  0  0  0  0  0  0
    1.1340   -2.0004    4.5265 C   0  0  0  0  0  0  0  0  0  0  0  0
    1.3552   -0.6712    4.8633 C   0  0  0  0  0  0  0  0  0  0  0  0
    0.3981    0.1936    6.0658 S   0  0  0  0  0  0  0  0  0  0  0  0
   -1.1533   -0.7539    6.1143 C   0  0  0  0  0  0  0  0  0  0  0  0
    2.3873    0.0306    4.2455 C   0  0  0  0  0  0  0  0  0  0  0  0
    3.1416   -0.5599    3.2551 C   0  0  0  0  0  0  0  0  0  0  0  0
    4.9416   -2.5157    1.7551 C   0  0  0  0  0  0  0  0  0  0  0  0
    5.6427   -2.5076    2.9628 C   0  0  0  0  0  0  0  0  0  0  0  0
    7.0169   -2.5759    2.9692 C   0  0  0  0  0  0  0  0  0  0  0  0
    7.7245   -2.6715    1.7750 C   0  0  0  0  0  0  0  0  0  0  0  0
    9.4895   -2.7353    1.8830 S   0  0  0  0  0  0  0  0  0  0  0  0
    9.9221   -3.8751    0.5380 C   0  0  0  0  0  0  0  0  0  0  0  0
    7.0367   -2.6612    0.5697 C   0  0  0  0  0  0  0  0  0  0  0  0
    5.6570   -2.5729    0.5599 C   0  0  0  0  0  0  0  0  0  0  0  0
    3.0181   -4.2269    0.0738 C   0  0  0  0  0  0  0  0  0  0  0  0
    4.4286   -5.1688   -0.2379 S   0  0  0  0  0  0  0  0  0  0  0  0
    3.5125   -6.2656   -1.2665 C   0  0  0  0  0  0  0  0  0  0  0  0
    2.1751   -5.8664   -1.3865 C   0  0  0  0  0  0  0  0  0  0  0  0
    1.2643   -6.4486   -2.2406 N   0  0  0  0  0  0  0  0  0  0  0  0
    1.6678   -6.9164   -3.5067 C   0  0  0  0  0  0  0  0  0  0  0  0
    2.5967   -6.2034   -4.2641 C   0  0  0  0  0  0  0  0  0  0  0  0
    3.0419   -6.7059   -5.4672 C   0  0  0  0  0  0  0  0  0  0  0  0
    2.5587   -7.9221   -5.9387 C   0  0  0  0  0  0  0  0  0  0  0  0
    3.2136   -8.5393   -7.4572 S   0  0  0  0  0  0  0  0  0  0  0  0
    3.1310  -10.3362   -7.1787 C   0  0  0  0  0  0  0  0  0  0  0  0
    1.5862   -8.6024   -5.2179 C   0  0  0  0  0  0  0  0  0  0  0  0
    1.1460   -8.1040   -4.0093 C   0  0  0  0  0  0  0  0  0  0  0  0
   -0.1014   -6.3718   -1.9305 C   0  0  0  0  0  0  0  0  0  0  0  0
   -0.5271   -6.5519   -0.6168 C   0  0  0  0  0  0  0  0  0  0  0  0
   -1.8596   -6.4162   -0.2824 C   0  0  0  0  0  0  0  0  0  0  0  0
   -2.7921   -6.1044   -1.2627 C   0  0  0  0  0  0  0  0  0  0  0  0
   -4.5100   -5.8680   -0.9432 S   0  0  0  0  0  0  0  0  0  0  0  0
   -4.5831   -5.6839    0.8620 C   0  0  0  0  0  0  0  0  0  0  0  0
   -2.3759   -5.9723   -2.5868 C   0  0  0  0  0  0  0  0  0  0  0  0
   -1.0469   -6.1022   -2.9199 C   0  0  0  0  0  0  0  0  0  0  0  0
    1.9171   -4.7070   -0.6243 C   0  0  0  0  0  0  0  0  0  0  0  0
    0.5253   -3.7037   -0.4168 S   0  0  0  0  0  0  0  0  0  0  0  0
    4.0370   -7.3770   -1.9682 C   0  0  0  0  0  0  0  0  0  0  0  0
    5.1974   -7.5537   -2.6597 C   0  0  0  0  0  0  0  0  0  0  0  0
    5.1598   -8.5436   -3.7720 C   0  0  0  0  0  0  0  0  0  0  0  0
    4.4422   -9.5155   -3.8619 O   0  0  0  0  0  0  0  0  0  0  0  0
    6.0899   -8.0085   -4.7841 C   0  0  0  0  0  0  0  0  0  0  0  0
    6.3377   -8.4621   -6.0647 C   0  0  0  0  0  0  0  0  0  0  0  0
    7.2001   -7.7286   -6.8675 C   0  0  0  0  0  0  0  0  0  0  0  0
    7.7973   -6.5724   -6.3880 C   0  0  0  0  0  0  0  0  0  0  0  0
    7.5729   -6.1249   -5.0920 C   0  0  0  0  0  0  0  0  0  0  0  0
    6.7168   -6.8516   -4.2825 C   0  0  0  0  0  0  0  0  0  0  0  0
    6.3342   -6.6902   -2.8793 C   0  0  0  0  0  0  0  0  0  0  0  0
    7.0752   -6.0225   -1.9400 C   0  0  0  0  0  0  0  0  0  0  0  0
    7.0218   -6.2991   -0.5583 C   0  0  0  0  0  0  0  0  0  0  0  0
    7.1212   -6.5729    0.5523 N   0  0  0  0  0  0  0  0  0  0  0  0
    8.0910   -5.1053   -2.2668 C   0  0  0  0  0  0  0  0  0  0  0  0
    8.8849   -4.3020   -2.4779 N   0  0  0  0  0  0  0  0  0  0  0  0
   -6.0473    6.3697   -0.3166 H   0  0  0  0  0  0  0  0  0  0  0  0
   -5.2778    9.8553    4.8484 H   0  0  0  0  0  0  0  0  0  0  0  0
   -6.8489   11.7738    5.1172 H   0  0  0  0  0  0  0  0  0  0  0  0
   -8.6335   12.1395    3.4746 H   0  0  0  0  0  0  0  0  0  0  0  0
   -8.9201   10.6445    1.5553 H   0  0  0  0  0  0  0  0  0  0  0  0
   -5.4372    2.4202   -0.1921 H   0  0  0  0  0  0  0  0  0  0  0  0
   -5.5296    0.1408   -1.1062 H   0  0  0  0  0  0  0  0  0  0  0  0
   -4.0799   -1.3500   -3.0145 H   0  0  0  0  0  0  0  0  0  0  0  0
   -5.7769   -1.1377   -3.4237 H   0  0  0  0  0  0  0  0  0  0  0  0
   -4.5274   -0.7370   -4.6098 H   0  0  0  0  0  0  0  0  0  0  0  0
   -3.9365    1.5560   -4.8008 H   0  0  0  0  0  0  0  0  0  0  0  0
   -3.8234    3.8323   -3.8856 H   0  0  0  0  0  0  0  0  0  0  0  0
   -3.3373    6.9429   -1.5106 H   0  0  0  0  0  0  0  0  0  0  0  0
   -3.9921    8.8480   -2.9098 H   0  0  0  0  0  0  0  0  0  0  0  0
   -6.1938    8.6978   -5.7177 H   0  0  0  0  0  0  0  0  0  0  0  0
   -7.0087    9.3891   -4.3206 H   0  0  0  0  0  0  0  0  0  0  0  0
   -5.3210    9.7994   -4.6416 H   0  0  0  0  0  0  0  0  0  0  0  0
   -7.1603    6.5357   -4.5871 H   0  0  0  0  0  0  0  0  0  0  0  0
   -6.5289    4.6352   -3.1720 H   0  0  0  0  0  0  0  0  0  0  0  0
   -0.8243    5.7274    4.8854 H   0  0  0  0  0  0  0  0  0  0  0  0
   -2.4974    6.6987    6.4013 H   0  0  0  0  0  0  0  0  0  0  0  0
   -5.4679    6.5635    6.4322 H   0  0  0  0  0  0  0  0  0  0  0  0
   -4.5101    6.2173    7.8697 H   0  0  0  0  0  0  0  0  0  0  0  0
   -5.7127    5.0472    7.3021 H   0  0  0  0  0  0  0  0  0  0  0  0
   -5.1172    3.4250    5.6216 H   0  0  0  0  0  0  0  0  0  0  0  0
   -3.4399    2.4457    4.1070 H   0  0  0  0  0  0  0  0  0  0  0  0
    0.9201    3.6718    1.7124 H   0  0  0  0  0  0  0  0  0  0  0  0
    3.2929    3.6362    2.2918 H   0  0  0  0  0  0  0  0  0  0  0  0
    5.0107    2.9193    4.0271 H   0  0  0  0  0  0  0  0  0  0  0  0
    4.6049    3.1061    5.7388 H   0  0  0  0  0  0  0  0  0  0  0  0
    4.8127    4.5281    4.7163 H   0  0  0  0  0  0  0  0  0  0  0  0
    2.2985    3.3132    6.4239 H   0  0  0  0  0  0  0  0  0  0  0  0
   -0.0740    3.2703    5.8534 H   0  0  0  0  0  0  0  0  0  0  0  0
    4.8230    1.6137   -1.7746 H   0  0  0  0  0  0  0  0  0  0  0  0
    4.7644   -0.1391   -1.5054 H   0  0  0  0  0  0  0  0  0  0  0  0
    6.5903    0.9466   -0.1889 H   0  0  0  0  0  0  0  0  0  0  0  0
    5.3858    1.8988    0.6854 H   0  0  0  0  0  0  0  0  0  0  0  0
    5.4089    0.1385    0.8385 H   0  0  0  0  0  0  0  0  0  0  0  0
    3.2523    2.9922   -2.3970 H   0  0  0  0  0  0  0  0  0  0  0  0
    1.8379    3.8248   -1.7268 H   0  0  0  0  0  0  0  0  0  0  0  0
    3.9078    5.1264   -1.3291 H   0  0  0  0  0  0  0  0  0  0  0  0
    3.1680    4.6210    0.1902 H   0  0  0  0  0  0  0  0  0  0  0  0
    4.6036    3.7860   -0.4192 H   0  0  0  0  0  0  0  0  0  0  0  0
    1.7075   -3.6199    3.2658 H   0  0  0  0  0  0  0  0  0  0  0  0
    0.3738   -2.5817    5.0229 H   0  0  0  0  0  0  0  0  0  0  0  0
   -1.0167   -1.6853    6.6560 H   0  0  0  0  0  0  0  0  0  0  0  0
   -1.8633   -0.1243    6.6414 H   0  0  0  0  0  0  0  0  0  0  0  0
   -1.5010   -0.9338    5.1022 H   0  0  0  0  0  0  0  0  0  0  0  0
    2.5712    1.0518    4.5349 H   0  0  0  0  0  0  0  0  0  0  0  0
    3.9244   -0.0031    2.7635 H   0  0  0  0  0  0  0  0  0  0  0  0
    5.1001   -2.4598    3.8949 H   0  0  0  0  0  0  0  0  0  0  0  0
    7.5588   -2.5724    3.9020 H   0  0  0  0  0  0  0  0  0  0  0  0
    9.2817   -4.7499    0.6009 H   0  0  0  0  0  0  0  0  0  0  0  0
    9.8259   -3.3914   -0.4291 H   0  0  0  0  0  0  0  0  0  0  0  0
   10.9567   -4.1567    0.7062 H   0  0  0  0  0  0  0  0  0  0  0  0
    7.5717   -2.7065   -0.3665 H   0  0  0  0  0  0  0  0  0  0  0  0
    5.1299   -2.5124   -0.3800 H   0  0  0  0  0  0  0  0  0  0  0  0
    2.9798   -5.2632   -3.8949 H   0  0  0  0  0  0  0  0  0  0  0  0
    3.7737   -6.1659   -6.0491 H   0  0  0  0  0  0  0  0  0  0  0  0
    3.8198  -10.7850   -7.8879 H   0  0  0  0  0  0  0  0  0  0  0  0
    2.1267  -10.7043   -7.3668 H   0  0  0  0  0  0  0  0  0  0  0  0
    3.4425  -10.5432   -6.1587 H   0  0  0  0  0  0  0  0  0  0  0  0
    1.1777   -9.5298   -5.5846 H   0  0  0  0  0  0  0  0  0  0  0  0
    0.4050   -8.6433   -3.4383 H   0  0  0  0  0  0  0  0  0  0  0  0
    0.1934   -6.7997    0.1487 H   0  0  0  0  0  0  0  0  0  0  0  0
   -2.1557   -6.5585    0.7439 H   0  0  0  0  0  0  0  0  0  0  0  0
   -4.3974   -6.6380    1.3468 H   0  0  0  0  0  0  0  0  0  0  0  0
   -3.8675   -4.9314    1.1797 H   0  0  0  0  0  0  0  0  0  0  0  0
   -5.5932   -5.3528    1.0824 H   0  0  0  0  0  0  0  0  0  0  0  0
   -3.1084   -5.7471   -3.3466 H   0  0  0  0  0  0  0  0  0  0  0  0
   -0.7288   -5.9743   -3.9436 H   0  0  0  0  0  0  0  0  0  0  0  0
    3.3083   -8.1626   -2.1542 H   0  0  0  0  0  0  0  0  0  0  0  0
    5.8683   -9.3636   -6.4234 H   0  0  0  0  0  0  0  0  0  0  0  0
    7.4029   -8.0572   -7.8753 H   0  0  0  0  0  0  0  0  0  0  0  0
    8.4556   -6.0074   -7.0309 H   0  0  0  0  0  0  0  0  0  0  0  0
    8.0494   -5.2234   -4.7415 H   0  0  0  0  0  0  0  0  0  0  0  0
  1  2  2  0  0  0  0
  2  3  1  0  0  0  0
  3  4  2  0  0  0  0
  3  5  1  0  0  0  0
  5  6  2  0  0  0  0
  6  7  1  0  0  0  0
  7  8  2  0  0  0  0
  8  9  1  0  0  0  0
  9 10  2  0  0  0  0
 10 11  1  0  0  0  0
 11 12  2  0  0  0  0
 12 13  1  0  0  0  0
 13 14  3  0  0  0  0
 12 15  1  0  0  0  0
 15 16  3  0  0  0  0
  1 17  1  0  0  0  0
 17 18  2  0  0  0  0
 18 19  1  0  0  0  0
 19 20  1  0  0  0  0
 20 21  2  0  0  0  0
 21 22  1  0  0  0  0
 22 23  2  0  0  0  0
 23 24  1  0  0  0  0
 23 25  1  0  0  0  0
 25 26  2  0  0  0  0
 19 27  1  0  0  0  0
 27 28  2  0  0  0  0
 28 29  1  0  0  0  0
 29 30  2  0  0  0  0
 30 31  1  0  0  0  0
 30 32  1  0  0  0  0
 32 33  2  0  0  0  0
 18 34  1  0  0  0  0
 34 35  1  0  0  0  0
 35 36  1  0  0  0  0
 36 37  2  0  0  0  0
 37 38  1  0  0  0  0
 38 39  1  0  0  0  0
 39 40  2  0  0  0  0
 40 41  1  0  0  0  0
 41 42  2  0  0  0  0
 42 43  1  0  0  0  0
 42 44  1  0  0  0  0
 44 45  2  0  0  0  0
 38 46  1  0  0  0  0
 46 47  2  0  0  0  0
 47 48  1  0  0  0  0
 48 49  2  0  0  0  0
 49 50  1  0  0  0  0
 49 51  1  0  0  0  0
 51 52  2  0  0  0  0
 37 53  1  0  0  0  0
 53 54  1  0  0  0  0
 36 55  1  0  0  0  0
 55 56  2  0  0  0  0
 56 57  1  0  0  0  0
 56 58  1  0  0  0  0
 58 59  1  0  0  0  0
 58 60  2  0  0  0  0
 60 61  1  0  0  0  0
 61 62  2  0  0  0  0
 62 63  1  0  0  0  0
 63 64  1  0  0  0  0
 64 65  1  0  0  0  0
 63 66  2  0  0  0  0
 66 67  1  0  0  0  0
 67 68  2  0  0  0  0
 66 69  1  0  0  0  0
 69 70  1  0  0  0  0
 60 71  1  0  0  0  0
 71 72  2  0  0  0  0
 72 73  1  0  0  0  0
 73 74  1  0  0  0  0
 74 75  2  0  0  0  0
 75 76  1  0  0  0  0
 76 77  2  0  0  0  0
 77 78  1  0  0  0  0
 78 79  1  0  0  0  0
 77 80  1  0  0  0  0
 80 81  2  0  0  0  0
 73 82  1  0  0  0  0
 82 83  2  0  0  0  0
 83 84  1  0  0  0  0
 84 85  2  0  0  0  0
 85 86  1  0  0  0  0
 86 87  1  0  0  0  0
 85 88  1  0  0  0  0
 88 89  2  0  0  0  0
 72 90  1  0  0  0  0
 90 91  1  0  0  0  0
 91 92  1  0  0  0  0
 92 93  2  0  0  0  0
 93 94  1  0  0  0  0
 94 95  1  0  0  0  0
 95 96  2  0  0  0  0
 96 97  1  0  0  0  0
 97 98  2  0  0  0  0
 98 99  1  0  0  0  0
 99100  1  0  0  0  0
 98101  1  0  0  0  0
101102  2  0  0  0  0
 94103  1  0  0  0  0
103104  2  0  0  0  0
104105  1  0  0  0  0
105106  2  0  0  0  0
106107  1  0  0  0  0
107108  1  0  0  0  0
106109  1  0  0  0  0
109110  2  0  0  0  0
 93111  1  0  0  0  0
111112  1  0  0  0  0
 92113  1  0  0  0  0
113114  2  0  0  0  0
114115  1  0  0  0  0
115116  2  0  0  0  0
115117  1  0  0  0  0
117118  2  0  0  0  0
118119  1  0  0  0  0
119120  2  0  0  0  0
120121  1  0  0  0  0
121122  2  0  0  0  0
122123  1  0  0  0  0
123124  2  0  0  0  0
124125  1  0  0  0  0
125126  3  0  0  0  0
124127  1  0  0  0  0
127128  3  0  0  0  0
 11  2  1  0  0  0  0
 54 17  1  0  0  0  0
 68 55  1  0  0  0  0
112 71  1  0  0  0  0
123114  1  0  0  0  0
 10  5  1  0  0  0  0
 26 20  1  0  0  0  0
 33 27  1  0  0  0  0
 53 34  2  0  0  0  0
 68 61  1  0  0  0  0
 81 74  1  0  0  0  0
 89 82  1  0  0  0  0
111 90  2  0  0  0  0
122117  1  0  0  0  0
 45 39  1  0  0  0  0
 52 46  1  0  0  0  0
102 95  1  0  0  0  0
110103  1  0  0  0  0
  1129  1  0  0  0  0
  6130  1  0  0  0  0
  7131  1  0  0  0  0
  8132  1  0  0  0  0
  9133  1  0  0  0  0
 21134  1  0  0  0  0
 22135  1  0  0  0  0
 24136  1  0  0  0  0
 24137  1  0  0  0  0
 24138  1  0  0  0  0
 25139  1  0  0  0  0
 26140  1  0  0  0  0
 28141  1  0  0  0  0
 29142  1  0  0  0  0
 31143  1  0  0  0  0
 31144  1  0  0  0  0
 31145  1  0  0  0  0
 32146  1  0  0  0  0
 33147  1  0  0  0  0
 40148  1  0  0  0  0
 41149  1  0  0  0  0
 43150  1  0  0  0  0
 43151  1  0  0  0  0
 43152  1  0  0  0  0
 44153  1  0  0  0  0
 45154  1  0  0  0  0
 47155  1  0  0  0  0
 48156  1  0  0  0  0
 50157  1  0  0  0  0
 50158  1  0  0  0  0
 50159  1  0  0  0  0
 51160  1  0  0  0  0
 52161  1  0  0  0  0
 64162  1  0  0  0  0
 64163  1  0  0  0  0
 65164  1  0  0  0  0
 65165  1  0  0  0  0
 65166  1  0  0  0  0
 69167  1  0  0  0  0
 69168  1  0  0  0  0
 70169  1  0  0  0  0
 70170  1  0  0  0  0
 70171  1  0  0  0  0
 75172  1  0  0  0  0
 76173  1  0  0  0  0
 79174  1  0  0  0  0
 79175  1  0  0  0  0
 79176  1  0  0  0  0
 80177  1  0  0  0  0
 81178  1  0  0  0  0
 83179  1  0  0  0  0
 84180  1  0  0  0  0
 87181  1  0  0  0  0
 87182  1  0  0  0  0
 87183  1  0  0  0  0
 88184  1  0  0  0  0
 89185  1  0  0  0  0
 96186  1  0  0  0  0
 97187  1  0  0  0  0
100188  1  0  0  0  0
100189  1  0  0  0  0
100190  1  0  0  0  0
101191  1  0  0  0  0
102192  1  0  0  0  0
104193  1  0  0  0  0
105194  1  0  0  0  0
108195  1  0  0  0  0
108196  1  0  0  0  0
108197  1  0  0  0  0
109198  1  0  0  0  0
110199  1  0  0  0  0
113200  1  0  0  0  0
118201  1  0  0  0  0
119202  1  0  0  0  0
120203  1  0  0  0  0
121204  1  0  0  0  0
M  END
