204

C         -5.52040        6.52450        0.61640
C         -6.02770        7.51700        1.42610
C         -5.43650        8.01280        2.67090
O         -4.47630        7.56870        3.27670
C         -6.23260        9.19590        3.05470
C         -6.07110       10.03450        4.13870
C         -6.95050       11.09970        4.27990
C         -7.95950       11.30500        3.35130
C         -8.12670       10.45980        2.26080
C         -7.25440        9.39450        2.11040
C         -7.17480        8.33210        1.10620
C         -8.06880        8.14680        0.07900
C         -8.10090        7.03740       -0.78680
N         -8.22780        6.14800       -1.50480
C         -9.11920        9.03440       -0.22650
N         -9.98050        9.72230       -0.55030
C         -4.42830        5.67880        0.79380
C         -4.03140        4.71310       -0.16660
N         -4.53890        4.57180       -1.43020
C         -4.60890        3.27310       -1.97430
C         -5.09780        2.22410       -1.19870
C         -5.15120        0.94730       -1.71690
C         -4.73120        0.68220       -3.01640
C         -4.78230       -0.71440       -3.55360
C         -4.26360        1.73870       -3.78750
C         -4.19830        3.02160       -3.27850
C         -4.89940        5.66560       -2.23650
C         -4.18090        6.85770       -2.18000
C         -4.55390        7.92690       -2.96940
C         -5.63110        7.83370       -3.84340
C         -6.05640        8.99980       -4.68100
C         -6.32080        6.62910       -3.91510
C         -5.96940        5.55570       -3.12150
C         -3.04020        3.86670        0.36180
S         -2.13750        2.53180       -0.27440
C         -1.28920        2.36710        1.25420
C         -1.63420        3.32700        2.17520
N         -1.12000        3.48880        3.45240
C         -2.02820        4.02570        4.39670
C         -1.76200        5.22040        5.05770
C         -2.70430        5.76100        5.90730
C         -3.92790        5.13440        6.11480
C         -4.96480        5.77110        6.98760
C         -4.17520        3.93180        5.46680
C         -3.23750        3.37670        4.61700
C          0.24460        3.46520        3.74140
C          1.21350        3.57220        2.74590
C          2.55390        3.56580        3.07760
C          2.97570        3.48330        4.39890
C          4.43510        3.50520        4.74170
C          2.00280        3.38890        5.38760
C          0.66050        3.36560        5.06920
C         -2.65130        4.18060        1.65460
S         -3.48130        5.55800        2.28100
C         -0.44380        1.17510        1.33130
C         -0.92700        0.01430        1.89110
F         -2.07590        0.03480        2.59160
C         -0.30920       -1.22790        1.67760
F         -0.92420       -2.32780        2.15420
C          0.87120       -1.34480        0.97990
C          1.47460       -0.14100        0.52080
N          2.68810       -0.17430       -0.05350
C          3.18580        0.91720       -0.57790
C          4.60740        0.83610       -1.04300
C          5.55800        0.96680        0.15080
C          2.38900        2.09980       -0.66330
N          1.23930        2.16360       -0.04220
C          0.77810        1.08870        0.61920
C          2.76330        3.30540       -1.47260
C          3.67200        4.26740       -0.70560
C          1.45420       -2.61900        0.59010
C          2.75050       -3.04500        0.81370
N          3.55000       -2.45840        1.77050
C          2.87400       -1.86800        2.86400
C          1.89290       -2.59080        3.53700
C          1.13400       -2.00040        4.52650
C          1.35520       -0.67120        4.86330
S          0.39810        0.19360        6.06580
C         -1.15330       -0.75390        6.11430
C          2.38730        0.03060        4.24550
C          3.14160       -0.55990        3.25510
C          4.94160       -2.51570        1.75510
C          5.64270       -2.50760        2.96280
C          7.01690       -2.57590        2.96920
C          7.72450       -2.67150        1.77500
S          9.48950       -2.73530        1.88300
C          9.92210       -3.87510        0.53800
C          7.03670       -2.66120        0.56970
C          5.65700       -2.57290        0.55990
C          3.01810       -4.22690        0.07380
S          4.42860       -5.16880       -0.23790
C          3.51250       -6.26560       -1.26650
C          2.17510       -5.86640       -1.38650
N          1.26430       -6.44860       -2.24060
C          1.66780       -6.91640       -3.50670
C          2.59670       -6.20340       -4.26410
C          3.04190       -6.70590       -5.46720
C          2.55870       -7.92210       -5.93870
S          3.21360       -8.53930       -7.45720
C          3.13100      -10.33620       -7.17870
C          1.58620       -8.60240       -5.21790
C          1.14600       -8.10400       -4.00930
C         -0.10140       -6.37180       -1.93050
C         -0.52710       -6.55190       -0.61680
C         -1.85960       -6.41620       -0.28240
C         -2.79210       -6.10440       -1.26270
S         -4.51000       -5.86800       -0.94320
C         -4.58310       -5.68390        0.86200
C         -2.37590       -5.97230       -2.58680
C         -1.04690       -6.10220       -2.91990
C          1.91710       -4.70700       -0.62430
S          0.52530       -3.70370       -0.41680
C          4.03700       -7.37700       -1.96820
C          5.19740       -7.55370       -2.65970
C          5.15980       -8.54360       -3.77200
O          4.44220       -9.51550       -3.86190
C          6.08990       -8.00850       -4.78410
C          6.33770       -8.46210       -6.06470
C          7.20010       -7.72860       -6.86750
C          7.79730       -6.57240       -6.38800
C          7.57290       -6.12490       -5.09200
C          6.71680       -6.85160       -4.28250
C          6.33420       -6.69020       -2.87930
C          7.07520       -6.02250       -1.94000
C          7.02180       -6.29910       -0.55830
N          7.12120       -6.57290        0.55230
C          8.09100       -5.10530       -2.26680
N          8.88490       -4.30200       -2.47790
H         -6.04730        6.36970       -0.31660
H         -5.27780        9.85530        4.84840
H         -6.84890       11.77380        5.11720
H         -8.63350       12.13950        3.47460
H         -8.92010       10.64450        1.55530
H         -5.43720        2.42020       -0.19210
H         -5.52960        0.14080       -1.10620
H         -4.07990       -1.35000       -3.01450
H         -5.77690       -1.13770       -3.42370
H         -4.52740       -0.73700       -4.60980
H         -3.93650        1.55600       -4.80080
H         -3.82340        3.83230       -3.88560
H         -3.33730        6.94290       -1.51060
H         -3.99210        8.84800       -2.90980
H         -6.19380        8.69780       -5.71770
H         -7.00870        9.38910       -4.32060
H         -5.32100        9.79940       -4.64160
H         -7.16030        6.53570       -4.58710
H         -6.52890        4.63520       -3.17200
H         -0.82430        5.72740        4.88540
H         -2.49740        6.69870        6.40130
H         -5.46790        6.56350        6.43220
H         -4.51010        6.21730        7.86970
H         -5.71270        5.04720        7.30210
H         -5.11720        3.42500        5.62160
H         -3.43990        2.44570        4.10700
H          0.92010        3.67180        1.71240
H          3.29290        3.63620        2.29180
H          5.01070        2.91930        4.02710
H          4.60490        3.10610        5.73880
H          4.81270        4.52810        4.71630
H          2.29850        3.31320        6.42390
H         -0.07400        3.27030        5.85340
H          4.82300        1.61370       -1.77460
H          4.76440       -0.13910       -1.50540
H          6.59030        0.94660       -0.18890
H          5.38580        1.89880        0.68540
H          5.40890        0.13850        0.83850
H          3.25230        2.99220       -2.39700
H          1.83790        3.82480       -1.72680
H          3.90780        5.12640       -1.32910
H          3.16800        4.62100        0.19020
H          4.60360        3.78600       -0.41920
H          1.70750       -3.61990        3.26580
H          0.37380       -2.58170        5.02290
H         -1.01670       -1.68530        6.65600
H         -1.86330       -0.12430        6.64140
H         -1.50100       -0.93380        5.10220
H          2.57120        1.05180        4.53490
H          3.92440       -0.00310        2.76350
H          5.10010       -2.45980        3.89490
H          7.55880       -2.57240        3.90200
H          9.28170       -4.74990        0.60090
H          9.82590       -3.39140       -0.42910
H         10.95670       -4.15670        0.70620
H          7.57170       -2.70650       -0.36650
H          5.12990       -2.51240       -0.38000
H          2.97980       -5.26320       -3.89490
H          3.77370       -6.16590       -6.04910
H          3.81980      -10.78500       -7.88790
H          2.12670      -10.70430       -7.36680
H          3.44250      -10.54320       -6.15870
H          1.17770       -9.52980       -5.58460
H          0.40500       -8.64330       -3.43830
H          0.19340       -6.79970        0.14870
H         -2.15570       -6.55850        0.74390
H         -4.39740       -6.63800        1.34680
H         -3.86750       -4.93140        1.17970
H         -5.59320       -5.35280        1.08240
H         -3.10840       -5.74710       -3.34660
H         -0.72880       -5.97430       -3.94360
H          3.30830       -8.16260       -2.15420
H          5.86830       -9.36360       -6.42340
H          7.40290       -8.05720       -7.87530
H          8.45560       -6.00740       -7.03090
H          8.04940       -5.22340       -4.74150
