
  xtb     02132200383D
 energy: -353.300790297917 gnorm: 0.000446972022 xtb: 6.4.1 (unknown)
211229  0     0  0            999 V2000
    8.4983    4.2924   -1.3359 C   0  0  0  0  0  0  0  0  0  0  0  0
    9.6817    3.8016   -0.8905 C   0  0  0  0  0  0  0  0  0  0  0  0
    9.8460    2.7061    0.1057 C   0  0  0  0  0  0  0  0  0  0  0  0
    8.9982    1.9637    0.5489 O   0  0  0  0  0  0  0  0  0  0  0  0
   11.2686    2.7461    0.4971 C   0  0  0  0  0  0  0  0  0  0  0  0
   11.9223    1.9664    1.4319 C   0  0  0  0  0  0  0  0  0  0  0  0
   13.2772    2.1840    1.6350 C   0  0  0  0  0  0  0  0  0  0  0  0
   13.9478    3.1657    0.9181 C   0  0  0  0  0  0  0  0  0  0  0  0
   13.2946    3.9531   -0.0201 C   0  0  0  0  0  0  0  0  0  0  0  0
   11.9409    3.7402   -0.2354 C   0  0  0  0  0  0  0  0  0  0  0  0
   10.9926    4.3869   -1.1358 C   0  0  0  0  0  0  0  0  0  0  0  0
   11.3008    5.3240   -2.0838 C   0  0  0  0  0  0  0  0  0  0  0  0
   10.3823    5.8936   -2.9916 C   0  0  0  0  0  0  0  0  0  0  0  0
    9.6976    6.3929   -3.7667 N   0  0  0  0  0  0  0  0  0  0  0  0
   12.5987    5.8334   -2.3048 C   0  0  0  0  0  0  0  0  0  0  0  0
   13.6264    6.2888   -2.5362 N   0  0  0  0  0  0  0  0  0  0  0  0
    7.2077    3.6613   -1.1994 C   0  0  0  0  0  0  0  0  0  0  0  0
    7.0777    2.2880   -1.4596 C   0  0  0  0  0  0  0  0  0  0  0  0
    5.8616    1.6529   -1.4067 C   0  0  0  0  0  0  0  0  0  0  0  0
    4.6876    2.3444   -1.0879 C   0  0  0  0  0  0  0  0  0  0  0  0
    4.7770    3.7118   -0.8497 C   0  0  0  0  0  0  0  0  0  0  0  0
    3.7891    4.6999   -0.4393 C   0  0  0  0  0  0  0  0  0  0  0  0
    2.4540    4.4770   -0.3616 C   0  0  0  0  0  0  0  0  0  0  0  0
    1.3429    5.2977    0.0069 C   0  0  0  0  0  0  0  0  0  0  0  0
    1.3159    6.6398    0.4933 C   0  0  0  0  0  0  0  0  0  0  0  0
    0.0646    7.0796    0.7436 C   0  0  0  0  0  0  0  0  0  0  0  0
   -1.1378    5.8867    0.3957 S   0  0  0  0  0  0  0  0  0  0  0  0
    0.0639    4.7834   -0.0850 C   0  0  0  0  0  0  0  0  0  0  0  0
    4.5622    5.9259   -0.1590 C   0  0  0  0  0  0  0  0  0  0  0  0
    4.2084    6.9946    0.3036 O   0  0  0  0  0  0  0  0  0  0  0  0
    5.8764    5.6632   -0.4905 N   0  0  0  0  0  0  0  0  0  0  0  0
    6.8885    6.6752   -0.3137 C   0  0  0  0  0  0  0  0  0  0  0  0
    7.0689    7.5317   -1.5638 C   0  0  0  0  0  0  0  0  0  0  0  0
    6.0334    4.3568   -0.8944 C   0  0  0  0  0  0  0  0  0  0  0  0
    3.4546    1.5645   -0.9519 C   0  0  0  0  0  0  0  0  0  0  0  0
    3.1415    0.7573    0.1164 C   0  0  0  0  0  0  0  0  0  0  0  0
    3.9434    0.6141    1.2430 N   0  0  0  0  0  0  0  0  0  0  0  0
    4.2328   -0.6423    1.7613 C   0  0  0  0  0  0  0  0  0  0  0  0
    4.6914   -0.7693    3.0754 C   0  0  0  0  0  0  0  0  0  0  0  0
    4.9902   -2.0080    3.5924 C   0  0  0  0  0  0  0  0  0  0  0  0
    4.8252   -3.1585    2.8231 C   0  0  0  0  0  0  0  0  0  0  0  0
    5.2430   -4.6940    3.6016 S   0  0  0  0  0  0  0  0  0  0  0  0
    4.8723   -5.9432    2.3383 C   0  0  0  0  0  0  0  0  0  0  0  0
    4.3587   -3.0425    1.5232 C   0  0  0  0  0  0  0  0  0  0  0  0
    4.0740   -1.7965    0.9969 C   0  0  0  0  0  0  0  0  0  0  0  0
    4.5714    1.7755    1.7429 C   0  0  0  0  0  0  0  0  0  0  0  0
    5.9570    1.8527    1.8696 C   0  0  0  0  0  0  0  0  0  0  0  0
    6.5419    3.0258    2.2861 C   0  0  0  0  0  0  0  0  0  0  0  0
    5.7617    4.1406    2.5912 C   0  0  0  0  0  0  0  0  0  0  0  0
    6.6324    5.6031    3.0583 S   0  0  0  0  0  0  0  0  0  0  0  0
    5.3234    6.8089    3.4207 C   0  0  0  0  0  0  0  0  0  0  0  0
    4.3802    4.0536    2.5051 C   0  0  0  0  0  0  0  0  0  0  0  0
    3.7936    2.8744    2.0844 C   0  0  0  0  0  0  0  0  0  0  0  0
    1.8721    0.1469   -0.0619 C   0  0  0  0  0  0  0  0  0  0  0  0
    0.8426   -0.8302    0.9178 S   0  0  0  0  0  0  0  0  0  0  0  0
   -0.4569   -0.7375   -0.2840 C   0  0  0  0  0  0  0  0  0  0  0  0
   -0.0767    0.0062   -1.3902 C   0  0  0  0  0  0  0  0  0  0  0  0
   -0.8392    0.3487   -2.5073 N   0  0  0  0  0  0  0  0  0  0  0  0
   -0.1642    0.2753   -3.7353 C   0  0  0  0  0  0  0  0  0  0  0  0
   -0.3675    1.1863   -4.7722 C   0  0  0  0  0  0  0  0  0  0  0  0
    0.3047    1.0437   -5.9667 C   0  0  0  0  0  0  0  0  0  0  0  0
    1.2215    0.0122   -6.1499 C   0  0  0  0  0  0  0  0  0  0  0  0
    1.9827   -0.1266   -7.7400 S   0  0  0  0  0  0  0  0  0  0  0  0
    3.4200   -1.1932   -7.4251 C   0  0  0  0  0  0  0  0  0  0  0  0
    1.4736   -0.8623   -5.1034 C   0  0  0  0  0  0  0  0  0  0  0  0
    0.7833   -0.7317   -3.9176 C   0  0  0  0  0  0  0  0  0  0  0  0
   -2.0365    1.0552   -2.3488 C   0  0  0  0  0  0  0  0  0  0  0  0
   -2.9863    1.0983   -3.3670 C   0  0  0  0  0  0  0  0  0  0  0  0
   -4.1513    1.8253   -3.2282 C   0  0  0  0  0  0  0  0  0  0  0  0
   -4.4047    2.5230   -2.0552 C   0  0  0  0  0  0  0  0  0  0  0  0
   -5.8696    3.4575   -1.7558 S   0  0  0  0  0  0  0  0  0  0  0  0
   -6.9022    3.1408   -3.2141 C   0  0  0  0  0  0  0  0  0  0  0  0
   -3.4656    2.4780   -1.0266 C   0  0  0  0  0  0  0  0  0  0  0  0
   -2.3011    1.7559   -1.1697 C   0  0  0  0  0  0  0  0  0  0  0  0
    1.2528    0.4828   -1.2494 C   0  0  0  0  0  0  0  0  0  0  0  0
    2.2320    1.5403   -2.2116 S   0  0  0  0  0  0  0  0  0  0  0  0
   -1.6820   -1.3498    0.1210 C   0  0  0  0  0  0  0  0  0  0  0  0
   -2.7708   -1.8756   -0.5604 C   0  0  0  0  0  0  0  0  0  0  0  0
   -2.9966   -1.9048   -1.9359 N   0  0  0  0  0  0  0  0  0  0  0  0
   -2.0853   -2.4644   -2.8282 C   0  0  0  0  0  0  0  0  0  0  0  0
   -1.0405   -3.2796   -2.3886 C   0  0  0  0  0  0  0  0  0  0  0  0
   -0.1587   -3.8350   -3.2909 C   0  0  0  0  0  0  0  0  0  0  0  0
   -0.2897   -3.5927   -4.6556 C   0  0  0  0  0  0  0  0  0  0  0  0
    0.9223   -4.3156   -5.7194 S   0  0  0  0  0  0  0  0  0  0  0  0
    0.4069   -3.8016   -7.3824 C   0  0  0  0  0  0  0  0  0  0  0  0
   -1.3278   -2.7883   -5.1014 C   0  0  0  0  0  0  0  0  0  0  0  0
   -2.2098   -2.2333   -4.1979 C   0  0  0  0  0  0  0  0  0  0  0  0
   -4.3381   -1.6715   -2.2946 C   0  0  0  0  0  0  0  0  0  0  0  0
   -5.0178   -0.6303   -1.6624 C   0  0  0  0  0  0  0  0  0  0  0  0
   -6.3538   -0.4113   -1.9112 C   0  0  0  0  0  0  0  0  0  0  0  0
   -7.0354   -1.2303   -2.8002 C   0  0  0  0  0  0  0  0  0  0  0  0
   -8.7635   -0.9437   -3.0647 S   0  0  0  0  0  0  0  0  0  0  0  0
   -9.3805   -2.6517   -2.9603 C   0  0  0  0  0  0  0  0  0  0  0  0
   -6.3641   -2.2602   -3.4444 C   0  0  0  0  0  0  0  0  0  0  0  0
   -5.0280   -2.4875   -3.1864 C   0  0  0  0  0  0  0  0  0  0  0  0
   -3.7232   -2.4283    0.3357 C   0  0  0  0  0  0  0  0  0  0  0  0
   -5.2586   -3.1916    0.1058 S   0  0  0  0  0  0  0  0  0  0  0  0
   -5.4006   -3.4575    1.8462 C   0  0  0  0  0  0  0  0  0  0  0  0
   -4.3181   -2.8797    2.5610 C   0  0  0  0  0  0  0  0  0  0  0  0
   -4.1899   -2.8212    3.9218 N   0  0  0  0  0  0  0  0  0  0  0  0
   -2.8926   -2.7855    4.4688 C   0  0  0  0  0  0  0  0  0  0  0  0
   -2.5643   -1.8655    5.4636 C   0  0  0  0  0  0  0  0  0  0  0  0
   -1.2824   -1.8182    5.9608 C   0  0  0  0  0  0  0  0  0  0  0  0
   -0.2996   -2.6837    5.4781 C   0  0  0  0  0  0  0  0  0  0  0  0
    1.3098   -2.5090    6.1681 S   0  0  0  0  0  0  0  0  0  0  0  0
    2.3054   -3.7200    5.2594 C   0  0  0  0  0  0  0  0  0  0  0  0
   -0.6328   -3.6185    4.5062 C   0  0  0  0  0  0  0  0  0  0  0  0
   -1.9203   -3.6692    4.0105 C   0  0  0  0  0  0  0  0  0  0  0  0
   -5.2903   -2.6865    4.7861 C   0  0  0  0  0  0  0  0  0  0  0  0
   -5.2780   -3.3155    6.0272 C   0  0  0  0  0  0  0  0  0  0  0  0
   -6.3768   -3.2399    6.8613 C   0  0  0  0  0  0  0  0  0  0  0  0
   -7.5111   -2.5510    6.4560 C   0  0  0  0  0  0  0  0  0  0  0  0
   -8.9987   -2.4797    7.3996 S   0  0  0  0  0  0  0  0  0  0  0  0
   -8.8337   -3.8836    8.5386 C   0  0  0  0  0  0  0  0  0  0  0  0
   -7.5007   -1.8663    5.2400 C   0  0  0  0  0  0  0  0  0  0  0  0
   -6.3996   -1.9220    4.4179 C   0  0  0  0  0  0  0  0  0  0  0  0
   -3.3711   -2.3400    1.6737 C   0  0  0  0  0  0  0  0  0  0  0  0
   -1.8430   -1.5538    1.8680 S   0  0  0  0  0  0  0  0  0  0  0  0
   -6.3941   -4.2222    2.4483 C   0  0  0  0  0  0  0  0  0  0  0  0
   -7.5459   -4.7807    1.9349 C   0  0  0  0  0  0  0  0  0  0  0  0
   -8.0738   -4.6228    0.5792 C   0  0  0  0  0  0  0  0  0  0  0  0
   -7.5454   -4.0728   -0.3750 O   0  0  0  0  0  0  0  0  0  0  0  0
   -9.4112   -5.2521    0.5884 C   0  0  0  0  0  0  0  0  0  0  0  0
  -10.3240   -5.3830   -0.4388 C   0  0  0  0  0  0  0  0  0  0  0  0
  -11.5321   -6.0130   -0.1700 C   0  0  0  0  0  0  0  0  0  0  0  0
  -11.8055   -6.4985    1.0990 C   0  0  0  0  0  0  0  0  0  0  0  0
  -10.8849   -6.3796    2.1332 C   0  0  0  0  0  0  0  0  0  0  0  0
   -9.6781   -5.7519    1.8751 C   0  0  0  0  0  0  0  0  0  0  0  0
   -8.5113   -5.5071    2.7225 C   0  0  0  0  0  0  0  0  0  0  0  0
   -8.3797   -5.9309    4.0235 C   0  0  0  0  0  0  0  0  0  0  0  0
   -7.2037   -5.8719    4.7929 C   0  0  0  0  0  0  0  0  0  0  0  0
   -6.2852   -5.9104    5.4848 N   0  0  0  0  0  0  0  0  0  0  0  0
   -9.4090   -6.5288    4.7771 C   0  0  0  0  0  0  0  0  0  0  0  0
  -10.1950   -6.9945    5.4738 N   0  0  0  0  0  0  0  0  0  0  0  0
    8.5120    5.2256   -1.8817 H   0  0  0  0  0  0  0  0  0  0  0  0
   11.3798    1.2113    1.9798 H   0  0  0  0  0  0  0  0  0  0  0  0
   13.8155    1.5877    2.3561 H   0  0  0  0  0  0  0  0  0  0  0  0
   15.0014    3.3242    1.0923 H   0  0  0  0  0  0  0  0  0  0  0  0
   13.8389    4.7122   -0.5575 H   0  0  0  0  0  0  0  0  0  0  0  0
    7.9571    1.7293   -1.7357 H   0  0  0  0  0  0  0  0  0  0  0  0
    5.8015    0.5937   -1.6060 H   0  0  0  0  0  0  0  0  0  0  0  0
    2.1393    3.4811   -0.6387 H   0  0  0  0  0  0  0  0  0  0  0  0
    2.2025    7.2277    0.6354 H   0  0  0  0  0  0  0  0  0  0  0  0
   -0.2439    8.0370    1.1133 H   0  0  0  0  0  0  0  0  0  0  0  0
   -0.2207    3.8087   -0.4317 H   0  0  0  0  0  0  0  0  0  0  0  0
    6.5499    7.3151    0.5068 H   0  0  0  0  0  0  0  0  0  0  0  0
    7.8208    6.1894   -0.0134 H   0  0  0  0  0  0  0  0  0  0  0  0
    7.3389    6.9349   -2.4324 H   0  0  0  0  0  0  0  0  0  0  0  0
    7.8492    8.2688   -1.3953 H   0  0  0  0  0  0  0  0  0  0  0  0
    6.1407    8.0534   -1.7843 H   0  0  0  0  0  0  0  0  0  0  0  0
    4.8125    0.1124    3.6854 H   0  0  0  0  0  0  0  0  0  0  0  0
    5.3536   -2.0995    4.6045 H   0  0  0  0  0  0  0  0  0  0  0  0
    5.1024   -6.8994    2.7979 H   0  0  0  0  0  0  0  0  0  0  0  0
    3.8195   -5.9048    2.0740 H   0  0  0  0  0  0  0  0  0  0  0  0
    5.5040   -5.7920    1.4678 H   0  0  0  0  0  0  0  0  0  0  0  0
    4.2240   -3.9105    0.8977 H   0  0  0  0  0  0  0  0  0  0  0  0
    3.7387   -1.7255   -0.0271 H   0  0  0  0  0  0  0  0  0  0  0  0
    6.5751    1.0064    1.6157 H   0  0  0  0  0  0  0  0  0  0  0  0
    7.6157    3.0934    2.3601 H   0  0  0  0  0  0  0  0  0  0  0  0
    5.8401    7.7083    3.7413 H   0  0  0  0  0  0  0  0  0  0  0  0
    4.6956    6.4387    4.2258 H   0  0  0  0  0  0  0  0  0  0  0  0
    4.7444    7.0156    2.5246 H   0  0  0  0  0  0  0  0  0  0  0  0
    3.7489    4.8925    2.7497 H   0  0  0  0  0  0  0  0  0  0  0  0
    2.7179    2.8109    2.0075 H   0  0  0  0  0  0  0  0  0  0  0  0
   -1.0392    2.0200   -4.6391 H   0  0  0  0  0  0  0  0  0  0  0  0
    0.1338    1.7433   -6.7705 H   0  0  0  0  0  0  0  0  0  0  0  0
    4.0007   -0.7816   -6.6051 H   0  0  0  0  0  0  0  0  0  0  0  0
    4.0036   -1.1748   -8.3402 H   0  0  0  0  0  0  0  0  0  0  0  0
    3.1041   -2.2102   -7.2117 H   0  0  0  0  0  0  0  0  0  0  0  0
    2.1890   -1.6623   -5.2001 H   0  0  0  0  0  0  0  0  0  0  0  0
    0.9734   -1.4359   -3.1227 H   0  0  0  0  0  0  0  0  0  0  0  0
   -2.8140    0.5541   -4.2812 H   0  0  0  0  0  0  0  0  0  0  0  0
   -4.8585    1.8276   -4.0414 H   0  0  0  0  0  0  0  0  0  0  0  0
   -7.0872    2.0753   -3.3174 H   0  0  0  0  0  0  0  0  0  0  0  0
   -7.8373    3.6586   -3.0239 H   0  0  0  0  0  0  0  0  0  0  0  0
   -6.4298    3.5510   -4.1020 H   0  0  0  0  0  0  0  0  0  0  0  0
   -3.6586    3.0208   -0.1137 H   0  0  0  0  0  0  0  0  0  0  0  0
   -1.5880    1.7355   -0.3585 H   0  0  0  0  0  0  0  0  0  0  0  0
   -0.9286   -3.4913   -1.3360 H   0  0  0  0  0  0  0  0  0  0  0  0
    0.6447   -4.4679   -2.9444 H   0  0  0  0  0  0  0  0  0  0  0  0
   -0.5816   -4.1952   -7.6003 H   0  0  0  0  0  0  0  0  0  0  0  0
    1.1321   -4.2384   -8.0625 H   0  0  0  0  0  0  0  0  0  0  0  0
    0.4261   -2.7183   -7.4647 H   0  0  0  0  0  0  0  0  0  0  0  0
   -1.4599   -2.5740   -6.1493 H   0  0  0  0  0  0  0  0  0  0  0  0
   -3.0127   -1.6135   -4.5640 H   0  0  0  0  0  0  0  0  0  0  0  0
   -4.4954   -0.0121   -0.9488 H   0  0  0  0  0  0  0  0  0  0  0  0
   -6.8806    0.3800   -1.4004 H   0  0  0  0  0  0  0  0  0  0  0  0
   -9.3101   -3.1404   -3.9283 H   0  0  0  0  0  0  0  0  0  0  0  0
   -8.7903   -3.1722   -2.2111 H   0  0  0  0  0  0  0  0  0  0  0  0
  -10.4203   -2.5846   -2.6551 H   0  0  0  0  0  0  0  0  0  0  0  0
   -6.8877   -2.9043   -4.1334 H   0  0  0  0  0  0  0  0  0  0  0  0
   -4.5255   -3.3185   -3.6578 H   0  0  0  0  0  0  0  0  0  0  0  0
   -3.3173   -1.1841    5.8299 H   0  0  0  0  0  0  0  0  0  0  0  0
   -1.0186   -1.1010    6.7225 H   0  0  0  0  0  0  0  0  0  0  0  0
    2.2978   -3.4787    4.2005 H   0  0  0  0  0  0  0  0  0  0  0  0
    1.9364   -4.7241    5.4465 H   0  0  0  0  0  0  0  0  0  0  0  0
    3.3145   -3.6256    5.6470 H   0  0  0  0  0  0  0  0  0  0  0  0
    0.0979   -4.3136    4.1271 H   0  0  0  0  0  0  0  0  0  0  0  0
   -2.1790   -4.4027    3.2608 H   0  0  0  0  0  0  0  0  0  0  0  0
   -4.4142   -3.8856    6.3306 H   0  0  0  0  0  0  0  0  0  0  0  0
   -6.3432   -3.7483    7.8102 H   0  0  0  0  0  0  0  0  0  0  0  0
   -9.8174   -4.0249    8.9753 H   0  0  0  0  0  0  0  0  0  0  0  0
   -8.5449   -4.7696    7.9808 H   0  0  0  0  0  0  0  0  0  0  0  0
   -8.1142   -3.6552    9.3197 H   0  0  0  0  0  0  0  0  0  0  0  0
   -8.3699   -1.2959    4.9510 H   0  0  0  0  0  0  0  0  0  0  0  0
   -6.4005   -1.3957    3.4750 H   0  0  0  0  0  0  0  0  0  0  0  0
   -6.2332   -4.3919    3.5051 H   0  0  0  0  0  0  0  0  0  0  0  0
  -10.0959   -5.0075   -1.4243 H   0  0  0  0  0  0  0  0  0  0  0  0
  -12.2639   -6.1265   -0.9557 H   0  0  0  0  0  0  0  0  0  0  0  0
  -12.7507   -6.9837    1.2914 H   0  0  0  0  0  0  0  0  0  0  0  0
  -11.1201   -6.7709    3.1095 H   0  0  0  0  0  0  0  0  0  0  0  0
  1  2  2  0  0  0  0
  2  3  1  0  0  0  0
  3  4  2  0  0  0  0
  3  5  1  0  0  0  0
  5  6  2  0  0  0  0
  6  7  1  0  0  0  0
  7  8  2  0  0  0  0
  8  9  1  0  0  0  0
  9 10  2  0  0  0  0
 10 11  1  0  0  0  0
 11 12  2  0  0  0  0
 12 13  1  0  0  0  0
 13 14  3  0  0  0  0
 12 15  1  0  0  0  0
 15 16  3  0  0  0  0
  1 17  1  0  0  0  0
 17 18  2  0  0  0  0
 18 19  1  0  0  0  0
 19 20  2  0  0  0  0
 20 21  1  0  0  0  0
 21 22  1  0  0  0  0
 22 23  2  0  0  0  0
 23 24  1  0  0  0  0
 24 25  1  0  0  0  0
 25 26  2  0  0  0  0
 26 27  1  0  0  0  0
 27 28  1  0  0  0  0
 22 29  1  0  0  0  0
 29 30  2  0  0  0  0
 29 31  1  0  0  0  0
 31 32  1  0  0  0  0
 32 33  1  0  0  0  0
 31 34  1  0  0  0  0
 20 35  1  0  0  0  0
 35 36  2  0  0  0  0
 36 37  1  0  0  0  0
 37 38  1  0  0  0  0
 38 39  2  0  0  0  0
 39 40  1  0  0  0  0
 40 41  2  0  0  0  0
 41 42  1  0  0  0  0
 42 43  1  0  0  0  0
 41 44  1  0  0  0  0
 44 45  2  0  0  0  0
 37 46  1  0  0  0  0
 46 47  2  0  0  0  0
 47 48  1  0  0  0  0
 48 49  2  0  0  0  0
 49 50  1  0  0  0  0
 50 51  1  0  0  0  0
 49 52  1  0  0  0  0
 52 53  2  0  0  0  0
 36 54  1  0  0  0  0
 54 55  1  0  0  0  0
 55 56  1  0  0  0  0
 56 57  2  0  0  0  0
 57 58  1  0  0  0  0
 58 59  1  0  0  0  0
 59 60  2  0  0  0  0
 60 61  1  0  0  0  0
 61 62  2  0  0  0  0
 62 63  1  0  0  0  0
 63 64  1  0  0  0  0
 62 65  1  0  0  0  0
 65 66  2  0  0  0  0
 58 67  1  0  0  0  0
 67 68  2  0  0  0  0
 68 69  1  0  0  0  0
 69 70  2  0  0  0  0
 70 71  1  0  0  0  0
 71 72  1  0  0  0  0
 70 73  1  0  0  0  0
 73 74  2  0  0  0  0
 57 75  1  0  0  0  0
 75 76  1  0  0  0  0
 56 77  1  0  0  0  0
 77 78  2  0  0  0  0
 78 79  1  0  0  0  0
 79 80  1  0  0  0  0
 80 81  2  0  0  0  0
 81 82  1  0  0  0  0
 82 83  2  0  0  0  0
 83 84  1  0  0  0  0
 84 85  1  0  0  0  0
 83 86  1  0  0  0  0
 86 87  2  0  0  0  0
 79 88  1  0  0  0  0
 88 89  2  0  0  0  0
 89 90  1  0  0  0  0
 90 91  2  0  0  0  0
 91 92  1  0  0  0  0
 92 93  1  0  0  0  0
 91 94  1  0  0  0  0
 94 95  2  0  0  0  0
 78 96  1  0  0  0  0
 96 97  1  0  0  0  0
 97 98  1  0  0  0  0
 98 99  2  0  0  0  0
 99100  1  0  0  0  0
100101  1  0  0  0  0
101102  2  0  0  0  0
102103  1  0  0  0  0
103104  2  0  0  0  0
104105  1  0  0  0  0
105106  1  0  0  0  0
104107  1  0  0  0  0
107108  2  0  0  0  0
100109  1  0  0  0  0
109110  2  0  0  0  0
110111  1  0  0  0  0
111112  2  0  0  0  0
112113  1  0  0  0  0
113114  1  0  0  0  0
112115  1  0  0  0  0
115116  2  0  0  0  0
 99117  1  0  0  0  0
117118  1  0  0  0  0
 98119  1  0  0  0  0
119120  2  0  0  0  0
120121  1  0  0  0  0
121122  2  0  0  0  0
121123  1  0  0  0  0
123124  2  0  0  0  0
124125  1  0  0  0  0
125126  2  0  0  0  0
126127  1  0  0  0  0
127128  2  0  0  0  0
128129  1  0  0  0  0
129130  2  0  0  0  0
130131  1  0  0  0  0
131132  3  0  0  0  0
130133  1  0  0  0  0
133134  3  0  0  0  0
 11  2  1  0  0  0  0
 34 17  1  0  0  0  0
 76 35  1  0  0  0  0
118 77  1  0  0  0  0
129120  1  0  0  0  0
 10  5  1  0  0  0  0
 34 21  2  0  0  0  0
 45 38  1  0  0  0  0
 53 46  1  0  0  0  0
 75 54  2  0  0  0  0
 87 80  1  0  0  0  0
 95 88  1  0  0  0  0
117 96  2  0  0  0  0
128123  1  0  0  0  0
 28 24  2  0  0  0  0
 66 59  1  0  0  0  0
 74 67  1  0  0  0  0
108101  1  0  0  0  0
116109  1  0  0  0  0
  1135  1  0  0  0  0
  6136  1  0  0  0  0
  7137  1  0  0  0  0
  8138  1  0  0  0  0
  9139  1  0  0  0  0
 18140  1  0  0  0  0
 19141  1  0  0  0  0
 23142  1  0  0  0  0
 25143  1  0  0  0  0
 26144  1  0  0  0  0
 28145  1  0  0  0  0
 32146  1  0  0  0  0
 32147  1  0  0  0  0
 33148  1  0  0  0  0
 33149  1  0  0  0  0
 33150  1  0  0  0  0
 39151  1  0  0  0  0
 40152  1  0  0  0  0
 43153  1  0  0  0  0
 43154  1  0  0  0  0
 43155  1  0  0  0  0
 44156  1  0  0  0  0
 45157  1  0  0  0  0
 47158  1  0  0  0  0
 48159  1  0  0  0  0
 51160  1  0  0  0  0
 51161  1  0  0  0  0
 51162  1  0  0  0  0
 52163  1  0  0  0  0
 53164  1  0  0  0  0
 60165  1  0  0  0  0
 61166  1  0  0  0  0
 64167  1  0  0  0  0
 64168  1  0  0  0  0
 64169  1  0  0  0  0
 65170  1  0  0  0  0
 66171  1  0  0  0  0
 68172  1  0  0  0  0
 69173  1  0  0  0  0
 72174  1  0  0  0  0
 72175  1  0  0  0  0
 72176  1  0  0  0  0
 73177  1  0  0  0  0
 74178  1  0  0  0  0
 81179  1  0  0  0  0
 82180  1  0  0  0  0
 85181  1  0  0  0  0
 85182  1  0  0  0  0
 85183  1  0  0  0  0
 86184  1  0  0  0  0
 87185  1  0  0  0  0
 89186  1  0  0  0  0
 90187  1  0  0  0  0
 93188  1  0  0  0  0
 93189  1  0  0  0  0
 93190  1  0  0  0  0
 94191  1  0  0  0  0
 95192  1  0  0  0  0
102193  1  0  0  0  0
103194  1  0  0  0  0
106195  1  0  0  0  0
106196  1  0  0  0  0
106197  1  0  0  0  0
107198  1  0  0  0  0
108199  1  0  0  0  0
110200  1  0  0  0  0
111201  1  0  0  0  0
114202  1  0  0  0  0
114203  1  0  0  0  0
114204  1  0  0  0  0
115205  1  0  0  0  0
116206  1  0  0  0  0
119207  1  0  0  0  0
124208  1  0  0  0  0
125209  1  0  0  0  0
126210  1  0  0  0  0
127211  1  0  0  0  0
M  END
