211

C          8.49830        4.29240       -1.33590
C          9.68170        3.80160       -0.89050
C          9.84600        2.70610        0.10570
O          8.99820        1.96370        0.54890
C         11.26860        2.74610        0.49710
C         11.92230        1.96640        1.43190
C         13.27720        2.18400        1.63500
C         13.94780        3.16570        0.91810
C         13.29460        3.95310       -0.02010
C         11.94090        3.74020       -0.23540
C         10.99260        4.38690       -1.13580
C         11.30080        5.32400       -2.08380
C         10.38230        5.89360       -2.99160
N          9.69760        6.39290       -3.76670
C         12.59870        5.83340       -2.30480
N         13.62640        6.28880       -2.53620
C          7.20770        3.66130       -1.19940
C          7.07770        2.28800       -1.45960
C          5.86160        1.65290       -1.40670
C          4.68760        2.34440       -1.08790
C          4.77700        3.71180       -0.84970
C          3.78910        4.69990       -0.43930
C          2.45400        4.47700       -0.36160
C          1.34290        5.29770        0.00690
C          1.31590        6.63980        0.49330
C          0.06460        7.07960        0.74360
S         -1.13780        5.88670        0.39570
C          0.06390        4.78340       -0.08500
C          4.56220        5.92590       -0.15900
O          4.20840        6.99460        0.30360
N          5.87640        5.66320       -0.49050
C          6.88850        6.67520       -0.31370
C          7.06890        7.53170       -1.56380
C          6.03340        4.35680       -0.89440
C          3.45460        1.56450       -0.95190
C          3.14150        0.75730        0.11640
N          3.94340        0.61410        1.24300
C          4.23280       -0.64230        1.76130
C          4.69140       -0.76930        3.07540
C          4.99020       -2.00800        3.59240
C          4.82520       -3.15850        2.82310
S          5.24300       -4.69400        3.60160
C          4.87230       -5.94320        2.33830
C          4.35870       -3.04250        1.52320
C          4.07400       -1.79650        0.99690
C          4.57140        1.77550        1.74290
C          5.95700        1.85270        1.86960
C          6.54190        3.02580        2.28610
C          5.76170        4.14060        2.59120
S          6.63240        5.60310        3.05830
C          5.32340        6.80890        3.42070
C          4.38020        4.05360        2.50510
C          3.79360        2.87440        2.08440
C          1.87210        0.14690       -0.06190
S          0.84260       -0.83020        0.91780
C         -0.45690       -0.73750       -0.28400
C         -0.07670        0.00620       -1.39020
N         -0.83920        0.34870       -2.50730
C         -0.16420        0.27530       -3.73530
C         -0.36750        1.18630       -4.77220
C          0.30470        1.04370       -5.96670
C          1.22150        0.01220       -6.14990
S          1.98270       -0.12660       -7.74000
C          3.42000       -1.19320       -7.42510
C          1.47360       -0.86230       -5.10340
C          0.78330       -0.73170       -3.91760
C         -2.03650        1.05520       -2.34880
C         -2.98630        1.09830       -3.36700
C         -4.15130        1.82530       -3.22820
C         -4.40470        2.52300       -2.05520
S         -5.86960        3.45750       -1.75580
C         -6.90220        3.14080       -3.21410
C         -3.46560        2.47800       -1.02660
C         -2.30110        1.75590       -1.16970
C          1.25280        0.48280       -1.24940
S          2.23200        1.54030       -2.21160
C         -1.68200       -1.34980        0.12100
C         -2.77080       -1.87560       -0.56040
N         -2.99660       -1.90480       -1.93590
C         -2.08530       -2.46440       -2.82820
C         -1.04050       -3.27960       -2.38860
C         -0.15870       -3.83500       -3.29090
C         -0.28970       -3.59270       -4.65560
S          0.92230       -4.31560       -5.71940
C          0.40690       -3.80160       -7.38240
C         -1.32780       -2.78830       -5.10140
C         -2.20980       -2.23330       -4.19790
C         -4.33810       -1.67150       -2.29460
C         -5.01780       -0.63030       -1.66240
C         -6.35380       -0.41130       -1.91120
C         -7.03540       -1.23030       -2.80020
S         -8.76350       -0.94370       -3.06470
C         -9.38050       -2.65170       -2.96030
C         -6.36410       -2.26020       -3.44440
C         -5.02800       -2.48750       -3.18640
C         -3.72320       -2.42830        0.33570
S         -5.25860       -3.19160        0.10580
C         -5.40060       -3.45750        1.84620
C         -4.31810       -2.87970        2.56100
N         -4.18990       -2.82120        3.92180
C         -2.89260       -2.78550        4.46880
C         -2.56430       -1.86550        5.46360
C         -1.28240       -1.81820        5.96080
C         -0.29960       -2.68370        5.47810
S          1.30980       -2.50900        6.16810
C          2.30540       -3.72000        5.25940
C         -0.63280       -3.61850        4.50620
C         -1.92030       -3.66920        4.01050
C         -5.29030       -2.68650        4.78610
C         -5.27800       -3.31550        6.02720
C         -6.37680       -3.23990        6.86130
C         -7.51110       -2.55100        6.45600
S         -8.99870       -2.47970        7.39960
C         -8.83370       -3.88360        8.53860
C         -7.50070       -1.86630        5.24000
C         -6.39960       -1.92200        4.41790
C         -3.37110       -2.34000        1.67370
S         -1.84300       -1.55380        1.86800
C         -6.39410       -4.22220        2.44830
C         -7.54590       -4.78070        1.93490
C         -8.07380       -4.62280        0.57920
O         -7.54540       -4.07280       -0.37500
C         -9.41120       -5.25210        0.58840
C        -10.32400       -5.38300       -0.43880
C        -11.53210       -6.01300       -0.17000
C        -11.80550       -6.49850        1.09900
C        -10.88490       -6.37960        2.13320
C         -9.67810       -5.75190        1.87510
C         -8.51130       -5.50710        2.72250
C         -8.37970       -5.93090        4.02350
C         -7.20370       -5.87190        4.79290
N         -6.28520       -5.91040        5.48480
C         -9.40900       -6.52880        4.77710
N        -10.19500       -6.99450        5.47380
H          8.51200        5.22560       -1.88170
H         11.37980        1.21130        1.97980
H         13.81550        1.58770        2.35610
H         15.00140        3.32420        1.09230
H         13.83890        4.71220       -0.55750
H          7.95710        1.72930       -1.73570
H          5.80150        0.59370       -1.60600
H          2.13930        3.48110       -0.63870
H          2.20250        7.22770        0.63540
H         -0.24390        8.03700        1.11330
H         -0.22070        3.80870       -0.43170
H          6.54990        7.31510        0.50680
H          7.82080        6.18940       -0.01340
H          7.33890        6.93490       -2.43240
H          7.84920        8.26880       -1.39530
H          6.14070        8.05340       -1.78430
H          4.81250        0.11240        3.68540
H          5.35360       -2.09950        4.60450
H          5.10240       -6.89940        2.79790
H          3.81950       -5.90480        2.07400
H          5.50400       -5.79200        1.46780
H          4.22400       -3.91050        0.89770
H          3.73870       -1.72550       -0.02710
H          6.57510        1.00640        1.61570
H          7.61570        3.09340        2.36010
H          5.84010        7.70830        3.74130
H          4.69560        6.43870        4.22580
H          4.74440        7.01560        2.52460
H          3.74890        4.89250        2.74970
H          2.71790        2.81090        2.00750
H         -1.03920        2.02000       -4.63910
H          0.13380        1.74330       -6.77050
H          4.00070       -0.78160       -6.60510
H          4.00360       -1.17480       -8.34020
H          3.10410       -2.21020       -7.21170
H          2.18900       -1.66230       -5.20010
H          0.97340       -1.43590       -3.12270
H         -2.81400        0.55410       -4.28120
H         -4.85850        1.82760       -4.04140
H         -7.08720        2.07530       -3.31740
H         -7.83730        3.65860       -3.02390
H         -6.42980        3.55100       -4.10200
H         -3.65860        3.02080       -0.11370
H         -1.58800        1.73550       -0.35850
H         -0.92860       -3.49130       -1.33600
H          0.64470       -4.46790       -2.94440
H         -0.58160       -4.19520       -7.60030
H          1.13210       -4.23840       -8.06250
H          0.42610       -2.71830       -7.46470
H         -1.45990       -2.57400       -6.14930
H         -3.01270       -1.61350       -4.56400
H         -4.49540       -0.01210       -0.94880
H         -6.88060        0.38000       -1.40040
H         -9.31010       -3.14040       -3.92830
H         -8.79030       -3.17220       -2.21110
H        -10.42030       -2.58460       -2.65510
H         -6.88770       -2.90430       -4.13340
H         -4.52550       -3.31850       -3.65780
H         -3.31730       -1.18410        5.82990
H         -1.01860       -1.10100        6.72250
H          2.29780       -3.47870        4.20050
H          1.93640       -4.72410        5.44650
H          3.31450       -3.62560        5.64700
H          0.09790       -4.31360        4.12710
H         -2.17900       -4.40270        3.26080
H         -4.41420       -3.88560        6.33060
H         -6.34320       -3.74830        7.81020
H         -9.81740       -4.02490        8.97530
H         -8.54490       -4.76960        7.98080
H         -8.11420       -3.65520        9.31970
H         -8.36990       -1.29590        4.95100
H         -6.40050       -1.39570        3.47500
H         -6.23320       -4.39190        3.50510
H        -10.09590       -5.00750       -1.42430
H        -12.26390       -6.12650       -0.95570
H        -12.75070       -6.98370        1.29140
H        -11.12010       -6.77090        3.10950
