
  xtb     02112206283D
 energy: -213.245213209837 gnorm: 0.000564484284 xtb: 6.4.1 (unknown)
110121  0     0  0            999 V2000
    5.6003   -3.4629    6.8229 N   0  0  0  0  0  0  0  0  0  0  0  0
    4.4807   -3.2478    6.7093 C   0  0  0  0  0  0  0  0  0  0  0  0
    3.0913   -2.9647    6.6510 C   0  0  0  0  0  0  0  0  0  0  0  0
    2.3333   -3.3878    7.7269 C   0  0  0  0  0  0  0  0  0  0  0  0
    0.9317   -3.3803    7.7945 C   0  0  0  0  0  0  0  0  0  0  0  0
   -0.2074   -3.4961    7.9079 N   0  0  0  0  0  0  0  0  0  0  0  0
    2.9436   -3.9868    8.8491 C   0  0  0  0  0  0  0  0  0  0  0  0
    3.4110   -4.4682    9.7797 N   0  0  0  0  0  0  0  0  0  0  0  0
    2.5889   -2.2876    5.5021 C   0  0  0  0  0  0  0  0  0  0  0  0
    3.2757   -2.2813    4.2675 C   0  0  0  0  0  0  0  0  0  0  0  0
    2.7063   -1.6968    3.0750 C   0  0  0  0  0  0  0  0  0  0  0  0
    3.5149   -1.8217    2.0246 N   0  0  0  0  0  0  0  0  0  0  0  0
    4.8530   -2.5953    2.4799 S   0  0  0  0  0  4  0  0  0  0  0  0
    4.4678   -2.8202    4.0223 N   0  0  0  0  0  0  0  0  0  0  0  0
    1.4095   -1.1344    3.0372 C   0  0  0  0  0  0  0  0  0  0  0  0
    0.8139   -0.9712    4.3105 C   0  0  0  0  0  0  0  0  0  0  0  0
   -0.2611   -0.2328    4.5847 N   0  0  0  0  0  0  0  0  0  0  0  0
   -0.5057   -0.2195    6.1734 S   0  0  0  0  0  0  0  0  0  0  0  0
    0.7267   -1.1557    6.5980 N   0  0  0  0  0  0  0  0  0  0  0  0
    1.3968   -1.5286    5.5104 C   0  0  0  0  0  0  0  0  0  0  0  0
    0.8264   -0.7408    1.8169 C   0  0  0  0  0  0  0  0  0  0  0  0
   -0.5346   -0.5523    1.5072 C   0  0  0  0  0  0  0  0  0  0  0  0
   -1.5884   -1.0262    2.2443 N   0  0  0  0  0  0  0  0  0  0  0  0
   -2.8112   -0.3458    2.1978 C   0  0  0  0  0  0  0  0  0  0  0  0
   -4.0122   -1.0454    2.1175 C   0  0  0  0  0  0  0  0  0  0  0  0
   -5.2142   -0.3706    2.0522 C   0  0  0  0  0  0  0  0  0  0  0  0
   -5.2348    1.0194    2.0665 C   0  0  0  0  0  0  0  0  0  0  0  0
   -6.6987    1.9904    1.9781 S   0  0  0  0  0  0  0  0  0  0  0  0
   -8.0407    0.7696    1.9204 C   0  0  0  0  0  0  0  0  0  0  0  0
   -4.0319    1.7217    2.1583 C   0  0  0  0  0  0  0  0  0  0  0  0
   -2.8341    1.0499    2.2240 C   0  0  0  0  0  0  0  0  0  0  0  0
   -1.4670   -2.2140    2.9754 C   0  0  0  0  0  0  0  0  0  0  0  0
   -0.6595   -3.2537    2.5055 C   0  0  0  0  0  0  0  0  0  0  0  0
   -0.4939   -4.3960    3.2497 C   0  0  0  0  0  0  0  0  0  0  0  0
   -1.1337   -4.5432    4.4837 C   0  0  0  0  0  0  0  0  0  0  0  0
   -0.8272   -6.0451    5.3353 S   0  0  0  0  0  0  0  0  0  0  0  0
   -1.8403   -5.9284    6.8317 C   0  0  0  0  0  0  0  0  0  0  0  0
   -1.9673   -3.5267    4.9388 C   0  0  0  0  0  0  0  0  0  0  0  0
   -2.1358   -2.3810    4.1869 C   0  0  0  0  0  0  0  0  0  0  0  0
   -0.6752    0.0353    0.2309 C   0  0  0  0  0  0  0  0  0  0  0  0
   -2.0448    0.4804   -0.7352 S   0  0  0  0  0  0  0  0  0  0  0  0
   -0.9783    0.9352   -2.0510 C   0  0  0  0  0  0  0  0  0  0  0  0
    0.3667    0.6194   -1.7924 C   0  0  0  0  0  0  0  0  0  0  0  0
    1.3766    0.5681   -2.7191 N   0  0  0  0  0  0  0  0  0  0  0  0
    1.1197    0.3439   -4.0788 C   0  0  0  0  0  0  0  0  0  0  0  0
    1.8742    1.0017   -5.0468 C   0  0  0  0  0  0  0  0  0  0  0  0
    1.5305    0.9245   -6.3819 C   0  0  0  0  0  0  0  0  0  0  0  0
    0.4236    0.1811   -6.7758 C   0  0  0  0  0  0  0  0  0  0  0  0
   -0.1886    0.1336   -8.4245 S   0  0  0  0  0  0  0  0  0  0  0  0
    0.5770    1.5905   -9.1945 C   0  0  0  0  0  0  0  0  0  0  0  0
   -0.2616   -0.5741   -5.8213 C   0  0  0  0  0  0  0  0  0  0  0  0
    0.0881   -0.5030   -4.4924 C   0  0  0  0  0  0  0  0  0  0  0  0
    2.7024    0.7123   -2.2808 C   0  0  0  0  0  0  0  0  0  0  0  0
    3.6994   -0.1418   -2.7526 C   0  0  0  0  0  0  0  0  0  0  0  0
    4.9843   -0.0273   -2.2760 C   0  0  0  0  0  0  0  0  0  0  0  0
    5.3040    0.9413   -1.3232 C   0  0  0  0  0  0  0  0  0  0  0  0
    6.9716    0.9655   -0.7624 S   0  0  0  0  0  0  0  0  0  0  0  0
    6.9449    2.1232    0.6353 C   0  0  0  0  0  0  0  0  0  0  0  0
    4.3208    1.8195   -0.8840 C   0  0  0  0  0  0  0  0  0  0  0  0
    3.0304    1.7037   -1.3601 C   0  0  0  0  0  0  0  0  0  0  0  0
    0.5208    0.1706   -0.4613 C   0  0  0  0  0  0  0  0  0  0  0  0
    1.8794   -0.4033    0.4550 S   0  0  0  0  0  0  0  0  0  0  0  0
   -1.5388    1.4779   -3.2324 C   0  0  0  0  0  0  0  0  0  0  0  0
   -2.8089    1.0703   -3.6940 C   0  0  0  0  0  0  0  0  0  0  0  0
   -3.2495    1.3221   -5.0479 C   0  0  0  0  0  0  0  0  0  0  0  0
   -4.4339    0.7620   -5.2873 N   0  0  0  0  0  0  0  0  0  0  0  0
   -4.9367   -0.0037   -3.9701 S   0  0  0  0  0  4  0  0  0  0  0  0
   -3.6828    0.3260   -3.0181 N   0  0  0  0  0  0  0  0  0  0  0  0
   -2.4903    2.0771   -5.9658 C   0  0  0  0  0  0  0  0  0  0  0  0
   -1.3352    2.6769   -5.4254 C   0  0  0  0  0  0  0  0  0  0  0  0
   -0.5059    3.5062   -6.0572 N   0  0  0  0  0  0  0  0  0  0  0  0
    0.6660    3.9552   -5.0550 S   0  0  0  0  0  0  0  0  0  0  0  0
    0.2379    3.0653   -3.7900 N   0  0  0  0  0  0  0  0  0  0  0  0
   -0.8703    2.3844   -4.0855 C   0  0  0  0  0  0  0  0  0  0  0  0
   -2.8347    2.1251   -7.3542 C   0  0  0  0  0  0  0  0  0  0  0  0
   -2.5097    3.1235   -8.2440 C   0  0  0  0  0  0  0  0  0  0  0  0
   -2.0357    4.4062   -7.9050 C   0  0  0  0  0  0  0  0  0  0  0  0
   -1.7543    5.5054   -7.7275 N   0  0  0  0  0  0  0  0  0  0  0  0
   -2.7301    2.9504   -9.6274 C   0  0  0  0  0  0  0  0  0  0  0  0
   -2.8474    2.8180  -10.7608 N   0  0  0  0  0  0  0  0  0  0  0  0
   -3.5304    1.0007   -7.8715 C   0  0  0  0  0  0  0  0  0  0  0  0
   -4.0581    0.0862   -8.3158 N   0  0  0  0  0  0  0  0  0  0  0  0
   -4.0008   -2.1248    2.0916 H   0  0  0  0  0  0  0  0  0  0  0  0
   -6.1261   -0.9403    1.9801 H   0  0  0  0  0  0  0  0  0  0  0  0
   -8.0265    0.1590    2.8183 H   0  0  0  0  0  0  0  0  0  0  0  0
   -8.9586    1.3482    1.8844 H   0  0  0  0  0  0  0  0  0  0  0  0
   -7.9538    0.1622    1.0245 H   0  0  0  0  0  0  0  0  0  0  0  0
   -4.0565    2.8000    2.1834 H   0  0  0  0  0  0  0  0  0  0  0  0
   -1.9062    1.5928    2.3156 H   0  0  0  0  0  0  0  0  0  0  0  0
   -0.1683   -3.1630    1.5484 H   0  0  0  0  0  0  0  0  0  0  0  0
    0.1277   -5.1991    2.8845 H   0  0  0  0  0  0  0  0  0  0  0  0
   -1.6775   -6.8590    7.3666 H   0  0  0  0  0  0  0  0  0  0  0  0
   -2.8878   -5.8339    6.5614 H   0  0  0  0  0  0  0  0  0  0  0  0
   -1.4954   -5.0885    7.4317 H   0  0  0  0  0  0  0  0  0  0  0  0
   -2.4717   -3.6087    5.8869 H   0  0  0  0  0  0  0  0  0  0  0  0
   -2.7716   -1.5888    4.5533 H   0  0  0  0  0  0  0  0  0  0  0  0
    2.7087    1.6156   -4.7418 H   0  0  0  0  0  0  0  0  0  0  0  0
    2.1173    1.4664   -7.1056 H   0  0  0  0  0  0  0  0  0  0  0  0
    1.6245    1.3988   -9.4082 H   0  0  0  0  0  0  0  0  0  0  0  0
    0.0356    1.7462  -10.1232 H   0  0  0  0  0  0  0  0  0  0  0  0
    0.4567    2.4526   -8.5440 H   0  0  0  0  0  0  0  0  0  0  0  0
   -1.0802   -1.2010   -6.1405 H   0  0  0  0  0  0  0  0  0  0  0  0
   -0.4554   -1.0839   -3.7623 H   0  0  0  0  0  0  0  0  0  0  0  0
    3.4518   -0.9036   -3.4763 H   0  0  0  0  0  0  0  0  0  0  0  0
    5.7571   -0.6959   -2.6220 H   0  0  0  0  0  0  0  0  0  0  0  0
    7.9309    2.0612    1.0853 H   0  0  0  0  0  0  0  0  0  0  0  0
    6.1905    1.8130    1.3519 H   0  0  0  0  0  0  0  0  0  0  0  0
    6.7667    3.1353    0.2835 H   0  0  0  0  0  0  0  0  0  0  0  0
    4.5468    2.6001   -0.1763 H   0  0  0  0  0  0  0  0  0  0  0  0
    2.2668    2.3909   -1.0284 H   0  0  0  0  0  0  0  0  0  0  0  0
  1  2  3  0  0  0  0
  2  3  1  0  0  0  0
  3  4  2  0  0  0  0
  4  5  1  0  0  0  0
  5  6  3  0  0  0  0
  4  7  1  0  0  0  0
  7  8  3  0  0  0  0
  3  9  1  0  0  0  0
  9 10  2  0  0  0  0
 10 11  1  0  0  0  0
 11 12  1  0  0  0  0
 12 13  2  0  0  0  0
 13 14  2  0  0  0  0
 11 15  2  0  0  0  0
 15 16  1  0  0  0  0
 16 17  2  0  0  0  0
 17 18  1  0  0  0  0
 18 19  1  0  0  0  0
 19 20  2  0  0  0  0
 15 21  1  0  0  0  0
 21 22  2  0  0  0  0
 22 23  1  0  0  0  0
 23 24  1  0  0  0  0
 24 25  2  0  0  0  0
 25 26  1  0  0  0  0
 26 27  2  0  0  0  0
 27 28  1  0  0  0  0
 28 29  1  0  0  0  0
 27 30  1  0  0  0  0
 30 31  2  0  0  0  0
 23 32  1  0  0  0  0
 32 33  2  0  0  0  0
 33 34  1  0  0  0  0
 34 35  2  0  0  0  0
 35 36  1  0  0  0  0
 36 37  1  0  0  0  0
 35 38  1  0  0  0  0
 38 39  2  0  0  0  0
 22 40  1  0  0  0  0
 40 41  1  0  0  0  0
 41 42  1  0  0  0  0
 42 43  2  0  0  0  0
 43 44  1  0  0  0  0
 44 45  1  0  0  0  0
 45 46  2  0  0  0  0
 46 47  1  0  0  0  0
 47 48  2  0  0  0  0
 48 49  1  0  0  0  0
 49 50  1  0  0  0  0
 48 51  1  0  0  0  0
 51 52  2  0  0  0  0
 44 53  1  0  0  0  0
 53 54  2  0  0  0  0
 54 55  1  0  0  0  0
 55 56  2  0  0  0  0
 56 57  1  0  0  0  0
 57 58  1  0  0  0  0
 56 59  1  0  0  0  0
 59 60  2  0  0  0  0
 43 61  1  0  0  0  0
 61 62  1  0  0  0  0
 42 63  1  0  0  0  0
 63 64  2  0  0  0  0
 64 65  1  0  0  0  0
 65 66  1  0  0  0  0
 66 67  2  0  0  0  0
 67 68  2  0  0  0  0
 65 69  2  0  0  0  0
 69 70  1  0  0  0  0
 70 71  2  0  0  0  0
 71 72  1  0  0  0  0
 72 73  1  0  0  0  0
 73 74  2  0  0  0  0
 69 75  1  0  0  0  0
 75 76  2  0  0  0  0
 76 77  1  0  0  0  0
 77 78  3  0  0  0  0
 76 79  1  0  0  0  0
 79 80  3  0  0  0  0
 75 81  1  0  0  0  0
 81 82  3  0  0  0  0
 20  9  1  0  0  0  0
 62 21  1  0  0  0  0
 74 63  1  0  0  0  0
 14 10  1  0  0  0  0
 20 16  1  0  0  0  0
 31 24  1  0  0  0  0
 39 32  1  0  0  0  0
 61 40  2  0  0  0  0
 68 64  1  0  0  0  0
 74 70  1  0  0  0  0
 52 45  1  0  0  0  0
 60 53  1  0  0  0  0
 25 83  1  0  0  0  0
 26 84  1  0  0  0  0
 29 85  1  0  0  0  0
 29 86  1  0  0  0  0
 29 87  1  0  0  0  0
 30 88  1  0  0  0  0
 31 89  1  0  0  0  0
 33 90  1  0  0  0  0
 34 91  1  0  0  0  0
 37 92  1  0  0  0  0
 37 93  1  0  0  0  0
 37 94  1  0  0  0  0
 38 95  1  0  0  0  0
 39 96  1  0  0  0  0
 46 97  1  0  0  0  0
 47 98  1  0  0  0  0
 50 99  1  0  0  0  0
 50100  1  0  0  0  0
 50101  1  0  0  0  0
 51102  1  0  0  0  0
 52103  1  0  0  0  0
 54104  1  0  0  0  0
 55105  1  0  0  0  0
 58106  1  0  0  0  0
 58107  1  0  0  0  0
 58108  1  0  0  0  0
 59109  1  0  0  0  0
 60110  1  0  0  0  0
M  END
