
  xtb     02132216563D
 energy: -363.061865016592 gnorm: 0.000533736468 xtb: 6.4.1 (unknown)
222239  0     0  0            999 V2000
   -7.7112    6.7922    2.4661 N   0  0  0  0  0  0  0  0  0  0  0  0
   -7.7970    5.8021    1.8954 C   0  0  0  0  0  0  0  0  0  0  0  0
   -7.9299    4.6276    1.1133 C   0  0  0  0  0  0  0  0  0  0  0  0
   -9.2224    4.2776    0.7615 C   0  0  0  0  0  0  0  0  0  0  0  0
  -10.3169    5.0515    1.1951 C   0  0  0  0  0  0  0  0  0  0  0  0
  -11.2230    5.6651    1.5403 N   0  0  0  0  0  0  0  0  0  0  0  0
   -9.5746    3.1389    0.0190 C   0  0  0  0  0  0  0  0  0  0  0  0
   -9.9345    2.2083   -0.5517 N   0  0  0  0  0  0  0  0  0  0  0  0
   -6.7466    3.9825    0.6774 C   0  0  0  0  0  0  0  0  0  0  0  0
   -5.4540    4.1296    1.2017 C   0  0  0  0  0  0  0  0  0  0  0  0
   -5.0987    4.7733    2.3612 N   0  0  0  0  0  0  0  0  0  0  0  0
   -5.8343    4.6548    3.5497 C   0  0  0  0  0  0  0  0  0  0  0  0
   -6.5904    3.5150    3.8085 C   0  0  0  0  0  0  0  0  0  0  0  0
   -7.3208    3.4182    4.9762 C   0  0  0  0  0  0  0  0  0  0  0  0
   -7.3091    4.4402    5.9174 C   0  0  0  0  0  0  0  0  0  0  0  0
   -8.1313    4.3474    7.1646 C   0  0  0  0  0  0  0  0  0  0  0  0
   -6.5318    5.5639    5.6596 C   0  0  0  0  0  0  0  0  0  0  0  0
   -5.8038    5.6783    4.4934 C   0  0  0  0  0  0  0  0  0  0  0  0
   -3.8521    5.4316    2.3522 C   0  0  0  0  0  0  0  0  0  0  0  0
   -3.5381    6.2613    1.2795 C   0  0  0  0  0  0  0  0  0  0  0  0
   -2.3084    6.8841    1.2237 C   0  0  0  0  0  0  0  0  0  0  0  0
   -1.3699    6.7005    2.2313 C   0  0  0  0  0  0  0  0  0  0  0  0
   -0.0278    7.3574    2.1528 C   0  0  0  0  0  0  0  0  0  0  0  0
   -1.6978    5.8798    3.3052 C   0  0  0  0  0  0  0  0  0  0  0  0
   -2.9236    5.2480    3.3712 C   0  0  0  0  0  0  0  0  0  0  0  0
   -4.5151    3.4568    0.3899 C   0  0  0  0  0  0  0  0  0  0  0  0
   -2.8052    3.2453    0.4728 S   0  0  0  0  0  0  0  0  0  0  0  0
   -2.8316    2.2189   -0.9670 C   0  0  0  0  0  0  0  0  0  0  0  0
   -4.1114    2.0874   -1.4966 C   0  0  0  0  0  0  0  0  0  0  0  0
   -4.4887    1.4301   -2.6530 N   0  0  0  0  0  0  0  0  0  0  0  0
   -3.8116    1.6043   -3.8672 C   0  0  0  0  0  0  0  0  0  0  0  0
   -4.0082    0.6962   -4.9079 C   0  0  0  0  0  0  0  0  0  0  0  0
   -3.4175    0.8982   -6.1365 C   0  0  0  0  0  0  0  0  0  0  0  0
   -2.6001    1.9981   -6.3716 C   0  0  0  0  0  0  0  0  0  0  0  0
   -1.9920    2.2190   -7.7219 C   0  0  0  0  0  0  0  0  0  0  0  0
   -2.3865    2.8844   -5.3253 C   0  0  0  0  0  0  0  0  0  0  0  0
   -2.9811    2.6986   -4.0909 C   0  0  0  0  0  0  0  0  0  0  0  0
   -5.7963    0.8901   -2.6437 C   0  0  0  0  0  0  0  0  0  0  0  0
   -6.2124    0.1510   -1.5384 C   0  0  0  0  0  0  0  0  0  0  0  0
   -7.4931   -0.3587   -1.4799 C   0  0  0  0  0  0  0  0  0  0  0  0
   -8.3972   -0.1406   -2.5120 C   0  0  0  0  0  0  0  0  0  0  0  0
   -9.7994   -0.6468   -2.4134 C   0  0  0  0  0  0  0  0  0  0  0  0
   -7.9768    0.6045   -3.6071 C   0  0  0  0  0  0  0  0  0  0  0  0
   -6.6972    1.1197   -3.6782 C   0  0  0  0  0  0  0  0  0  0  0  0
   -5.0550    2.7804   -0.6904 C   0  0  0  0  0  0  0  0  0  0  0  0
   -6.7737    2.9477   -0.7532 S   0  0  0  0  0  0  0  0  0  0  0  0
   -1.5590    1.6703   -1.3049 C   0  0  0  0  0  0  0  0  0  0  0  0
   -1.1727    0.4576   -1.8525 C   0  0  0  0  0  0  0  0  0  0  0  0
   -1.9731   -0.5045   -2.4782 N   0  0  0  0  0  0  0  0  0  0  0  0
   -1.5154   -0.9090   -3.7390 C   0  0  0  0  0  0  0  0  0  0  0  0
   -1.7078   -2.1877   -4.2557 C   0  0  0  0  0  0  0  0  0  0  0  0
   -1.3282   -2.4946   -5.5501 C   0  0  0  0  0  0  0  0  0  0  0  0
   -0.6991   -1.5451   -6.3418 C   0  0  0  0  0  0  0  0  0  0  0  0
   -0.2616   -1.7626   -8.0366 S   0  0  0  0  0  0  0  0  0  0  0  0
   -0.8828   -3.4155   -8.4460 C   0  0  0  0  0  0  0  0  0  0  0  0
   -0.4000   -0.3027   -5.7901 C   0  0  0  0  0  0  0  0  0  0  0  0
   -0.8126    0.0146   -4.5196 C   0  0  0  0  0  0  0  0  0  0  0  0
   -2.9241   -1.1926   -1.7210 C   0  0  0  0  0  0  0  0  0  0  0  0
   -2.8321   -1.1973   -0.3292 C   0  0  0  0  0  0  0  0  0  0  0  0
   -3.7488   -1.8765    0.4498 C   0  0  0  0  0  0  0  0  0  0  0  0
   -4.7781   -2.5867   -0.1513 C   0  0  0  0  0  0  0  0  0  0  0  0
   -6.0092   -3.4932    0.7322 S   0  0  0  0  0  0  0  0  0  0  0  0
   -5.5366   -3.2850    2.4725 C   0  0  0  0  0  0  0  0  0  0  0  0
   -4.8838   -2.5809   -1.5410 C   0  0  0  0  0  0  0  0  0  0  0  0
   -3.9826   -1.8841   -2.3140 C   0  0  0  0  0  0  0  0  0  0  0  0
    0.2094    0.2248   -1.6572 C   0  0  0  0  0  0  0  0  0  0  0  0
    1.1675   -1.2062   -1.8261 S   0  0  0  0  0  0  0  0  0  0  0  0
    2.4703   -0.4423   -0.9253 C   0  0  0  0  0  0  0  0  0  0  0  0
    2.2059    0.8872   -0.6389 C   0  0  0  0  0  0  0  0  0  0  0  0
    3.1534    1.7251   -0.0696 N   0  0  0  0  0  0  0  0  0  0  0  0
    4.4759    1.6779   -0.5398 C   0  0  0  0  0  0  0  0  0  0  0  0
    4.7509    1.3973   -1.8759 C   0  0  0  0  0  0  0  0  0  0  0  0
    6.0485    1.4050   -2.3485 C   0  0  0  0  0  0  0  0  0  0  0  0
    7.1031    1.6988   -1.4955 C   0  0  0  0  0  0  0  0  0  0  0  0
    8.7917    1.7675   -2.0008 S   0  0  0  0  0  0  0  0  0  0  0  0
    8.8009    0.8753   -3.5798 C   0  0  0  0  0  0  0  0  0  0  0  0
    6.8342    1.9669   -0.1543 C   0  0  0  0  0  0  0  0  0  0  0  0
    5.5420    1.9442    0.3210 C   0  0  0  0  0  0  0  0  0  0  0  0
    2.7888    2.6444    0.9188 C   0  0  0  0  0  0  0  0  0  0  0  0
    3.3889    3.9007    0.9800 C   0  0  0  0  0  0  0  0  0  0  0  0
    3.1059    4.7716    2.0126 C   0  0  0  0  0  0  0  0  0  0  0  0
    2.1994    4.4064    2.9986 C   0  0  0  0  0  0  0  0  0  0  0  0
    1.8256    5.3939    4.4151 S   0  0  0  0  0  0  0  0  0  0  0  0
    3.0973    6.6873    4.3883 C   0  0  0  0  0  0  0  0  0  0  0  0
    1.5427    3.1832    2.9012 C   0  0  0  0  0  0  0  0  0  0  0  0
    1.8348    2.3070    1.8792 C   0  0  0  0  0  0  0  0  0  0  0  0
    0.8949    1.2484   -1.0269 C   0  0  0  0  0  0  0  0  0  0  0  0
   -0.1676    2.5632   -0.6657 S   0  0  0  0  0  0  0  0  0  0  0  0
    3.3824   -1.1943   -0.0924 C   0  0  0  0  0  0  0  0  0  0  0  0
    4.5937   -1.8234   -0.2645 C   0  0  0  0  0  0  0  0  0  0  0  0
    5.2041   -1.9822   -1.4956 N   0  0  0  0  0  0  0  0  0  0  0  0
    4.3832   -2.4093   -2.5574 C   0  0  0  0  0  0  0  0  0  0  0  0
    3.3957   -3.3622   -2.3256 C   0  0  0  0  0  0  0  0  0  0  0  0
    2.5978   -3.8211   -3.3536 C   0  0  0  0  0  0  0  0  0  0  0  0
    2.7857   -3.3409   -4.6412 C   0  0  0  0  0  0  0  0  0  0  0  0
    1.8686   -3.9175   -6.0289 S   0  0  0  0  0  0  0  0  0  0  0  0
    1.0058   -5.3819   -5.3838 C   0  0  0  0  0  0  0  0  0  0  0  0
    3.7564   -2.3686   -4.8760 C   0  0  0  0  0  0  0  0  0  0  0  0
    4.5463   -1.9054   -3.8458 C   0  0  0  0  0  0  0  0  0  0  0  0
    6.5984   -2.0304   -1.5868 C   0  0  0  0  0  0  0  0  0  0  0  0
    7.2343   -2.8322   -2.5315 C   0  0  0  0  0  0  0  0  0  0  0  0
    8.6129   -2.8805   -2.5987 C   0  0  0  0  0  0  0  0  0  0  0  0
    9.3840   -2.1431   -1.7095 C   0  0  0  0  0  0  0  0  0  0  0  0
   11.1495   -2.1272   -1.7330 S   0  0  0  0  0  0  0  0  0  0  0  0
   11.5584   -3.7152   -2.5163 C   0  0  0  0  0  0  0  0  0  0  0  0
    8.7532   -1.3396   -0.7646 C   0  0  0  0  0  0  0  0  0  0  0  0
    7.3785   -1.2786   -0.7071 C   0  0  0  0  0  0  0  0  0  0  0  0
    5.0741   -2.3399    0.9716 C   0  0  0  0  0  0  0  0  0  0  0  0
    6.5054   -3.1826    1.4377 S   0  0  0  0  0  0  0  0  0  0  0  0
    5.9190   -3.2881    3.1054 C   0  0  0  0  0  0  0  0  0  0  0  0
    4.6078   -2.7974    3.2449 C   0  0  0  0  0  0  0  0  0  0  0  0
    3.7731   -2.9768    4.3086 N   0  0  0  0  0  0  0  0  0  0  0  0
    2.4841   -2.3778    4.2759 C   0  0  0  0  0  0  0  0  0  0  0  0
    2.3143   -1.0026    4.3746 C   0  0  0  0  0  0  0  0  0  0  0  0
    1.0526   -0.4434    4.2519 C   0  0  0  0  0  0  0  0  0  0  0  0
   -0.0476   -1.2561    4.0141 C   0  0  0  0  0  0  0  0  0  0  0  0
   -1.6873   -0.6757    3.7255 S   0  0  0  0  0  0  0  0  0  0  0  0
   -1.5369    1.1294    3.6259 C   0  0  0  0  0  0  0  0  0  0  0  0
    0.1171   -2.6416    3.9827 C   0  0  0  0  0  0  0  0  0  0  0  0
    1.3669   -3.1977    4.1210 C   0  0  0  0  0  0  0  0  0  0  0  0
    3.9239   -4.0214    5.2478 C   0  0  0  0  0  0  0  0  0  0  0  0
    3.5357   -3.7923    6.5663 C   0  0  0  0  0  0  0  0  0  0  0  0
    3.7050   -4.7724    7.5170 C   0  0  0  0  0  0  0  0  0  0  0  0
    4.2643   -6.0017    7.1725 C   0  0  0  0  0  0  0  0  0  0  0  0
    4.4935   -7.1712    8.4669 S   0  0  0  0  0  0  0  0  0  0  0  0
    5.7143   -8.3245    7.7751 C   0  0  0  0  0  0  0  0  0  0  0  0
    4.5884   -6.2549    5.8449 C   0  0  0  0  0  0  0  0  0  0  0  0
    4.4098   -5.2746    4.8893 C   0  0  0  0  0  0  0  0  0  0  0  0
    4.1944   -2.1921    2.0322 C   0  0  0  0  0  0  0  0  0  0  0  0
    2.7821   -1.3295    1.5567 S   0  0  0  0  0  0  0  0  0  0  0  0
    6.7851   -3.7576    4.1231 C   0  0  0  0  0  0  0  0  0  0  0  0
    7.9075   -4.5460    3.9437 C   0  0  0  0  0  0  0  0  0  0  0  0
    8.3357   -5.0654    2.7104 C   0  0  0  0  0  0  0  0  0  0  0  0
    8.7171   -5.5392    1.7355 N   0  0  0  0  0  0  0  0  0  0  0  0
    8.6677   -4.9605    5.0548 C   0  0  0  0  0  0  0  0  0  0  0  0
    9.2666   -5.3437    5.9555 N   0  0  0  0  0  0  0  0  0  0  0  0
    6.5561   -3.3047    5.4483 C   0  0  0  0  0  0  0  0  0  0  0  0
    6.4481   -2.8761    6.5055 N   0  0  0  0  0  0  0  0  0  0  0  0
   -6.6029    2.7019    3.0959 H   0  0  0  0  0  0  0  0  0  0  0  0
   -7.9063    2.5288    5.1597 H   0  0  0  0  0  0  0  0  0  0  0  0
   -7.6267    4.8295    7.9987 H   0  0  0  0  0  0  0  0  0  0  0  0
   -8.3340    3.3108    7.4226 H   0  0  0  0  0  0  0  0  0  0  0  0
   -9.0862    4.8518    7.0139 H   0  0  0  0  0  0  0  0  0  0  0  0
   -6.5080    6.3698    6.3776 H   0  0  0  0  0  0  0  0  0  0  0  0
   -5.2240    6.5665    4.2961 H   0  0  0  0  0  0  0  0  0  0  0  0
   -4.2674    6.4171    0.4976 H   0  0  0  0  0  0  0  0  0  0  0  0
   -2.0770    7.5270    0.3870 H   0  0  0  0  0  0  0  0  0  0  0  0
    0.3127    7.6474    3.1437 H   0  0  0  0  0  0  0  0  0  0  0  0
   -0.0616    8.2374    1.5148 H   0  0  0  0  0  0  0  0  0  0  0  0
    0.6964    6.6581    1.7322 H   0  0  0  0  0  0  0  0  0  0  0  0
   -0.9773    5.7266    4.0946 H   0  0  0  0  0  0  0  0  0  0  0  0
   -3.1670    4.6067    4.2056 H   0  0  0  0  0  0  0  0  0  0  0  0
   -4.6470   -0.1594   -4.7529 H   0  0  0  0  0  0  0  0  0  0  0  0
   -3.5903    0.1865   -6.9305 H   0  0  0  0  0  0  0  0  0  0  0  0
   -1.6504    1.2779   -8.1481 H   0  0  0  0  0  0  0  0  0  0  0  0
   -2.7327    2.6438   -8.4003 H   0  0  0  0  0  0  0  0  0  0  0  0
   -1.1526    2.9075   -7.6638 H   0  0  0  0  0  0  0  0  0  0  0  0
   -1.7542    3.7479   -5.4773 H   0  0  0  0  0  0  0  0  0  0  0  0
   -2.8179    3.4238   -3.3071 H   0  0  0  0  0  0  0  0  0  0  0  0
   -5.5258   -0.0042   -0.7194 H   0  0  0  0  0  0  0  0  0  0  0  0
   -7.7969   -0.9303   -0.6157 H   0  0  0  0  0  0  0  0  0  0  0  0
  -10.3892    0.0649   -1.8363 H   0  0  0  0  0  0  0  0  0  0  0  0
   -9.8313   -1.6062   -1.9020 H   0  0  0  0  0  0  0  0  0  0  0  0
  -10.2512   -0.7488   -3.3969 H   0  0  0  0  0  0  0  0  0  0  0  0
   -8.6683    0.8023   -4.4131 H   0  0  0  0  0  0  0  0  0  0  0  0
   -6.3990    1.7162   -4.5279 H   0  0  0  0  0  0  0  0  0  0  0  0
   -2.1603   -2.9556   -3.6468 H   0  0  0  0  0  0  0  0  0  0  0  0
   -1.5285   -3.4850   -5.9274 H   0  0  0  0  0  0  0  0  0  0  0  0
   -0.7026   -3.5421   -9.5088 H   0  0  0  0  0  0  0  0  0  0  0  0
   -0.3265   -4.1618   -7.8876 H   0  0  0  0  0  0  0  0  0  0  0  0
   -1.9477   -3.4733   -8.2411 H   0  0  0  0  0  0  0  0  0  0  0  0
    0.1342    0.4224   -6.3834 H   0  0  0  0  0  0  0  0  0  0  0  0
   -0.6166    1.0038   -4.1370 H   0  0  0  0  0  0  0  0  0  0  0  0
   -2.0247   -0.6735    0.1605 H   0  0  0  0  0  0  0  0  0  0  0  0
   -3.6325   -1.8463    1.5214 H   0  0  0  0  0  0  0  0  0  0  0  0
   -5.5772   -2.2353    2.7484 H   0  0  0  0  0  0  0  0  0  0  0  0
   -6.2711   -3.8446    3.0432 H   0  0  0  0  0  0  0  0  0  0  0  0
   -4.5458   -3.6962    2.6412 H   0  0  0  0  0  0  0  0  0  0  0  0
   -5.6976   -3.1146   -2.0072 H   0  0  0  0  0  0  0  0  0  0  0  0
   -4.1077   -1.8636   -3.3839 H   0  0  0  0  0  0  0  0  0  0  0  0
    3.9411    1.1849   -2.5582 H   0  0  0  0  0  0  0  0  0  0  0  0
    6.2235    1.2033   -3.3932 H   0  0  0  0  0  0  0  0  0  0  0  0
    9.8477    0.6997   -3.8072 H   0  0  0  0  0  0  0  0  0  0  0  0
    8.3501    1.4805   -4.3613 H   0  0  0  0  0  0  0  0  0  0  0  0
    8.2861   -0.0734   -3.4607 H   0  0  0  0  0  0  0  0  0  0  0  0
    7.6562    2.1812    0.5113 H   0  0  0  0  0  0  0  0  0  0  0  0
    5.3492    2.1374    1.3660 H   0  0  0  0  0  0  0  0  0  0  0  0
    4.0971    4.1910    0.2186 H   0  0  0  0  0  0  0  0  0  0  0  0
    3.6006    5.7293    2.0353 H   0  0  0  0  0  0  0  0  0  0  0  0
    2.9383    7.3575    3.5482 H   0  0  0  0  0  0  0  0  0  0  0  0
    2.9802    7.2326    5.3198 H   0  0  0  0  0  0  0  0  0  0  0  0
    4.0817    6.2308    4.3484 H   0  0  0  0  0  0  0  0  0  0  0  0
    0.8171    2.9313    3.6588 H   0  0  0  0  0  0  0  0  0  0  0  0
    1.3603    1.3372    1.8326 H   0  0  0  0  0  0  0  0  0  0  0  0
    3.2573   -3.7606   -1.3312 H   0  0  0  0  0  0  0  0  0  0  0  0
    1.8409   -4.5552   -3.1330 H   0  0  0  0  0  0  0  0  0  0  0  0
    0.5572   -5.8695   -6.2444 H   0  0  0  0  0  0  0  0  0  0  0  0
    1.7220   -6.0533   -4.9199 H   0  0  0  0  0  0  0  0  0  0  0  0
    0.2316   -5.0820   -4.6828 H   0  0  0  0  0  0  0  0  0  0  0  0
    3.8840   -1.9867   -5.8774 H   0  0  0  0  0  0  0  0  0  0  0  0
    5.3044   -1.1601   -4.0321 H   0  0  0  0  0  0  0  0  0  0  0  0
    6.6470   -3.4276   -3.2144 H   0  0  0  0  0  0  0  0  0  0  0  0
    9.0756   -3.5047   -3.3463 H   0  0  0  0  0  0  0  0  0  0  0  0
   11.3833   -3.6696   -3.5876 H   0  0  0  0  0  0  0  0  0  0  0  0
   12.6149   -3.8750   -2.3257 H   0  0  0  0  0  0  0  0  0  0  0  0
   10.9730   -4.5031   -2.0526 H   0  0  0  0  0  0  0  0  0  0  0  0
    9.3522   -0.7579   -0.0822 H   0  0  0  0  0  0  0  0  0  0  0  0
    6.9003   -0.6381    0.0175 H   0  0  0  0  0  0  0  0  0  0  0  0
    3.1713   -0.3653    4.5332 H   0  0  0  0  0  0  0  0  0  0  0  0
    0.9502    0.6260    4.3302 H   0  0  0  0  0  0  0  0  0  0  0  0
   -2.5349    1.4957    3.4044 H   0  0  0  0  0  0  0  0  0  0  0  0
   -0.8645    1.4038    2.8191 H   0  0  0  0  0  0  0  0  0  0  0  0
   -1.2053    1.5299    4.5792 H   0  0  0  0  0  0  0  0  0  0  0  0
   -0.7462   -3.2701    3.8276 H   0  0  0  0  0  0  0  0  0  0  0  0
    1.4945   -4.2692    4.0797 H   0  0  0  0  0  0  0  0  0  0  0  0
    3.1303   -2.8309    6.8406 H   0  0  0  0  0  0  0  0  0  0  0  0
    3.4274   -4.5913    8.5432 H   0  0  0  0  0  0  0  0  0  0  0  0
    6.0537   -8.9278    8.6112 H   0  0  0  0  0  0  0  0  0  0  0  0
    6.5467   -7.7629    7.3616 H   0  0  0  0  0  0  0  0  0  0  0  0
    5.2542   -8.9639    7.0271 H   0  0  0  0  0  0  0  0  0  0  0  0
    4.9715   -7.2156    5.5402 H   0  0  0  0  0  0  0  0  0  0  0  0
    4.6474   -5.4923    3.8576 H   0  0  0  0  0  0  0  0  0  0  0  0
  1  2  3  0  0  0  0
  2  3  1  0  0  0  0
  3  4  2  0  0  0  0
  4  5  1  0  0  0  0
  5  6  3  0  0  0  0
  4  7  1  0  0  0  0
  7  8  3  0  0  0  0
  3  9  1  0  0  0  0
  9 10  2  0  0  0  0
 10 11  1  0  0  0  0
 11 12  1  0  0  0  0
 12 13  2  0  0  0  0
 13 14  1  0  0  0  0
 14 15  2  0  0  0  0
 15 16  1  0  0  0  0
 15 17  1  0  0  0  0
 17 18  2  0  0  0  0
 11 19  1  0  0  0  0
 19 20  2  0  0  0  0
 20 21  1  0  0  0  0
 21 22  2  0  0  0  0
 22 23  1  0  0  0  0
 22 24  1  0  0  0  0
 24 25  2  0  0  0  0
 10 26  1  0  0  0  0
 26 27  1  0  0  0  0
 27 28  1  0  0  0  0
 28 29  2  0  0  0  0
 29 30  1  0  0  0  0
 30 31  1  0  0  0  0
 31 32  2  0  0  0  0
 32 33  1  0  0  0  0
 33 34  2  0  0  0  0
 34 35  1  0  0  0  0
 34 36  1  0  0  0  0
 36 37  2  0  0  0  0
 30 38  1  0  0  0  0
 38 39  2  0  0  0  0
 39 40  1  0  0  0  0
 40 41  2  0  0  0  0
 41 42  1  0  0  0  0
 41 43  1  0  0  0  0
 43 44  2  0  0  0  0
 29 45  1  0  0  0  0
 45 46  1  0  0  0  0
 28 47  1  0  0  0  0
 47 48  2  0  0  0  0
 48 49  1  0  0  0  0
 49 50  1  0  0  0  0
 50 51  2  0  0  0  0
 51 52  1  0  0  0  0
 52 53  2  0  0  0  0
 53 54  1  0  0  0  0
 54 55  1  0  0  0  0
 53 56  1  0  0  0  0
 56 57  2  0  0  0  0
 49 58  1  0  0  0  0
 58 59  2  0  0  0  0
 59 60  1  0  0  0  0
 60 61  2  0  0  0  0
 61 62  1  0  0  0  0
 62 63  1  0  0  0  0
 61 64  1  0  0  0  0
 64 65  2  0  0  0  0
 48 66  1  0  0  0  0
 66 67  1  0  0  0  0
 67 68  1  0  0  0  0
 68 69  2  0  0  0  0
 69 70  1  0  0  0  0
 70 71  1  0  0  0  0
 71 72  2  0  0  0  0
 72 73  1  0  0  0  0
 73 74  2  0  0  0  0
 74 75  1  0  0  0  0
 75 76  1  0  0  0  0
 74 77  1  0  0  0  0
 77 78  2  0  0  0  0
 70 79  1  0  0  0  0
 79 80  2  0  0  0  0
 80 81  1  0  0  0  0
 81 82  2  0  0  0  0
 82 83  1  0  0  0  0
 83 84  1  0  0  0  0
 82 85  1  0  0  0  0
 85 86  2  0  0  0  0
 69 87  1  0  0  0  0
 87 88  1  0  0  0  0
 68 89  1  0  0  0  0
 89 90  2  0  0  0  0
 90 91  1  0  0  0  0
 91 92  1  0  0  0  0
 92 93  2  0  0  0  0
 93 94  1  0  0  0  0
 94 95  2  0  0  0  0
 95 96  1  0  0  0  0
 96 97  1  0  0  0  0
 95 98  1  0  0  0  0
 98 99  2  0  0  0  0
 91100  1  0  0  0  0
100101  2  0  0  0  0
101102  1  0  0  0  0
102103  2  0  0  0  0
103104  1  0  0  0  0
104105  1  0  0  0  0
103106  1  0  0  0  0
106107  2  0  0  0  0
 90108  1  0  0  0  0
108109  1  0  0  0  0
109110  1  0  0  0  0
110111  2  0  0  0  0
111112  1  0  0  0  0
112113  1  0  0  0  0
113114  2  0  0  0  0
114115  1  0  0  0  0
115116  2  0  0  0  0
116117  1  0  0  0  0
117118  1  0  0  0  0
116119  1  0  0  0  0
119120  2  0  0  0  0
112121  1  0  0  0  0
121122  2  0  0  0  0
122123  1  0  0  0  0
123124  2  0  0  0  0
124125  1  0  0  0  0
125126  1  0  0  0  0
124127  1  0  0  0  0
127128  2  0  0  0  0
111129  1  0  0  0  0
129130  1  0  0  0  0
110131  1  0  0  0  0
131132  2  0  0  0  0
132133  1  0  0  0  0
133134  3  0  0  0  0
132135  1  0  0  0  0
135136  3  0  0  0  0
131137  1  0  0  0  0
137138  3  0  0  0  0
 46  9  1  0  0  0  0
 88 47  1  0  0  0  0
130 89  1  0  0  0  0
 18 12  1  0  0  0  0
 25 19  1  0  0  0  0
 45 26  2  0  0  0  0
 57 50  1  0  0  0  0
 65 58  1  0  0  0  0
 87 66  2  0  0  0  0
 99 92  1  0  0  0  0
107100  1  0  0  0  0
129108  2  0  0  0  0
 37 31  1  0  0  0  0
 44 38  1  0  0  0  0
 78 71  1  0  0  0  0
 86 79  1  0  0  0  0
120113  1  0  0  0  0
128121  1  0  0  0  0
 13139  1  0  0  0  0
 14140  1  0  0  0  0
 16141  1  0  0  0  0
 16142  1  0  0  0  0
 16143  1  0  0  0  0
 17144  1  0  0  0  0
 18145  1  0  0  0  0
 20146  1  0  0  0  0
 21147  1  0  0  0  0
 23148  1  0  0  0  0
 23149  1  0  0  0  0
 23150  1  0  0  0  0
 24151  1  0  0  0  0
 25152  1  0  0  0  0
 32153  1  0  0  0  0
 33154  1  0  0  0  0
 35155  1  0  0  0  0
 35156  1  0  0  0  0
 35157  1  0  0  0  0
 36158  1  0  0  0  0
 37159  1  0  0  0  0
 39160  1  0  0  0  0
 40161  1  0  0  0  0
 42162  1  0  0  0  0
 42163  1  0  0  0  0
 42164  1  0  0  0  0
 43165  1  0  0  0  0
 44166  1  0  0  0  0
 51167  1  0  0  0  0
 52168  1  0  0  0  0
 55169  1  0  0  0  0
 55170  1  0  0  0  0
 55171  1  0  0  0  0
 56172  1  0  0  0  0
 57173  1  0  0  0  0
 59174  1  0  0  0  0
 60175  1  0  0  0  0
 63176  1  0  0  0  0
 63177  1  0  0  0  0
 63178  1  0  0  0  0
 64179  1  0  0  0  0
 65180  1  0  0  0  0
 72181  1  0  0  0  0
 73182  1  0  0  0  0
 76183  1  0  0  0  0
 76184  1  0  0  0  0
 76185  1  0  0  0  0
 77186  1  0  0  0  0
 78187  1  0  0  0  0
 80188  1  0  0  0  0
 81189  1  0  0  0  0
 84190  1  0  0  0  0
 84191  1  0  0  0  0
 84192  1  0  0  0  0
 85193  1  0  0  0  0
 86194  1  0  0  0  0
 93195  1  0  0  0  0
 94196  1  0  0  0  0
 97197  1  0  0  0  0
 97198  1  0  0  0  0
 97199  1  0  0  0  0
 98200  1  0  0  0  0
 99201  1  0  0  0  0
101202  1  0  0  0  0
102203  1  0  0  0  0
105204  1  0  0  0  0
105205  1  0  0  0  0
105206  1  0  0  0  0
106207  1  0  0  0  0
107208  1  0  0  0  0
114209  1  0  0  0  0
115210  1  0  0  0  0
118211  1  0  0  0  0
118212  1  0  0  0  0
118213  1  0  0  0  0
119214  1  0  0  0  0
120215  1  0  0  0  0
122216  1  0  0  0  0
123217  1  0  0  0  0
126218  1  0  0  0  0
126219  1  0  0  0  0
126220  1  0  0  0  0
127221  1  0  0  0  0
128222  1  0  0  0  0
M  END
