
  xtb     02122203163D
 energy: -387.158239030260 gnorm: 0.000575499731 xtb: 6.4.1 (unknown)
231250  0     0  0            999 V2000
   -4.5726   -8.7649   -5.2319 N   0  0  0  0  0  0  0  0  0  0  0  0
   -3.4497   -8.7242   -5.0065 C   0  0  0  0  0  0  0  0  0  0  0  0
   -2.0744   -8.7588   -4.6620 C   0  0  0  0  0  0  0  0  0  0  0  0
   -1.4518   -9.9789   -4.8780 C   0  0  0  0  0  0  0  0  0  0  0  0
   -2.1581  -11.0400   -5.4790 C   0  0  0  0  0  0  0  0  0  0  0  0
   -2.7074  -11.9156   -5.9776 N   0  0  0  0  0  0  0  0  0  0  0  0
   -0.1295  -10.3012   -4.5339 C   0  0  0  0  0  0  0  0  0  0  0  0
    0.9345  -10.6507   -4.2727 N   0  0  0  0  0  0  0  0  0  0  0  0
   -1.5062   -7.6301   -4.0291 C   0  0  0  0  0  0  0  0  0  0  0  0
   -2.1170   -6.3845   -3.7951 C   0  0  0  0  0  0  0  0  0  0  0  0
   -3.2633   -5.9078   -4.3786 N   0  0  0  0  0  0  0  0  0  0  0  0
   -3.5039   -6.0170   -5.7569 C   0  0  0  0  0  0  0  0  0  0  0  0
   -2.4507   -6.1390   -6.6587 C   0  0  0  0  0  0  0  0  0  0  0  0
   -2.7052   -6.2484   -8.0113 C   0  0  0  0  0  0  0  0  0  0  0  0
   -4.0047   -6.2280   -8.5022 C   0  0  0  0  0  0  0  0  0  0  0  0
   -4.2783   -6.3776   -9.9660 C   0  0  0  0  0  0  0  0  0  0  0  0
   -5.0486   -6.0880   -7.5943 C   0  0  0  0  0  0  0  0  0  0  0  0
   -4.8101   -5.9870   -6.2398 C   0  0  0  0  0  0  0  0  0  0  0  0
   -4.1223   -5.1215   -3.5808 C   0  0  0  0  0  0  0  0  0  0  0  0
   -4.5462   -3.8644   -3.9991 C   0  0  0  0  0  0  0  0  0  0  0  0
   -5.4113   -3.1324   -3.2105 C   0  0  0  0  0  0  0  0  0  0  0  0
   -5.8821   -3.6352   -2.0028 C   0  0  0  0  0  0  0  0  0  0  0  0
   -6.8720   -2.8686   -1.1841 C   0  0  0  0  0  0  0  0  0  0  0  0
   -5.4434   -4.8883   -1.5915 C   0  0  0  0  0  0  0  0  0  0  0  0
   -4.5653   -5.6249   -2.3626 C   0  0  0  0  0  0  0  0  0  0  0  0
   -1.3377   -5.6156   -2.9031 C   0  0  0  0  0  0  0  0  0  0  0  0
   -1.4998   -4.0360   -2.2312 S   0  0  0  0  0  0  0  0  0  0  0  0
    0.0903   -4.1674   -1.4610 C   0  0  0  0  0  0  0  0  0  0  0  0
    0.7156   -5.3654   -1.7626 C   0  0  0  0  0  0  0  0  0  0  0  0
    1.9633   -5.7765   -1.3295 N   0  0  0  0  0  0  0  0  0  0  0  0
    2.1440   -7.1657   -1.1552 C   0  0  0  0  0  0  0  0  0  0  0  0
    1.1804   -7.8965   -0.4660 C   0  0  0  0  0  0  0  0  0  0  0  0
    1.2806   -9.2714   -0.3744 C   0  0  0  0  0  0  0  0  0  0  0  0
    2.3462   -9.9497   -0.9504 C   0  0  0  0  0  0  0  0  0  0  0  0
    2.4163  -11.4431   -0.9290 C   0  0  0  0  0  0  0  0  0  0  0  0
    3.3271   -9.2065   -1.5981 C   0  0  0  0  0  0  0  0  0  0  0  0
    3.2326   -7.8344   -1.7078 C   0  0  0  0  0  0  0  0  0  0  0  0
    3.0940   -4.9648   -1.5115 C   0  0  0  0  0  0  0  0  0  0  0  0
    3.1946   -4.0889   -2.5882 C   0  0  0  0  0  0  0  0  0  0  0  0
    4.3594   -3.3716   -2.7927 C   0  0  0  0  0  0  0  0  0  0  0  0
    5.4432   -3.5140   -1.9392 C   0  0  0  0  0  0  0  0  0  0  0  0
    6.7324   -2.7952   -2.1885 C   0  0  0  0  0  0  0  0  0  0  0  0
    5.3218   -4.3676   -0.8464 C   0  0  0  0  0  0  0  0  0  0  0  0
    4.1653   -5.0847   -0.6291 C   0  0  0  0  0  0  0  0  0  0  0  0
   -0.1266   -6.1885   -2.5559 C   0  0  0  0  0  0  0  0  0  0  0  0
    0.0814   -7.7464   -3.2678 S   0  0  0  0  0  0  0  0  0  0  0  0
    0.4513   -3.0381   -0.6538 C   0  0  0  0  0  0  0  0  0  0  0  0
   -0.4658   -2.4216    0.1845 C   0  0  0  0  0  0  0  0  0  0  0  0
   -1.6689   -2.9994    0.5700 N   0  0  0  0  0  0  0  0  0  0  0  0
   -2.8220   -2.2133    0.5837 C   0  0  0  0  0  0  0  0  0  0  0  0
   -3.8048   -2.3942    1.5525 C   0  0  0  0  0  0  0  0  0  0  0  0
   -4.9248   -1.5868    1.5790 C   0  0  0  0  0  0  0  0  0  0  0  0
   -5.0774   -0.5766    0.6394 C   0  0  0  0  0  0  0  0  0  0  0  0
   -6.4646    0.5151    0.5658 S   0  0  0  0  0  0  0  0  0  0  0  0
   -7.4630    0.0573    2.0098 C   0  0  0  0  0  0  0  0  0  0  0  0
   -4.0995   -0.3973   -0.3365 C   0  0  0  0  0  0  0  0  0  0  0  0
   -2.9875   -1.2060   -0.3688 C   0  0  0  0  0  0  0  0  0  0  0  0
   -1.6700   -4.3387    0.9759 C   0  0  0  0  0  0  0  0  0  0  0  0
   -0.5820   -4.8664    1.6661 C   0  0  0  0  0  0  0  0  0  0  0  0
   -0.5599   -6.1950    2.0412 C   0  0  0  0  0  0  0  0  0  0  0  0
   -1.6286   -7.0252    1.7271 C   0  0  0  0  0  0  0  0  0  0  0  0
   -1.6904   -8.7464    2.1156 S   0  0  0  0  0  0  0  0  0  0  0  0
   -0.2014   -9.0241    3.1164 C   0  0  0  0  0  0  0  0  0  0  0  0
   -2.7217   -6.4987    1.0404 C   0  0  0  0  0  0  0  0  0  0  0  0
   -2.7451   -5.1728    0.6710 C   0  0  0  0  0  0  0  0  0  0  0  0
   -0.0006   -1.1709    0.6386 C   0  0  0  0  0  0  0  0  0  0  0  0
   -0.6893    0.0761    1.6114 S   0  0  0  0  0  0  0  0  0  0  0  0
    0.7282    1.0815    1.3298 C   0  0  0  0  0  0  0  0  0  0  0  0
    1.7157    0.4278    0.6195 C   0  0  0  0  0  0  0  0  0  0  0  0
    2.9905    0.9342    0.4127 N   0  0  0  0  0  0  0  0  0  0  0  0
    3.6448    1.5855    1.4665 C   0  0  0  0  0  0  0  0  0  0  0  0
    3.3430    1.2740    2.7948 C   0  0  0  0  0  0  0  0  0  0  0  0
    3.9705    1.9276    3.8323 C   0  0  0  0  0  0  0  0  0  0  0  0
    4.9331    2.8965    3.5719 C   0  0  0  0  0  0  0  0  0  0  0  0
    5.7371    3.6570    4.9492 S   0  0  0  0  0  0  0  0  0  0  0  0
    6.1144    5.3148    4.3051 C   0  0  0  0  0  0  0  0  0  0  0  0
    5.2586    3.1936    2.2564 C   0  0  0  0  0  0  0  0  0  0  0  0
    4.6154    2.5531    1.2172 C   0  0  0  0  0  0  0  0  0  0  0  0
    3.5957    0.7204   -0.8292 C   0  0  0  0  0  0  0  0  0  0  0  0
    4.9726    0.5487   -0.9464 C   0  0  0  0  0  0  0  0  0  0  0  0
    5.5587    0.3768   -2.1833 C   0  0  0  0  0  0  0  0  0  0  0  0
    4.7739    0.3283   -3.3264 C   0  0  0  0  0  0  0  0  0  0  0  0
    5.4341    0.0681   -4.9470 S   0  0  0  0  0  0  0  0  0  0  0  0
    7.1614    0.6097   -4.7807 C   0  0  0  0  0  0  0  0  0  0  0  0
    3.3934    0.4553   -3.2133 C   0  0  0  0  0  0  0  0  0  0  0  0
    2.8114    0.6638   -1.9829 C   0  0  0  0  0  0  0  0  0  0  0  0
    1.2728   -0.8529    0.1955 C   0  0  0  0  0  0  0  0  0  0  0  0
    1.9447   -2.1166   -0.7833 S   0  0  0  0  0  0  0  0  0  0  0  0
    0.6562    2.4589    1.7388 C   0  0  0  0  0  0  0  0  0  0  0  0
    0.8120    3.5872    0.9595 C   0  0  0  0  0  0  0  0  0  0  0  0
    1.2619    3.6075   -0.3749 N   0  0  0  0  0  0  0  0  0  0  0  0
    0.2841    3.4987   -1.3869 C   0  0  0  0  0  0  0  0  0  0  0  0
   -0.6778    2.4945   -1.3393 C   0  0  0  0  0  0  0  0  0  0  0  0
   -1.6248    2.3819   -2.3394 C   0  0  0  0  0  0  0  0  0  0  0  0
   -1.6505    3.2643   -3.4101 C   0  0  0  0  0  0  0  0  0  0  0  0
   -2.6873    3.1459   -4.4851 C   0  0  0  0  0  0  0  0  0  0  0  0
   -0.7058    4.2837   -3.4370 C   0  0  0  0  0  0  0  0  0  0  0  0
    0.2422    4.4084   -2.4421 C   0  0  0  0  0  0  0  0  0  0  0  0
    2.5039    4.1883   -0.6567 C   0  0  0  0  0  0  0  0  0  0  0  0
    3.1816    4.9946    0.2550 C   0  0  0  0  0  0  0  0  0  0  0  0
    4.4134    5.5349   -0.0658 C   0  0  0  0  0  0  0  0  0  0  0  0
    5.0281    5.2677   -1.2798 C   0  0  0  0  0  0  0  0  0  0  0  0
    6.3776    5.8302   -1.6102 C   0  0  0  0  0  0  0  0  0  0  0  0
    4.3643    4.4329   -2.1730 C   0  0  0  0  0  0  0  0  0  0  0  0
    3.1257    3.9069   -1.8755 C   0  0  0  0  0  0  0  0  0  0  0  0
    0.4047    4.7431    1.6694 C   0  0  0  0  0  0  0  0  0  0  0  0
    0.1829    6.4053    1.1423 S   0  0  0  0  0  0  0  0  0  0  0  0
   -0.6626    6.7608    2.6398 C   0  0  0  0  0  0  0  0  0  0  0  0
   -0.4027    5.7236    3.7236 C   0  0  0  0  0  0  0  0  0  0  0  0
    0.6622    6.1777    4.5898 N   0  0  0  0  0  0  0  0  0  0  0  0
    1.2947    5.2926    5.4868 C   0  0  0  0  0  0  0  0  0  0  0  0
    2.5714    5.6384    5.9288 C   0  0  0  0  0  0  0  0  0  0  0  0
    3.2614    4.8057    6.7818 C   0  0  0  0  0  0  0  0  0  0  0  0
    2.7168    3.5942    7.1983 C   0  0  0  0  0  0  0  0  0  0  0  0
    3.5088    2.6833    8.0844 C   0  0  0  0  0  0  0  0  0  0  0  0
    1.4374    3.2704    6.7751 C   0  0  0  0  0  0  0  0  0  0  0  0
    0.7195    4.1151    5.9457 C   0  0  0  0  0  0  0  0  0  0  0  0
    0.6057    7.5331    5.0227 C   0  0  0  0  0  0  0  0  0  0  0  0
    1.0300    8.5559    4.1838 C   0  0  0  0  0  0  0  0  0  0  0  0
    0.8981    9.8732    4.5809 C   0  0  0  0  0  0  0  0  0  0  0  0
    0.3525   10.1976    5.8170 C   0  0  0  0  0  0  0  0  0  0  0  0
    0.1965   11.6279    6.2295 C   0  0  0  0  0  0  0  0  0  0  0  0
   -0.0283    9.1641    6.6661 C   0  0  0  0  0  0  0  0  0  0  0  0
    0.0997    7.8441    6.2807 C   0  0  0  0  0  0  0  0  0  0  0  0
    0.0038    4.5099    2.9547 C   0  0  0  0  0  0  0  0  0  0  0  0
    0.0735    2.8388    3.3372 S   0  0  0  0  0  0  0  0  0  0  0  0
   -1.5085    7.7857    2.8366 C   0  0  0  0  0  0  0  0  0  0  0  0
   -2.2570    7.7681    4.0584 C   0  0  0  0  0  0  0  0  0  0  0  0
   -2.2922    6.5967    4.7891 C   0  0  0  0  0  0  0  0  0  0  0  0
   -1.6045    5.4915    4.5014 O   0  0  0  0  0  0  0  0  0  0  0  0
   -3.1980    6.7476    5.8994 C   0  0  0  0  0  0  0  0  0  0  0  0
   -3.6023    5.8447    6.8662 C   0  0  0  0  0  0  0  0  0  0  0  0
   -2.9454    4.2690    6.9362 Cl  0  0  0  0  0  0  0  0  0  0  0  0
   -4.5751    6.2492    7.7899 C   0  0  0  0  0  0  0  0  0  0  0  0
   -5.0894    5.1669    9.0120 Cl  0  0  0  0  0  0  0  0  0  0  0  0
   -5.1487    7.5131    7.6939 C   0  0  0  0  0  0  0  0  0  0  0  0
   -6.3944    7.9550    8.7829 Cl  0  0  0  0  0  0  0  0  0  0  0  0
   -4.7331    8.4319    6.7101 C   0  0  0  0  0  0  0  0  0  0  0  0
   -5.5873    9.9116    6.5770 Cl  0  0  0  0  0  0  0  0  0  0  0  0
   -3.7110    8.0734    5.8497 C   0  0  0  0  0  0  0  0  0  0  0  0
   -3.0267    8.7690    4.7547 C   0  0  0  0  0  0  0  0  0  0  0  0
   -2.9085   10.1166    4.5317 C   0  0  0  0  0  0  0  0  0  0  0  0
   -2.1609   10.6363    3.4515 C   0  0  0  0  0  0  0  0  0  0  0  0
   -1.5764   11.1278    2.5949 N   0  0  0  0  0  0  0  0  0  0  0  0
   -3.3130   11.1684    5.3775 C   0  0  0  0  0  0  0  0  0  0  0  0
   -3.5019   12.0997    6.0220 N   0  0  0  0  0  0  0  0  0  0  0  0
   -1.4304   -6.1396   -6.3019 H   0  0  0  0  0  0  0  0  0  0  0  0
   -1.8759   -6.3443   -8.6972 H   0  0  0  0  0  0  0  0  0  0  0  0
   -4.4911   -7.4219  -10.1962 H   0  0  0  0  0  0  0  0  0  0  0  0
   -5.1430   -5.7875  -10.2609 H   0  0  0  0  0  0  0  0  0  0  0  0
   -3.4193   -6.0694  -10.5572 H   0  0  0  0  0  0  0  0  0  0  0  0
   -6.0667   -6.0712   -7.9534 H   0  0  0  0  0  0  0  0  0  0  0  0
   -5.6325   -5.9027   -5.5467 H   0  0  0  0  0  0  0  0  0  0  0  0
   -4.1945   -3.4710   -4.9413 H   0  0  0  0  0  0  0  0  0  0  0  0
   -5.7324   -2.1552   -3.5393 H   0  0  0  0  0  0  0  0  0  0  0  0
   -7.8853   -3.1657   -1.4574 H   0  0  0  0  0  0  0  0  0  0  0  0
   -6.7348   -3.0719   -0.1244 H   0  0  0  0  0  0  0  0  0  0  0  0
   -6.7754   -1.7998   -1.3560 H   0  0  0  0  0  0  0  0  0  0  0  0
   -5.8109   -5.3017   -0.6628 H   0  0  0  0  0  0  0  0  0  0  0  0
   -4.2343   -6.6011   -2.0390 H   0  0  0  0  0  0  0  0  0  0  0  0
    0.3367   -7.3788   -0.0330 H   0  0  0  0  0  0  0  0  0  0  0  0
    0.5038   -9.8260    0.1324 H   0  0  0  0  0  0  0  0  0  0  0  0
    1.7763  -11.8565   -0.1533 H   0  0  0  0  0  0  0  0  0  0  0  0
    2.0793  -11.8265   -1.8924 H   0  0  0  0  0  0  0  0  0  0  0  0
    3.4369  -11.7847   -0.7702 H   0  0  0  0  0  0  0  0  0  0  0  0
    4.1631   -9.7162   -2.0532 H   0  0  0  0  0  0  0  0  0  0  0  0
    3.9855   -7.2783   -2.2463 H   0  0  0  0  0  0  0  0  0  0  0  0
    2.3705   -3.9918   -3.2800 H   0  0  0  0  0  0  0  0  0  0  0  0
    4.4274   -2.7073   -3.6415 H   0  0  0  0  0  0  0  0  0  0  0  0
    6.6821   -2.2373   -3.1189 H   0  0  0  0  0  0  0  0  0  0  0  0
    7.5555   -3.5063   -2.2515 H   0  0  0  0  0  0  0  0  0  0  0  0
    6.9467   -2.1074   -1.3714 H   0  0  0  0  0  0  0  0  0  0  0  0
    6.1527   -4.4779   -0.1644 H   0  0  0  0  0  0  0  0  0  0  0  0
    4.0854   -5.7603    0.2098 H   0  0  0  0  0  0  0  0  0  0  0  0
   -3.6850   -3.1668    2.2973 H   0  0  0  0  0  0  0  0  0  0  0  0
   -5.6635   -1.7504    2.3472 H   0  0  0  0  0  0  0  0  0  0  0  0
   -7.8210   -0.9632    1.9088 H   0  0  0  0  0  0  0  0  0  0  0  0
   -8.3048    0.7427    2.0116 H   0  0  0  0  0  0  0  0  0  0  0  0
   -6.8807    0.1862    2.9175 H   0  0  0  0  0  0  0  0  0  0  0  0
   -4.2314    0.3846   -1.0687 H   0  0  0  0  0  0  0  0  0  0  0  0
   -2.2396   -1.0712   -1.1359 H   0  0  0  0  0  0  0  0  0  0  0  0
    0.2567   -4.2321    1.9117 H   0  0  0  0  0  0  0  0  0  0  0  0
    0.2992   -6.5691    2.5742 H   0  0  0  0  0  0  0  0  0  0  0  0
    0.6901   -8.8491    2.5203 H   0  0  0  0  0  0  0  0  0  0  0  0
   -0.2243   -8.3870    3.9957 H   0  0  0  0  0  0  0  0  0  0  0  0
   -0.2446  -10.0666    3.4166 H   0  0  0  0  0  0  0  0  0  0  0  0
   -3.5474   -7.1489    0.7942 H   0  0  0  0  0  0  0  0  0  0  0  0
   -3.5845   -4.7703    0.1261 H   0  0  0  0  0  0  0  0  0  0  0  0
    2.6141    0.5106    3.0198 H   0  0  0  0  0  0  0  0  0  0  0  0
    3.7221    1.6894    4.8547 H   0  0  0  0  0  0  0  0  0  0  0  0
    6.9825    5.2828    3.6530 H   0  0  0  0  0  0  0  0  0  0  0  0
    5.2428    5.6952    3.7820 H   0  0  0  0  0  0  0  0  0  0  0  0
    6.3312    5.9333    5.1703 H   0  0  0  0  0  0  0  0  0  0  0  0
    6.0128    3.9288    2.0256 H   0  0  0  0  0  0  0  0  0  0  0  0
    4.8711    2.8073    0.2015 H   0  0  0  0  0  0  0  0  0  0  0  0
    5.5906    0.5443   -0.0615 H   0  0  0  0  0  0  0  0  0  0  0  0
    6.6298    0.2705   -2.2424 H   0  0  0  0  0  0  0  0  0  0  0  0
    7.7481   -0.1338   -4.2483 H   0  0  0  0  0  0  0  0  0  0  0  0
    7.5375    0.7130   -5.7937 H   0  0  0  0  0  0  0  0  0  0  0  0
    7.1902    1.5686   -4.2726 H   0  0  0  0  0  0  0  0  0  0  0  0
    2.7838    0.4103   -4.1029 H   0  0  0  0  0  0  0  0  0  0  0  0
    1.7432    0.8068   -1.9139 H   0  0  0  0  0  0  0  0  0  0  0  0
   -0.6929    1.7969   -0.5191 H   0  0  0  0  0  0  0  0  0  0  0  0
   -2.3539    1.5863   -2.2839 H   0  0  0  0  0  0  0  0  0  0  0  0
   -3.5507    3.7660   -4.2408 H   0  0  0  0  0  0  0  0  0  0  0  0
   -2.2938    3.4818   -5.4418 H   0  0  0  0  0  0  0  0  0  0  0  0
   -3.0283    2.1178   -4.5841 H   0  0  0  0  0  0  0  0  0  0  0  0
   -0.7181    4.9999   -4.2459 H   0  0  0  0  0  0  0  0  0  0  0  0
    0.9530    5.2204   -2.4749 H   0  0  0  0  0  0  0  0  0  0  0  0
    2.7588    5.2053    1.2244 H   0  0  0  0  0  0  0  0  0  0  0  0
    4.9049    6.1786    0.6502 H   0  0  0  0  0  0  0  0  0  0  0  0
    6.4380    6.0955   -2.6635 H   0  0  0  0  0  0  0  0  0  0  0  0
    6.5857    6.7147   -1.0128 H   0  0  0  0  0  0  0  0  0  0  0  0
    7.1548    5.0918   -1.4062 H   0  0  0  0  0  0  0  0  0  0  0  0
    4.8240    4.1907   -3.1207 H   0  0  0  0  0  0  0  0  0  0  0  0
    2.6320    3.2659   -2.5889 H   0  0  0  0  0  0  0  0  0  0  0  0
    3.0065    6.5702    5.5977 H   0  0  0  0  0  0  0  0  0  0  0  0
    4.2461    5.0864    7.1242 H   0  0  0  0  0  0  0  0  0  0  0  0
    4.4748    2.4689    7.6282 H   0  0  0  0  0  0  0  0  0  0  0  0
    3.6951    3.1570    9.0476 H   0  0  0  0  0  0  0  0  0  0  0  0
    2.9823    1.7476    8.2550 H   0  0  0  0  0  0  0  0  0  0  0  0
    0.9784    2.3497    7.1061 H   0  0  0  0  0  0  0  0  0  0  0  0
   -0.2950    3.8636    5.6771 H   0  0  0  0  0  0  0  0  0  0  0  0
    1.4579    8.3190    3.2215 H   0  0  0  0  0  0  0  0  0  0  0  0
    1.2131   10.6621    3.9146 H   0  0  0  0  0  0  0  0  0  0  0  0
   -0.6366   11.7474    6.9182 H   0  0  0  0  0  0  0  0  0  0  0  0
    1.1016   11.9730    6.7303 H   0  0  0  0  0  0  0  0  0  0  0  0
    0.0289   12.2620    5.3619 H   0  0  0  0  0  0  0  0  0  0  0  0
   -0.4413    9.3967    7.6372 H   0  0  0  0  0  0  0  0  0  0  0  0
   -0.2042    7.0470    6.9448 H   0  0  0  0  0  0  0  0  0  0  0  0
   -1.6684    8.5403    2.0860 H   0  0  0  0  0  0  0  0  0  0  0  0
  1  2  3  0  0  0  0
  2  3  1  0  0  0  0
  3  4  2  0  0  0  0
  4  5  1  0  0  0  0
  5  6  3  0  0  0  0
  4  7  1  0  0  0  0
  7  8  3  0  0  0  0
  3  9  1  0  0  0  0
  9 10  2  0  0  0  0
 10 11  1  0  0  0  0
 11 12  1  0  0  0  0
 12 13  2  0  0  0  0
 13 14  1  0  0  0  0
 14 15  2  0  0  0  0
 15 16  1  0  0  0  0
 15 17  1  0  0  0  0
 17 18  2  0  0  0  0
 11 19  1  0  0  0  0
 19 20  2  0  0  0  0
 20 21  1  0  0  0  0
 21 22  2  0  0  0  0
 22 23  1  0  0  0  0
 22 24  1  0  0  0  0
 24 25  2  0  0  0  0
 10 26  1  0  0  0  0
 26 27  1  0  0  0  0
 27 28  1  0  0  0  0
 28 29  2  0  0  0  0
 29 30  1  0  0  0  0
 30 31  1  0  0  0  0
 31 32  2  0  0  0  0
 32 33  1  0  0  0  0
 33 34  2  0  0  0  0
 34 35  1  0  0  0  0
 34 36  1  0  0  0  0
 36 37  2  0  0  0  0
 30 38  1  0  0  0  0
 38 39  2  0  0  0  0
 39 40  1  0  0  0  0
 40 41  2  0  0  0  0
 41 42  1  0  0  0  0
 41 43  1  0  0  0  0
 43 44  2  0  0  0  0
 29 45  1  0  0  0  0
 45 46  1  0  0  0  0
 28 47  1  0  0  0  0
 47 48  2  0  0  0  0
 48 49  1  0  0  0  0
 49 50  1  0  0  0  0
 50 51  2  0  0  0  0
 51 52  1  0  0  0  0
 52 53  2  0  0  0  0
 53 54  1  0  0  0  0
 54 55  1  0  0  0  0
 53 56  1  0  0  0  0
 56 57  2  0  0  0  0
 49 58  1  0  0  0  0
 58 59  2  0  0  0  0
 59 60  1  0  0  0  0
 60 61  2  0  0  0  0
 61 62  1  0  0  0  0
 62 63  1  0  0  0  0
 61 64  1  0  0  0  0
 64 65  2  0  0  0  0
 48 66  1  0  0  0  0
 66 67  1  0  0  0  0
 67 68  1  0  0  0  0
 68 69  2  0  0  0  0
 69 70  1  0  0  0  0
 70 71  1  0  0  0  0
 71 72  2  0  0  0  0
 72 73  1  0  0  0  0
 73 74  2  0  0  0  0
 74 75  1  0  0  0  0
 75 76  1  0  0  0  0
 74 77  1  0  0  0  0
 77 78  2  0  0  0  0
 70 79  1  0  0  0  0
 79 80  2  0  0  0  0
 80 81  1  0  0  0  0
 81 82  2  0  0  0  0
 82 83  1  0  0  0  0
 83 84  1  0  0  0  0
 82 85  1  0  0  0  0
 85 86  2  0  0  0  0
 69 87  1  0  0  0  0
 87 88  1  0  0  0  0
 68 89  1  0  0  0  0
 89 90  2  0  0  0  0
 90 91  1  0  0  0  0
 91 92  1  0  0  0  0
 92 93  2  0  0  0  0
 93 94  1  0  0  0  0
 94 95  2  0  0  0  0
 95 96  1  0  0  0  0
 95 97  1  0  0  0  0
 97 98  2  0  0  0  0
 91 99  1  0  0  0  0
 99100  2  0  0  0  0
100101  1  0  0  0  0
101102  2  0  0  0  0
102103  1  0  0  0  0
102104  1  0  0  0  0
104105  2  0  0  0  0
 90106  1  0  0  0  0
106107  1  0  0  0  0
107108  1  0  0  0  0
108109  2  0  0  0  0
109110  1  0  0  0  0
110111  1  0  0  0  0
111112  2  0  0  0  0
112113  1  0  0  0  0
113114  2  0  0  0  0
114115  1  0  0  0  0
114116  1  0  0  0  0
116117  2  0  0  0  0
110118  1  0  0  0  0
118119  2  0  0  0  0
119120  1  0  0  0  0
120121  2  0  0  0  0
121122  1  0  0  0  0
121123  1  0  0  0  0
123124  2  0  0  0  0
109125  1  0  0  0  0
125126  1  0  0  0  0
108127  1  0  0  0  0
127128  2  0  0  0  0
128129  1  0  0  0  0
129130  2  0  0  0  0
129131  1  0  0  0  0
131132  2  0  0  0  0
132133  1  0  0  0  0
132134  1  0  0  0  0
134135  1  0  0  0  0
134136  2  0  0  0  0
136137  1  0  0  0  0
136138  1  0  0  0  0
138139  1  0  0  0  0
138140  2  0  0  0  0
140141  1  0  0  0  0
141142  2  0  0  0  0
142143  1  0  0  0  0
143144  3  0  0  0  0
142145  1  0  0  0  0
145146  3  0  0  0  0
 46  9  1  0  0  0  0
 88 47  1  0  0  0  0
126 89  1  0  0  0  0
141128  1  0  0  0  0
 18 12  1  0  0  0  0
 25 19  1  0  0  0  0
 45 26  2  0  0  0  0
 57 50  1  0  0  0  0
 65 58  1  0  0  0  0
 87 66  2  0  0  0  0
 98 92  1  0  0  0  0
105 99  1  0  0  0  0
125106  2  0  0  0  0
140131  1  0  0  0  0
 37 31  1  0  0  0  0
 44 38  1  0  0  0  0
 78 71  1  0  0  0  0
 86 79  1  0  0  0  0
117111  1  0  0  0  0
124118  1  0  0  0  0
 13147  1  0  0  0  0
 14148  1  0  0  0  0
 16149  1  0  0  0  0
 16150  1  0  0  0  0
 16151  1  0  0  0  0
 17152  1  0  0  0  0
 18153  1  0  0  0  0
 20154  1  0  0  0  0
 21155  1  0  0  0  0
 23156  1  0  0  0  0
 23157  1  0  0  0  0
 23158  1  0  0  0  0
 24159  1  0  0  0  0
 25160  1  0  0  0  0
 32161  1  0  0  0  0
 33162  1  0  0  0  0
 35163  1  0  0  0  0
 35164  1  0  0  0  0
 35165  1  0  0  0  0
 36166  1  0  0  0  0
 37167  1  0  0  0  0
 39168  1  0  0  0  0
 40169  1  0  0  0  0
 42170  1  0  0  0  0
 42171  1  0  0  0  0
 42172  1  0  0  0  0
 43173  1  0  0  0  0
 44174  1  0  0  0  0
 51175  1  0  0  0  0
 52176  1  0  0  0  0
 55177  1  0  0  0  0
 55178  1  0  0  0  0
 55179  1  0  0  0  0
 56180  1  0  0  0  0
 57181  1  0  0  0  0
 59182  1  0  0  0  0
 60183  1  0  0  0  0
 63184  1  0  0  0  0
 63185  1  0  0  0  0
 63186  1  0  0  0  0
 64187  1  0  0  0  0
 65188  1  0  0  0  0
 72189  1  0  0  0  0
 73190  1  0  0  0  0
 76191  1  0  0  0  0
 76192  1  0  0  0  0
 76193  1  0  0  0  0
 77194  1  0  0  0  0
 78195  1  0  0  0  0
 80196  1  0  0  0  0
 81197  1  0  0  0  0
 84198  1  0  0  0  0
 84199  1  0  0  0  0
 84200  1  0  0  0  0
 85201  1  0  0  0  0
 86202  1  0  0  0  0
 93203  1  0  0  0  0
 94204  1  0  0  0  0
 96205  1  0  0  0  0
 96206  1  0  0  0  0
 96207  1  0  0  0  0
 97208  1  0  0  0  0
 98209  1  0  0  0  0
100210  1  0  0  0  0
101211  1  0  0  0  0
103212  1  0  0  0  0
103213  1  0  0  0  0
103214  1  0  0  0  0
104215  1  0  0  0  0
105216  1  0  0  0  0
112217  1  0  0  0  0
113218  1  0  0  0  0
115219  1  0  0  0  0
115220  1  0  0  0  0
115221  1  0  0  0  0
116222  1  0  0  0  0
117223  1  0  0  0  0
119224  1  0  0  0  0
120225  1  0  0  0  0
122226  1  0  0  0  0
122227  1  0  0  0  0
122228  1  0  0  0  0
123229  1  0  0  0  0
124230  1  0  0  0  0
127231  1  0  0  0  0
M  END
