
  xtb     02032219243D
 energy: -186.201618624333 gnorm: 0.000966471464 xtb: 6.4.1 (unknown)
115121  0     0  0            999 V2000
   -4.5868    2.7147   -8.8104 C   0  0  0  0  0  0  0  0  0  0  0  0
   -3.5005    1.6840   -9.1140 C   0  0  0  0  0  0  0  0  0  0  0  0
   -4.0035    0.2665   -8.8156 C   0  0  0  0  0  0  0  0  0  0  0  0
   -2.1664    1.8993   -8.4341 C   0  0  0  0  0  0  0  0  0  0  0  0
   -1.2239    2.0736   -9.4008 C   0  0  0  0  0  0  0  0  0  0  0  0
    0.1457    2.2950   -9.1720 C   0  0  0  0  0  0  0  0  0  0  0  0
    1.2457    2.4807   -8.9111 N   0  0  0  0  0  0  0  0  0  0  0  0
   -1.8871    2.0234  -10.6902 C   0  0  0  0  0  0  0  0  0  0  0  0
   -1.3344    2.1778  -11.9294 C   0  0  0  0  0  0  0  0  0  0  0  0
   -2.1275    2.0890  -13.0928 C   0  0  0  0  0  0  0  0  0  0  0  0
   -2.7686    2.0213  -14.0407 N   0  0  0  0  0  0  0  0  0  0  0  0
    0.0366    2.4324  -12.1233 C   0  0  0  0  0  0  0  0  0  0  0  0
    1.1453    2.6415  -12.3285 N   0  0  0  0  0  0  0  0  0  0  0  0
   -3.1921    1.7832  -10.5142 O   0  0  0  0  0  0  0  0  0  0  0  0
   -1.9032    1.6823   -7.0188 C   0  0  0  0  0  0  0  0  0  0  0  0
   -2.4943    2.4181   -5.9820 C   0  0  0  0  0  0  0  0  0  0  0  0
   -3.2731    3.5237   -6.2159 O   0  0  0  0  0  0  0  0  0  0  0  0
   -2.5983    4.6237   -6.8126 C   0  0  0  0  0  0  0  0  0  0  0  0
   -3.5216    5.8277   -6.7525 C   0  0  0  0  0  0  0  0  0  0  0  0
   -2.2809    2.0573   -4.6491 C   0  0  0  0  0  0  0  0  0  0  0  0
   -2.9060    2.7975   -3.6745 O   0  0  0  0  0  0  0  0  0  0  0  0
   -2.0877    3.7903   -3.0676 C   0  0  0  0  0  0  0  0  0  0  0  0
   -2.8685    4.4141   -1.9245 C   0  0  0  0  0  0  0  0  0  0  0  0
   -1.4512    0.9679   -4.3261 C   0  0  0  0  0  0  0  0  0  0  0  0
   -0.7973    0.3086   -5.3712 C   0  0  0  0  0  0  0  0  0  0  0  0
   -1.0144    0.6571   -6.6816 C   0  0  0  0  0  0  0  0  0  0  0  0
   -1.2487    0.5555   -2.9586 C   0  0  0  0  0  0  0  0  0  0  0  0
    0.2362   -0.2616   -2.5028 S   0  0  0  0  0  0  0  0  0  0  0  0
   -0.3034   -0.3471   -0.8786 C   0  0  0  0  0  0  0  0  0  0  0  0
    0.2004   -0.7770    0.3742 C   0  0  0  0  0  0  0  0  0  0  0  0
   -0.7528   -0.5023    1.3513 C   0  0  0  0  0  0  0  0  0  0  0  0
   -2.0000    0.0988    0.7418 C   0  0  0  0  0  0  0  0  0  0  0  0
   -3.1569   -0.9051    0.9410 C   0  0  0  0  0  0  0  0  0  0  0  0
   -4.4486   -0.5522    0.2160 C   0  0  0  0  0  0  0  0  0  0  0  0
   -2.3337    1.4769    1.3321 C   0  0  0  0  0  0  0  0  0  0  0  0
   -1.1647    2.4514    1.2446 C   0  0  0  0  0  0  0  0  0  0  0  0
   -1.5751    0.1919   -0.7048 C   0  0  0  0  0  0  0  0  0  0  0  0
   -2.1010    0.7125   -1.8850 C   0  0  0  0  0  0  0  0  0  0  0  0
   -0.3335   -0.8717    2.6224 C   0  0  0  0  0  0  0  0  0  0  0  0
    0.9406   -1.4174    2.6280 C   0  0  0  0  0  0  0  0  0  0  0  0
    1.6222   -1.4840    1.0180 S   0  0  0  0  0  0  0  0  0  0  0  0
    1.6867   -1.8705    3.7695 C   0  0  0  0  0  0  0  0  0  0  0  0
    3.0083   -2.3486    3.6263 C   0  0  0  0  0  0  0  0  0  0  0  0
    3.4867   -2.4336    2.3533 O   0  0  0  0  0  0  0  0  0  0  0  0
    4.7944   -1.9611    2.0508 C   0  0  0  0  0  0  0  0  0  0  0  0
    4.9675   -0.4887    2.3985 C   0  0  0  0  0  0  0  0  0  0  0  0
    3.7298   -2.7817    4.7419 C   0  0  0  0  0  0  0  0  0  0  0  0
    4.9814   -3.3374    4.5601 O   0  0  0  0  0  0  0  0  0  0  0  0
    5.0352   -4.7483    4.7360 C   0  0  0  0  0  0  0  0  0  0  0  0
    4.2027   -5.5080    3.7122 C   0  0  0  0  0  0  0  0  0  0  0  0
    3.1712   -2.6926    6.0241 C   0  0  0  0  0  0  0  0  0  0  0  0
    1.8471   -2.2608    6.1489 C   0  0  0  0  0  0  0  0  0  0  0  0
    1.1253   -1.8643    5.0518 C   0  0  0  0  0  0  0  0  0  0  0  0
    3.8793   -3.0285    7.2495 C   0  0  0  0  0  0  0  0  0  0  0  0
    3.4068   -3.8475    8.2303 C   0  0  0  0  0  0  0  0  0  0  0  0
    2.2753   -4.6756    8.1231 C   0  0  0  0  0  0  0  0  0  0  0  0
    1.3507   -5.3329    7.9612 N   0  0  0  0  0  0  0  0  0  0  0  0
    4.2903   -3.7377    9.3744 C   0  0  0  0  0  0  0  0  0  0  0  0
    4.2079   -4.3938   10.5694 C   0  0  0  0  0  0  0  0  0  0  0  0
    5.1478   -4.1556   11.5938 C   0  0  0  0  0  0  0  0  0  0  0  0
    5.9109   -3.9615   12.4270 N   0  0  0  0  0  0  0  0  0  0  0  0
    3.1947   -5.3299   10.8511 C   0  0  0  0  0  0  0  0  0  0  0  0
    2.3863   -6.0968   11.1227 N   0  0  0  0  0  0  0  0  0  0  0  0
    5.2551   -2.8473    9.1118 O   0  0  0  0  0  0  0  0  0  0  0  0
    5.1079   -2.3243    7.7815 C   0  0  0  0  0  0  0  0  0  0  0  0
    6.4182   -2.5944    7.0436 C   0  0  0  0  0  0  0  0  0  0  0  0
    4.8356   -0.8177    7.8696 C   0  0  0  0  0  0  0  0  0  0  0  0
   -4.2634    3.7037   -9.1278 H   0  0  0  0  0  0  0  0  0  0  0  0
   -5.4827    2.4526   -9.3670 H   0  0  0  0  0  0  0  0  0  0  0  0
   -4.8078    2.7323   -7.7483 H   0  0  0  0  0  0  0  0  0  0  0  0
   -3.2370   -0.4686   -9.0533 H   0  0  0  0  0  0  0  0  0  0  0  0
   -4.2595    0.1852   -7.7629 H   0  0  0  0  0  0  0  0  0  0  0  0
   -4.8820    0.0631   -9.4218 H   0  0  0  0  0  0  0  0  0  0  0  0
   -1.6653    4.8270   -6.2678 H   0  0  0  0  0  0  0  0  0  0  0  0
   -2.3303    4.3910   -7.8531 H   0  0  0  0  0  0  0  0  0  0  0  0
   -3.0323    6.6888   -7.1986 H   0  0  0  0  0  0  0  0  0  0  0  0
   -3.7689    6.0511   -5.7184 H   0  0  0  0  0  0  0  0  0  0  0  0
   -4.4435    5.6202   -7.2887 H   0  0  0  0  0  0  0  0  0  0  0  0
   -1.8237    4.5563   -3.8104 H   0  0  0  0  0  0  0  0  0  0  0  0
   -1.1568    3.3362   -2.6990 H   0  0  0  0  0  0  0  0  0  0  0  0
   -2.2891    5.2178   -1.4790 H   0  0  0  0  0  0  0  0  0  0  0  0
   -3.0824    3.6677   -1.1648 H   0  0  0  0  0  0  0  0  0  0  0  0
   -3.8087    4.8116   -2.2964 H   0  0  0  0  0  0  0  0  0  0  0  0
   -0.1254   -0.5034   -5.1382 H   0  0  0  0  0  0  0  0  0  0  0  0
   -0.5209    0.1094   -7.4702 H   0  0  0  0  0  0  0  0  0  0  0  0
   -2.8146   -1.8839    0.5958 H   0  0  0  0  0  0  0  0  0  0  0  0
   -3.3515   -0.9821    2.0130 H   0  0  0  0  0  0  0  0  0  0  0  0
   -4.2904   -0.5103   -0.8580 H   0  0  0  0  0  0  0  0  0  0  0  0
   -5.1957   -1.3164    0.4188 H   0  0  0  0  0  0  0  0  0  0  0  0
   -4.8453    0.4023    0.5513 H   0  0  0  0  0  0  0  0  0  0  0  0
   -3.1860    1.8927    0.7931 H   0  0  0  0  0  0  0  0  0  0  0  0
   -2.6235    1.3482    2.3770 H   0  0  0  0  0  0  0  0  0  0  0  0
   -0.3102    2.0795    1.8053 H   0  0  0  0  0  0  0  0  0  0  0  0
   -0.8596    2.5936    0.2103 H   0  0  0  0  0  0  0  0  0  0  0  0
   -1.4512    3.4173    1.6541 H   0  0  0  0  0  0  0  0  0  0  0  0
   -3.0592    1.1874   -1.9853 H   0  0  0  0  0  0  0  0  0  0  0  0
   -0.9246   -0.7402    3.5098 H   0  0  0  0  0  0  0  0  0  0  0  0
    4.8787   -2.1126    0.9721 H   0  0  0  0  0  0  0  0  0  0  0  0
    5.5502   -2.5625    2.5631 H   0  0  0  0  0  0  0  0  0  0  0  0
    5.9474   -0.1507    2.0743 H   0  0  0  0  0  0  0  0  0  0  0  0
    4.8839   -0.3403    3.4737 H   0  0  0  0  0  0  0  0  0  0  0  0
    4.2052    0.1077    1.9023 H   0  0  0  0  0  0  0  0  0  0  0  0
    6.0952   -4.9907    4.6285 H   0  0  0  0  0  0  0  0  0  0  0  0
    4.7085   -5.0132    5.7511 H   0  0  0  0  0  0  0  0  0  0  0  0
    3.1442   -5.2914    3.8440 H   0  0  0  0  0  0  0  0  0  0  0  0
    4.3586   -6.5752    3.8412 H   0  0  0  0  0  0  0  0  0  0  0  0
    4.4925   -5.2261    2.7027 H   0  0  0  0  0  0  0  0  0  0  0  0
    1.3982   -2.2199    7.1296 H   0  0  0  0  0  0  0  0  0  0  0  0
    0.1089   -1.5357    5.1883 H   0  0  0  0  0  0  0  0  0  0  0  0
    6.3717   -2.2113    6.0301 H   0  0  0  0  0  0  0  0  0  0  0  0
    6.6194   -3.6629    7.0125 H   0  0  0  0  0  0  0  0  0  0  0  0
    7.2255   -2.1064    7.5836 H   0  0  0  0  0  0  0  0  0  0  0  0
    3.9322   -0.6281    8.4462 H   0  0  0  0  0  0  0  0  0  0  0  0
    4.7096   -0.4100    6.8704 H   0  0  0  0  0  0  0  0  0  0  0  0
    5.6721   -0.3280    8.3603 H   0  0  0  0  0  0  0  0  0  0  0  0
  1  2  1  0  0  0  0
  2  3  1  0  0  0  0
  2  4  1  0  0  0  0
  4  5  2  0  0  0  0
  5  6  1  0  0  0  0
  6  7  3  0  0  0  0
  5  8  1  0  0  0  0
  8  9  2  0  0  0  0
  9 10  1  0  0  0  0
 10 11  3  0  0  0  0
  9 12  1  0  0  0  0
 12 13  3  0  0  0  0
  8 14  1  0  0  0  0
  4 15  1  0  0  0  0
 15 16  2  0  0  0  0
 16 17  1  0  0  0  0
 17 18  1  0  0  0  0
 18 19  1  0  0  0  0
 16 20  1  0  0  0  0
 20 21  1  0  0  0  0
 21 22  1  0  0  0  0
 22 23  1  0  0  0  0
 20 24  2  0  0  0  0
 24 25  1  0  0  0  0
 25 26  2  0  0  0  0
 24 27  1  0  0  0  0
 27 28  1  0  0  0  0
 28 29  1  0  0  0  0
 29 30  1  0  0  0  0
 30 31  2  0  0  0  0
 31 32  1  0  0  0  0
 32 33  1  0  0  0  0
 33 34  1  0  0  0  0
 32 35  1  0  0  0  0
 35 36  1  0  0  0  0
 32 37  1  0  0  0  0
 37 38  1  0  0  0  0
 31 39  1  0  0  0  0
 39 40  2  0  0  0  0
 40 41  1  0  0  0  0
 40 42  1  0  0  0  0
 42 43  2  0  0  0  0
 43 44  1  0  0  0  0
 44 45  1  0  0  0  0
 45 46  1  0  0  0  0
 43 47  1  0  0  0  0
 47 48  1  0  0  0  0
 48 49  1  0  0  0  0
 49 50  1  0  0  0  0
 47 51  2  0  0  0  0
 51 52  1  0  0  0  0
 52 53  2  0  0  0  0
 51 54  1  0  0  0  0
 54 55  2  0  0  0  0
 55 56  1  0  0  0  0
 56 57  3  0  0  0  0
 55 58  1  0  0  0  0
 58 59  2  0  0  0  0
 59 60  1  0  0  0  0
 60 61  3  0  0  0  0
 59 62  1  0  0  0  0
 62 63  3  0  0  0  0
 58 64  1  0  0  0  0
 64 65  1  0  0  0  0
 65 66  1  0  0  0  0
 65 67  1  0  0  0  0
 14  2  1  0  0  0  0
 26 15  1  0  0  0  0
 38 27  2  0  0  0  0
 53 42  1  0  0  0  0
 65 54  1  0  0  0  0
 37 29  2  0  0  0  0
 41 30  1  0  0  0  0
  1 68  1  0  0  0  0
  1 69  1  0  0  0  0
  1 70  1  0  0  0  0
  3 71  1  0  0  0  0
  3 72  1  0  0  0  0
  3 73  1  0  0  0  0
 18 74  1  0  0  0  0
 18 75  1  0  0  0  0
 19 76  1  0  0  0  0
 19 77  1  0  0  0  0
 19 78  1  0  0  0  0
 22 79  1  0  0  0  0
 22 80  1  0  0  0  0
 23 81  1  0  0  0  0
 23 82  1  0  0  0  0
 23 83  1  0  0  0  0
 25 84  1  0  0  0  0
 26 85  1  0  0  0  0
 33 86  1  0  0  0  0
 33 87  1  0  0  0  0
 34 88  1  0  0  0  0
 34 89  1  0  0  0  0
 34 90  1  0  0  0  0
 35 91  1  0  0  0  0
 35 92  1  0  0  0  0
 36 93  1  0  0  0  0
 36 94  1  0  0  0  0
 36 95  1  0  0  0  0
 38 96  1  0  0  0  0
 39 97  1  0  0  0  0
 45 98  1  0  0  0  0
 45 99  1  0  0  0  0
 46100  1  0  0  0  0
 46101  1  0  0  0  0
 46102  1  0  0  0  0
 49103  1  0  0  0  0
 49104  1  0  0  0  0
 50105  1  0  0  0  0
 50106  1  0  0  0  0
 50107  1  0  0  0  0
 52108  1  0  0  0  0
 53109  1  0  0  0  0
 66110  1  0  0  0  0
 66111  1  0  0  0  0
 66112  1  0  0  0  0
 67113  1  0  0  0  0
 67114  1  0  0  0  0
 67115  1  0  0  0  0
M  END
