
  xtb     02092217443D
 energy: -268.184436052076 gnorm: 0.000695908021 xtb: 6.4.1 (unknown)
153164  0     0  0            999 V2000
   -1.8007    5.4820    5.3128 C   0  0  0  0  0  0  0  0  0  0  0  0
   -0.7685    6.2832    4.5044 C   0  0  0  0  0  0  0  0  0  0  0  0
   -1.4620    7.1732    3.4799 C   0  0  0  0  0  0  0  0  0  0  0  0
    0.2607    5.3168    3.9652 C   0  0  0  0  0  0  0  0  0  0  0  0
    1.4232    5.5210    4.6425 C   0  0  0  0  0  0  0  0  0  0  0  0
    2.5753    4.7241    4.5493 C   0  0  0  0  0  0  0  0  0  0  0  0
    3.4632    4.0037    4.4633 N   0  0  0  0  0  0  0  0  0  0  0  0
    1.2474    6.6967    5.4720 C   0  0  0  0  0  0  0  0  0  0  0  0
    2.2094    7.3586    6.1808 C   0  0  0  0  0  0  0  0  0  0  0  0
    1.9091    8.5047    6.9460 C   0  0  0  0  0  0  0  0  0  0  0  0
    1.6730    9.4279    7.5826 N   0  0  0  0  0  0  0  0  0  0  0  0
    3.5589    6.9731    6.1152 C   0  0  0  0  0  0  0  0  0  0  0  0
    4.6733    6.7131    6.0259 N   0  0  0  0  0  0  0  0  0  0  0  0
   -0.0204    7.1164    5.4002 O   0  0  0  0  0  0  0  0  0  0  0  0
   -0.0006    4.2719    3.0093 C   0  0  0  0  0  0  0  0  0  0  0  0
   -0.1609    4.3863    1.6434 C   0  0  0  0  0  0  0  0  0  0  0  0
   -0.0466    5.5730    0.9345 N   0  0  0  0  0  0  0  0  0  0  0  0
   -0.8470    5.7486   -0.1988 C   0  0  0  0  0  0  0  0  0  0  0  0
   -2.1524    5.2518   -0.2022 C   0  0  0  0  0  0  0  0  0  0  0  0
   -2.9442    5.3811   -1.3198 C   0  0  0  0  0  0  0  0  0  0  0  0
   -2.4613    6.0228   -2.4585 C   0  0  0  0  0  0  0  0  0  0  0  0
   -3.5700    6.1192   -3.8276 S   0  0  0  0  0  0  0  0  0  0  0  0
   -2.6190    6.9838   -5.1077 C   0  0  0  0  0  0  0  0  0  0  0  0
   -1.1707    6.5355   -2.4529 C   0  0  0  0  0  0  0  0  0  0  0  0
   -0.3706    6.3940   -1.3359 C   0  0  0  0  0  0  0  0  0  0  0  0
    1.0032    6.4510    1.2594 C   0  0  0  0  0  0  0  0  0  0  0  0
    0.8380    7.8342    1.1678 C   0  0  0  0  0  0  0  0  0  0  0  0
    1.8381    8.6804    1.5939 C   0  0  0  0  0  0  0  0  0  0  0  0
    3.0280    8.1741    2.1195 C   0  0  0  0  0  0  0  0  0  0  0  0
    4.1975    9.3500    2.7101 S   0  0  0  0  0  0  0  0  0  0  0  0
    5.6385    8.3560    3.1844 C   0  0  0  0  0  0  0  0  0  0  0  0
    3.2201    6.7989    2.1522 C   0  0  0  0  0  0  0  0  0  0  0  0
    2.2207    5.9521    1.7142 C   0  0  0  0  0  0  0  0  0  0  0  0
   -0.3123    3.1073    1.0481 C   0  0  0  0  0  0  0  0  0  0  0  0
   -0.5474    2.5463   -0.5671 S   0  0  0  0  0  0  0  0  0  0  0  0
   -0.5258    0.8772   -0.0186 C   0  0  0  0  0  0  0  0  0  0  0  0
   -0.2952    0.7721    1.3382 C   0  0  0  0  0  0  0  0  0  0  0  0
   -0.1160   -0.3897    2.0719 N   0  0  0  0  0  0  0  0  0  0  0  0
   -0.6638   -1.6107    1.6952 C   0  0  0  0  0  0  0  0  0  0  0  0
    0.0666   -2.7905    1.8527 C   0  0  0  0  0  0  0  0  0  0  0  0
   -0.4684   -3.9995    1.4704 C   0  0  0  0  0  0  0  0  0  0  0  0
   -1.7434   -4.0624    0.9204 C   0  0  0  0  0  0  0  0  0  0  0  0
   -2.3583   -5.6509    0.4299 S   0  0  0  0  0  0  0  0  0  0  0  0
   -4.1400   -5.4977    0.7622 C   0  0  0  0  0  0  0  0  0  0  0  0
   -2.4815   -2.8980    0.7680 C   0  0  0  0  0  0  0  0  0  0  0  0
   -1.9506   -1.6872    1.1637 C   0  0  0  0  0  0  0  0  0  0  0  0
    0.8455   -0.3302    3.1053 C   0  0  0  0  0  0  0  0  0  0  0  0
    0.5781   -0.8984    4.3488 C   0  0  0  0  0  0  0  0  0  0  0  0
    1.4754   -0.7436    5.3825 C   0  0  0  0  0  0  0  0  0  0  0  0
    2.6495   -0.0126    5.2006 C   0  0  0  0  0  0  0  0  0  0  0  0
    3.6889    0.1842    6.6089 S   0  0  0  0  0  0  0  0  0  0  0  0
    4.9358    1.3859    6.0650 C   0  0  0  0  0  0  0  0  0  0  0  0
    2.9400    0.5124    3.9479 C   0  0  0  0  0  0  0  0  0  0  0  0
    2.0454    0.3469    2.9096 C   0  0  0  0  0  0  0  0  0  0  0  0
   -0.2101    2.0557    1.9386 C   0  0  0  0  0  0  0  0  0  0  0  0
    0.0656    2.6013    3.5544 S   0  0  0  0  0  0  0  0  0  0  0  0
   -0.5082   -0.2452   -0.9555 C   0  0  0  0  0  0  0  0  0  0  0  0
   -1.4828   -0.6460   -1.8531 C   0  0  0  0  0  0  0  0  0  0  0  0
   -2.6988   -0.1057   -2.0755 O   0  0  0  0  0  0  0  0  0  0  0  0
   -3.1910    1.0441   -1.4191 C   0  0  0  0  0  0  0  0  0  0  0  0
   -4.6830    1.1205   -1.7050 C   0  0  0  0  0  0  0  0  0  0  0  0
   -1.2866   -1.8158   -2.6799 C   0  0  0  0  0  0  0  0  0  0  0  0
   -2.2494   -2.1256   -3.5988 O   0  0  0  0  0  0  0  0  0  0  0  0
   -3.4531   -2.7048   -3.1160 C   0  0  0  0  0  0  0  0  0  0  0  0
   -3.2942   -4.2000   -2.8615 C   0  0  0  0  0  0  0  0  0  0  0  0
   -0.1583   -2.5974   -2.6027 C   0  0  0  0  0  0  0  0  0  0  0  0
    0.8393   -2.2215   -1.6787 C   0  0  0  0  0  0  0  0  0  0  0  0
    0.6656   -1.0423   -0.8861 C   0  0  0  0  0  0  0  0  0  0  0  0
    1.7193   -0.8094   -0.1054 N   0  0  0  0  0  0  0  0  0  0  0  0
    2.8015   -1.9802   -0.3352 S   0  0  0  0  0  0  0  0  0  0  0  0
    2.0021   -2.8221   -1.4467 N   0  0  0  0  0  0  0  0  0  0  0  0
    0.0181   -3.8126   -3.4011 C   0  0  0  0  0  0  0  0  0  0  0  0
    0.2515   -5.0382   -2.7537 C   0  0  0  0  0  0  0  0  0  0  0  0
    0.3674   -5.3387   -1.4523 N   0  0  0  0  0  0  0  0  0  0  0  0
    0.5971   -6.6174   -1.4379 N   0  0  0  0  0  0  0  0  0  0  0  0
    0.8397   -7.3248   -0.2137 C   0  0  0  0  0  0  0  0  0  0  0  0
    2.1816   -6.9023    0.3750 C   0  0  0  0  0  0  0  0  0  0  0  0
    0.6373   -7.2263   -2.5894 N   0  0  0  0  0  0  0  0  0  0  0  0
    0.4120   -6.2525   -3.4850 C   0  0  0  0  0  0  0  0  0  0  0  0
    0.3635   -6.2693   -4.8915 C   0  0  0  0  0  0  0  0  0  0  0  0
    0.1646   -5.0458   -5.5084 C   0  0  0  0  0  0  0  0  0  0  0  0
   -0.0098   -3.8440   -4.7808 C   0  0  0  0  0  0  0  0  0  0  0  0
   -0.2008   -2.3813   -5.6599 Cl  0  0  0  0  0  0  0  0  0  0  0  0
    0.0773   -4.9689   -7.2274 Cl  0  0  0  0  0  0  0  0  0  0  0  0
    0.5542   -7.4894   -5.6608 C   0  0  0  0  0  0  0  0  0  0  0  0
    1.5292   -7.7239   -6.5743 C   0  0  0  0  0  0  0  0  0  0  0  0
    2.5995   -6.8615   -6.8777 C   0  0  0  0  0  0  0  0  0  0  0  0
    3.4538   -6.1248   -7.0744 N   0  0  0  0  0  0  0  0  0  0  0  0
    1.2845   -9.0308   -7.1597 C   0  0  0  0  0  0  0  0  0  0  0  0
    2.0196   -9.6792   -8.1096 C   0  0  0  0  0  0  0  0  0  0  0  0
    1.6340  -10.9524   -8.5801 C   0  0  0  0  0  0  0  0  0  0  0  0
    1.3259  -11.9873   -8.9650 N   0  0  0  0  0  0  0  0  0  0  0  0
    3.1902   -9.1352   -8.6730 C   0  0  0  0  0  0  0  0  0  0  0  0
    4.1492   -8.7410   -9.1621 N   0  0  0  0  0  0  0  0  0  0  0  0
    0.1764   -9.5599   -6.6284 O   0  0  0  0  0  0  0  0  0  0  0  0
   -0.3852   -8.6704   -5.6523 C   0  0  0  0  0  0  0  0  0  0  0  0
   -1.7792   -8.2378   -6.1192 C   0  0  0  0  0  0  0  0  0  0  0  0
   -0.4569   -9.4189   -4.3224 C   0  0  0  0  0  0  0  0  0  0  0  0
   -1.3043    4.8454    6.0426 H   0  0  0  0  0  0  0  0  0  0  0  0
   -2.4561    6.1718    5.8376 H   0  0  0  0  0  0  0  0  0  0  0  0
   -2.3879    4.8602    4.6434 H   0  0  0  0  0  0  0  0  0  0  0  0
   -1.9461    6.5649    2.7221 H   0  0  0  0  0  0  0  0  0  0  0  0
   -0.7352    7.8285    3.0076 H   0  0  0  0  0  0  0  0  0  0  0  0
   -2.2069    7.7840    3.9828 H   0  0  0  0  0  0  0  0  0  0  0  0
   -2.5414    4.7599    0.6777 H   0  0  0  0  0  0  0  0  0  0  0  0
   -3.9509    4.9925   -1.3243 H   0  0  0  0  0  0  0  0  0  0  0  0
   -1.7345    6.4086   -5.3653 H   0  0  0  0  0  0  0  0  0  0  0  0
   -3.2795    7.0481   -5.9669 H   0  0  0  0  0  0  0  0  0  0  0  0
   -2.3589    7.9821   -4.7681 H   0  0  0  0  0  0  0  0  0  0  0  0
   -0.7673    7.0379   -3.3169 H   0  0  0  0  0  0  0  0  0  0  0  0
    0.6385    6.7771   -1.3498 H   0  0  0  0  0  0  0  0  0  0  0  0
   -0.0786    8.2382    0.7632 H   0  0  0  0  0  0  0  0  0  0  0  0
    1.7051    9.7498    1.5403 H   0  0  0  0  0  0  0  0  0  0  0  0
    6.3913    9.0759    3.4912 H   0  0  0  0  0  0  0  0  0  0  0  0
    5.9950    7.7930    2.3270 H   0  0  0  0  0  0  0  0  0  0  0  0
    5.3954    7.7041    4.0202 H   0  0  0  0  0  0  0  0  0  0  0  0
    4.1372    6.3711    2.5230 H   0  0  0  0  0  0  0  0  0  0  0  0
    2.3870    4.8851    1.7404 H   0  0  0  0  0  0  0  0  0  0  0  0
    1.0590   -2.7459    2.2756 H   0  0  0  0  0  0  0  0  0  0  0  0
    0.1007   -4.9060    1.5940 H   0  0  0  0  0  0  0  0  0  0  0  0
   -4.5311   -6.5100    0.7715 H   0  0  0  0  0  0  0  0  0  0  0  0
   -4.2820   -5.0326    1.7326 H   0  0  0  0  0  0  0  0  0  0  0  0
   -4.6267   -4.9244   -0.0214 H   0  0  0  0  0  0  0  0  0  0  0  0
   -3.4769   -2.9265    0.3518 H   0  0  0  0  0  0  0  0  0  0  0  0
   -2.5429   -0.7890    1.0724 H   0  0  0  0  0  0  0  0  0  0  0  0
   -0.3411   -1.4449    4.5004 H   0  0  0  0  0  0  0  0  0  0  0  0
    1.2678   -1.1677    6.3528 H   0  0  0  0  0  0  0  0  0  0  0  0
    4.4485    2.2711    5.6662 H   0  0  0  0  0  0  0  0  0  0  0  0
    5.4996    1.6428    6.9565 H   0  0  0  0  0  0  0  0  0  0  0  0
    5.5963    0.9305    5.3327 H   0  0  0  0  0  0  0  0  0  0  0  0
    3.8508    1.0590    3.7701 H   0  0  0  0  0  0  0  0  0  0  0  0
    2.2729    0.7445    1.9321 H   0  0  0  0  0  0  0  0  0  0  0  0
   -3.0100    0.9821   -0.3395 H   0  0  0  0  0  0  0  0  0  0  0  0
   -2.6911    1.9394   -1.8091 H   0  0  0  0  0  0  0  0  0  0  0  0
   -5.1952    0.2539   -1.2945 H   0  0  0  0  0  0  0  0  0  0  0  0
   -4.8494    1.1462   -2.7779 H   0  0  0  0  0  0  0  0  0  0  0  0
   -5.0946    2.0211   -1.2596 H   0  0  0  0  0  0  0  0  0  0  0  0
   -3.7900   -2.1934   -2.2088 H   0  0  0  0  0  0  0  0  0  0  0  0
   -4.1817   -2.5300   -3.9114 H   0  0  0  0  0  0  0  0  0  0  0  0
   -4.2527   -4.6294   -2.5803 H   0  0  0  0  0  0  0  0  0  0  0  0
   -2.9414   -4.6940   -3.7639 H   0  0  0  0  0  0  0  0  0  0  0  0
   -2.5735   -4.3810   -2.0669 H   0  0  0  0  0  0  0  0  0  0  0  0
    0.0249   -7.0917    0.4762 H   0  0  0  0  0  0  0  0  0  0  0  0
    0.8293   -8.3887   -0.4537 H   0  0  0  0  0  0  0  0  0  0  0  0
    2.9932   -7.1817   -0.2921 H   0  0  0  0  0  0  0  0  0  0  0  0
    2.3347   -7.3874    1.3347 H   0  0  0  0  0  0  0  0  0  0  0  0
    2.2011   -5.8239    0.5116 H   0  0  0  0  0  0  0  0  0  0  0  0
   -2.2147   -7.5615   -5.3891 H   0  0  0  0  0  0  0  0  0  0  0  0
   -1.7157   -7.7298   -7.0792 H   0  0  0  0  0  0  0  0  0  0  0  0
   -2.4116   -9.1148   -6.2266 H   0  0  0  0  0  0  0  0  0  0  0  0
    0.5431   -9.6539   -3.9680 H   0  0  0  0  0  0  0  0  0  0  0  0
   -0.9559   -8.8120   -3.5755 H   0  0  0  0  0  0  0  0  0  0  0  0
   -1.0080  -10.3434   -4.4737 H   0  0  0  0  0  0  0  0  0  0  0  0
  1  2  1  0  0  0  0
  2  3  1  0  0  0  0
  2  4  1  0  0  0  0
  4  5  2  0  0  0  0
  5  6  1  0  0  0  0
  6  7  3  0  0  0  0
  5  8  1  0  0  0  0
  8  9  2  0  0  0  0
  9 10  1  0  0  0  0
 10 11  3  0  0  0  0
  9 12  1  0  0  0  0
 12 13  3  0  0  0  0
  8 14  1  0  0  0  0
  4 15  1  0  0  0  0
 15 16  2  0  0  0  0
 16 17  1  0  0  0  0
 17 18  1  0  0  0  0
 18 19  2  0  0  0  0
 19 20  1  0  0  0  0
 20 21  2  0  0  0  0
 21 22  1  0  0  0  0
 22 23  1  0  0  0  0
 21 24  1  0  0  0  0
 24 25  2  0  0  0  0
 17 26  1  0  0  0  0
 26 27  2  0  0  0  0
 27 28  1  0  0  0  0
 28 29  2  0  0  0  0
 29 30  1  0  0  0  0
 30 31  1  0  0  0  0
 29 32  1  0  0  0  0
 32 33  2  0  0  0  0
 16 34  1  0  0  0  0
 34 35  1  0  0  0  0
 35 36  1  0  0  0  0
 36 37  2  0  0  0  0
 37 38  1  0  0  0  0
 38 39  1  0  0  0  0
 39 40  2  0  0  0  0
 40 41  1  0  0  0  0
 41 42  2  0  0  0  0
 42 43  1  0  0  0  0
 43 44  1  0  0  0  0
 42 45  1  0  0  0  0
 45 46  2  0  0  0  0
 38 47  1  0  0  0  0
 47 48  2  0  0  0  0
 48 49  1  0  0  0  0
 49 50  2  0  0  0  0
 50 51  1  0  0  0  0
 51 52  1  0  0  0  0
 50 53  1  0  0  0  0
 53 54  2  0  0  0  0
 37 55  1  0  0  0  0
 55 56  1  0  0  0  0
 36 57  1  0  0  0  0
 57 58  2  0  0  0  0
 58 59  1  0  0  0  0
 59 60  1  0  0  0  0
 60 61  1  0  0  0  0
 58 62  1  0  0  0  0
 62 63  1  0  0  0  0
 63 64  1  0  0  0  0
 64 65  1  0  0  0  0
 62 66  2  0  0  0  0
 66 67  1  0  0  0  0
 67 68  1  0  0  0  0
 68 69  2  0  0  0  0
 69 70  1  0  0  0  0
 70 71  1  0  0  0  0
 66 72  1  0  0  0  0
 72 73  1  0  0  0  0
 73 74  2  0  0  0  0
 74 75  1  0  0  0  0
 75 76  1  0  0  0  0
 76 77  1  0  0  0  0
 75 78  1  0  0  0  0
 78 79  2  0  0  0  0
 79 80  1  0  0  0  0
 80 81  2  0  0  0  0
 81 82  1  0  0  0  0
 82 83  1  0  0  0  0
 81 84  1  0  0  0  0
 80 85  1  0  0  0  0
 85 86  2  0  0  0  0
 86 87  1  0  0  0  0
 87 88  3  0  0  0  0
 86 89  1  0  0  0  0
 89 90  2  0  0  0  0
 90 91  1  0  0  0  0
 91 92  3  0  0  0  0
 90 93  1  0  0  0  0
 93 94  3  0  0  0  0
 89 95  1  0  0  0  0
 95 96  1  0  0  0  0
 96 97  1  0  0  0  0
 96 98  1  0  0  0  0
 14  2  1  0  0  0  0
 56 15  1  0  0  0  0
 68 57  1  0  0  0  0
 82 72  2  0  0  0  0
 96 85  1  0  0  0  0
 25 18  1  0  0  0  0
 33 26  1  0  0  0  0
 55 34  2  0  0  0  0
 71 67  2  0  0  0  0
 79 73  1  0  0  0  0
 46 39  1  0  0  0  0
 54 47  1  0  0  0  0
  1 99  1  0  0  0  0
  1100  1  0  0  0  0
  1101  1  0  0  0  0
  3102  1  0  0  0  0
  3103  1  0  0  0  0
  3104  1  0  0  0  0
 19105  1  0  0  0  0
 20106  1  0  0  0  0
 23107  1  0  0  0  0
 23108  1  0  0  0  0
 23109  1  0  0  0  0
 24110  1  0  0  0  0
 25111  1  0  0  0  0
 27112  1  0  0  0  0
 28113  1  0  0  0  0
 31114  1  0  0  0  0
 31115  1  0  0  0  0
 31116  1  0  0  0  0
 32117  1  0  0  0  0
 33118  1  0  0  0  0
 40119  1  0  0  0  0
 41120  1  0  0  0  0
 44121  1  0  0  0  0
 44122  1  0  0  0  0
 44123  1  0  0  0  0
 45124  1  0  0  0  0
 46125  1  0  0  0  0
 48126  1  0  0  0  0
 49127  1  0  0  0  0
 52128  1  0  0  0  0
 52129  1  0  0  0  0
 52130  1  0  0  0  0
 53131  1  0  0  0  0
 54132  1  0  0  0  0
 60133  1  0  0  0  0
 60134  1  0  0  0  0
 61135  1  0  0  0  0
 61136  1  0  0  0  0
 61137  1  0  0  0  0
 64138  1  0  0  0  0
 64139  1  0  0  0  0
 65140  1  0  0  0  0
 65141  1  0  0  0  0
 65142  1  0  0  0  0
 76143  1  0  0  0  0
 76144  1  0  0  0  0
 77145  1  0  0  0  0
 77146  1  0  0  0  0
 77147  1  0  0  0  0
 97148  1  0  0  0  0
 97149  1  0  0  0  0
 97150  1  0  0  0  0
 98151  1  0  0  0  0
 98152  1  0  0  0  0
 98153  1  0  0  0  0
M  END
