130

C          6.89110       -4.38770        5.10550
C          5.90380       -5.53780        4.84780
C          5.00610       -5.80060        6.05260
C          5.13210       -5.39670        3.55300
C          5.69590       -6.25630        2.64810
C          5.40350       -6.35420        1.28030
N          5.17080       -6.38220        0.15630
C          6.71970       -7.02080        3.32820
C          7.56550       -7.95370        2.79540
C          7.58670       -8.26190        1.42330
N          7.65610       -8.52810        0.30940
C          8.49910       -8.63550        3.60290
N          9.25840       -9.19710        4.25290
O          6.73410       -6.69440        4.62160
C          3.99990       -4.55700        3.24320
C          3.77500       -3.26910        3.74340
F          4.51300       -2.78260        4.75930
C          2.85010       -2.41570        3.19080
C          2.05200       -2.83690        2.12540
C          2.10600       -4.18450        1.76000
C          3.06630       -5.00850        2.29180
C          1.27470       -1.87790        1.37860
C          1.71180       -0.63100        0.96180
N          2.98870       -0.12780        1.14980
C          3.14910        1.24770        1.37140
C          4.24050        1.92930        0.84200
C          4.39160        3.28620        1.04950
C          3.44510        3.98910        1.78400
S          3.52080        5.72080        2.10630
C          5.07620        6.24660        1.33240
C          2.35180        3.30910        2.31750
C          2.20770        1.95470        2.12100
C          4.10180       -0.97920        1.10170
C          4.15380       -2.02860        0.18510
C          5.20510       -2.92160        0.19000
C          6.23700       -2.77230        1.10800
S          7.58010       -3.92120        1.23220
C          7.76690       -4.53670       -0.46280
C          6.21380       -1.70280        1.99870
C          5.15940       -0.81510        1.99690
C          0.70050        0.03500        0.22210
S          0.58500        1.58960       -0.51420
C         -1.02530        1.20970       -1.09760
C         -1.46960       -0.04090       -0.68630
N         -2.73570       -0.56200       -0.87640
C         -2.87890       -1.95570       -0.99540
C         -1.97370       -2.69730       -1.74790
C         -2.09900       -4.06960       -1.85240
C         -3.14290       -4.72160       -1.21060
S         -3.41000       -6.46280       -1.26230
C         -2.04230       -7.09070       -2.27700
C         -4.06140       -3.97780       -0.46860
C         -3.93160       -2.61300       -0.35840
C         -3.87060        0.25650       -0.96010
C         -3.98610        1.41460       -0.18980
C         -5.05420        2.26430       -0.37050
C         -6.04610        1.96600       -1.30250
S         -7.31500        3.17290       -1.54890
C         -8.66930        2.23400       -2.30380
C         -5.97750        0.77730       -2.01550
C         -4.89610       -0.06340       -1.84760
C         -0.45720       -0.70700        0.05350
S         -0.33170       -2.26590        0.79390
C         -1.77440        2.17390       -1.86490
C         -1.81450        3.53100       -1.53030
F         -1.01940        3.99520       -0.54510
C         -2.69970        4.41200       -2.10280
C         -3.60100        3.97170       -3.08030
C         -3.45830        2.65090       -3.53780
C         -2.57770        1.78190       -2.94520
C         -4.66630        4.80410       -3.56830
C         -5.79830        4.39160       -4.22270
C         -6.19860        3.09510       -4.57510
N         -6.54650        2.03980       -4.86450
C         -6.60770        5.55830       -4.50690
C         -7.84840        5.61370       -5.08050
C         -8.48750        6.85330       -5.29260
N         -9.01040        7.85760       -5.47230
C         -8.58580        4.47280       -5.44300
N         -9.24640        3.57750       -5.72300
O         -5.97050        6.65940       -4.10370
C         -4.77240        6.30680       -3.39130
C         -3.61070        7.06680       -4.03200
C         -5.01800        6.73500       -1.93590
H          7.65340       -4.75510        5.78860
H          6.40320       -3.53170        5.55230
H          7.37000       -4.09000        4.17400
H          4.36320       -6.65850        5.86610
H          5.62440       -6.00920        6.92120
H          4.39040       -4.92900        6.25220
H          2.76650       -1.41550        3.58510
H          1.42960       -4.55780        1.00660
H          3.11700       -6.03310        1.95960
H          4.97290        1.39120        0.25880
H          5.24730        3.78290        0.62200
H          5.91180        5.71620        1.77950
H          5.03220        6.08560        0.25920
H          5.16050        7.30850        1.54150
H          1.62170        3.85760        2.89190
H          1.36550        1.43460        2.55330
H          3.35410       -2.15310       -0.52950
H          5.20830       -3.73980       -0.51200
H          7.76450       -3.69350       -1.14640
H          6.97680       -5.24570       -0.69720
H          8.72770       -5.04140       -0.48850
H          7.02200       -1.58380        2.70350
H          5.14230        0.00310        2.70120
H         -1.16630       -2.19500       -2.26110
H         -1.37970       -4.61310       -2.44300
H         -2.10130       -6.67720       -3.27950
H         -1.09170       -6.85830       -1.80620
H         -2.17990       -8.16680       -2.31560
H         -4.87150       -4.49070        0.02620
H         -4.63970       -2.04340        0.22420
H         -3.22970        1.65110        0.54340
H         -5.13270        3.16980        0.21150
H         -8.87130        1.35530       -1.69890
H         -8.42070        1.96720       -3.32780
H         -9.52800        2.89850       -2.29880
H         -6.73670        0.51600       -2.73330
H         -4.83320       -0.96880       -2.43220
H         -2.70990        5.42030       -1.72930
H         -4.05570        2.30270       -4.36310
H         -2.50360        0.76910       -3.30810
H         -3.54180        6.81530       -5.08840
H         -3.79030        8.13470       -3.94080
H         -2.67120        6.81500       -3.55090
H         -5.66180        6.01450       -1.43490
H         -4.09360        6.84090       -1.37990
H         -5.52100        7.69930       -1.95280
