
  xtb     02092200473D
 energy: -387.067464249183 gnorm: 0.000778798492 xtb: 6.4.1 (unknown)
226246  0     0  0            999 V2000
    1.0730  -10.6020    5.8373 C   0  0  0  0  0  0  0  0  0  0  0  0
    0.1256  -11.4174    6.4000 C   0  0  0  0  0  0  0  0  0  0  0  0
   -1.3256  -11.1786    6.4138 C   0  0  0  0  0  0  0  0  0  0  0  0
   -1.9388  -10.2416    5.9440 O   0  0  0  0  0  0  0  0  0  0  0  0
   -1.9163  -12.3344    7.1222 C   0  0  0  0  0  0  0  0  0  0  0  0
   -3.2459  -12.5791    7.3938 C   0  0  0  0  0  0  0  0  0  0  0  0
   -3.5488  -13.7490    8.0770 C   0  0  0  0  0  0  0  0  0  0  0  0
   -5.3622  -14.1463    8.4811 Br  0  0  0  0  0  0  0  0  0  0  0  0
   -2.5584  -14.6380    8.4721 C   0  0  0  0  0  0  0  0  0  0  0  0
   -1.2244  -14.3807    8.1937 C   0  0  0  0  0  0  0  0  0  0  0  0
   -0.8950  -13.2176    7.5118 C   0  0  0  0  0  0  0  0  0  0  0  0
    0.3907  -12.6704    7.0810 C   0  0  0  0  0  0  0  0  0  0  0  0
    1.6097  -13.2579    7.3078 C   0  0  0  0  0  0  0  0  0  0  0  0
    2.8646  -12.7420    6.9227 C   0  0  0  0  0  0  0  0  0  0  0  0
    3.9270  -12.3984    6.6508 N   0  0  0  0  0  0  0  0  0  0  0  0
    1.7819  -14.4863    7.9798 C   0  0  0  0  0  0  0  0  0  0  0  0
    1.9943  -15.4790    8.5163 N   0  0  0  0  0  0  0  0  0  0  0  0
    0.9444   -9.3673    5.1783 C   0  0  0  0  0  0  0  0  0  0  0  0
    2.0519   -8.6782    4.7071 C   0  0  0  0  0  0  0  0  0  0  0  0
    1.7554   -7.4488    4.1080 C   0  0  0  0  0  0  0  0  0  0  0  0
    2.6555   -6.5100    3.5291 C   0  0  0  0  0  0  0  0  0  0  0  0
    4.0793   -6.7132    3.6201 C   0  0  0  0  0  0  0  0  0  0  0  0
    4.7592   -7.2274    4.6931 C   0  0  0  0  0  0  0  0  0  0  0  0
    6.1388   -7.4147    4.5191 C   0  0  0  0  0  0  0  0  0  0  0  0
    6.6213   -7.0692    3.2868 C   0  0  0  0  0  0  0  0  0  0  0  0
    8.2730   -7.3724    2.8138 S   0  0  0  0  0  0  0  0  0  0  0  0
    8.4839   -6.2233    1.4129 C   0  0  0  0  0  0  0  0  0  0  0  0
    8.5596   -4.7837    1.8814 C   0  0  0  0  0  0  0  0  0  0  0  0
    5.2554   -6.3856    2.1792 Se  0  0  0  0  0  2  0  0  0  0  0  0
    2.0706   -5.4181    2.9050 C   0  0  0  0  0  0  0  0  0  0  0  0
    0.6697   -5.1997    2.8619 C   0  0  0  0  0  0  0  0  0  0  0  0
   -0.2243   -6.1250    3.4454 C   0  0  0  0  0  0  0  0  0  0  0  0
   -1.6560   -5.9309    3.3839 C   0  0  0  0  0  0  0  0  0  0  0  0
   -2.3732   -5.4114    2.3385 C   0  0  0  0  0  0  0  0  0  0  0  0
   -3.7528   -5.2351    2.5528 C   0  0  0  0  0  0  0  0  0  0  0  0
   -4.1868   -5.6137    3.7905 C   0  0  0  0  0  0  0  0  0  0  0  0
   -5.7925   -5.5111    4.4722 S   0  0  0  0  0  0  0  0  0  0  0  0
   -6.8414   -5.2236    3.0021 C   0  0  0  0  0  0  0  0  0  0  0  0
   -6.9335   -6.4494    2.1154 C   0  0  0  0  0  0  0  0  0  0  0  0
   -2.8006   -6.3160    4.8432 Se  0  0  0  0  0  2  0  0  0  0  0  0
    0.3533   -7.2219    4.0754 C   0  0  0  0  0  0  0  0  0  0  0  0
   -0.5409   -8.4979    4.8446 S   0  0  0  0  0  0  0  0  0  0  0  0
    0.3554   -3.9816    2.2320 C   0  0  0  0  0  0  0  0  0  0  0  0
    1.4355   -3.2873    1.7526 C   0  0  0  0  0  0  0  0  0  0  0  0
    2.9391   -4.1109    2.1322 S   0  0  0  0  0  0  0  0  0  0  0  0
    1.3241   -2.0398    1.0789 C   0  0  0  0  0  0  0  0  0  0  0  0
    2.2461   -1.2161    0.4438 C   0  0  0  0  0  0  0  0  0  0  0  0
    3.5879   -1.4667    0.2099 N   0  0  0  0  0  0  0  0  0  0  0  0
    4.0537   -2.6936   -0.2563 C   0  0  0  0  0  0  0  0  0  0  0  0
    5.3949   -3.0390   -0.0744 C   0  0  0  0  0  0  0  0  0  0  0  0
    5.8571   -4.2664   -0.4861 C   0  0  0  0  0  0  0  0  0  0  0  0
    4.9918   -5.1965   -1.0552 C   0  0  0  0  0  0  0  0  0  0  0  0
    5.6628   -6.7859   -1.4467 S   0  0  0  0  0  0  0  0  0  0  0  0
    4.2068   -7.8624   -1.3207 C   0  0  0  0  0  0  0  0  0  0  0  0
    3.6699   -4.8440   -1.2834 C   0  0  0  0  0  0  0  0  0  0  0  0
    3.2110   -3.5991   -0.9001 C   0  0  0  0  0  0  0  0  0  0  0  0
    4.4733   -0.3728    0.2973 C   0  0  0  0  0  0  0  0  0  0  0  0
    4.4857    0.4097    1.4463 C   0  0  0  0  0  0  0  0  0  0  0  0
    5.3851    1.4508    1.5751 C   0  0  0  0  0  0  0  0  0  0  0  0
    6.2697    1.7368    0.5440 C   0  0  0  0  0  0  0  0  0  0  0  0
    7.4910    3.0055    0.6348 S   0  0  0  0  0  0  0  0  0  0  0  0
    6.9471    4.0410    2.0238 C   0  0  0  0  0  0  0  0  0  0  0  0
    6.2372    0.9749   -0.6226 C   0  0  0  0  0  0  0  0  0  0  0  0
    5.3514   -0.0717   -0.7439 C   0  0  0  0  0  0  0  0  0  0  0  0
    1.6244   -0.0350   -0.0361 C   0  0  0  0  0  0  0  0  0  0  0  0
    2.2104    1.3607   -0.8634 S   0  0  0  0  0  0  0  0  0  0  0  0
    0.5644    1.9690   -1.0461 C   0  0  0  0  0  0  0  0  0  0  0  0
   -0.3739    1.1533   -0.4270 C   0  0  0  0  0  0  0  0  0  0  0  0
   -1.7347    1.3783   -0.3411 N   0  0  0  0  0  0  0  0  0  0  0  0
   -2.2828    2.6617   -0.2436 C   0  0  0  0  0  0  0  0  0  0  0  0
   -3.5322    2.9192   -0.8075 C   0  0  0  0  0  0  0  0  0  0  0  0
   -4.0882    4.1799   -0.7433 C   0  0  0  0  0  0  0  0  0  0  0  0
   -3.4026    5.2093   -0.1128 C   0  0  0  0  0  0  0  0  0  0  0  0
   -4.0275    6.8646   -0.0282 S   0  0  0  0  0  0  0  0  0  0  0  0
   -5.8212    6.5859    0.1341 C   0  0  0  0  0  0  0  0  0  0  0  0
   -2.1557    4.9597    0.4499 C   0  0  0  0  0  0  0  0  0  0  0  0
   -1.6023    3.6989    0.3942 C   0  0  0  0  0  0  0  0  0  0  0  0
   -2.5899    0.2619   -0.3129 C   0  0  0  0  0  0  0  0  0  0  0  0
   -3.6342    0.1937    0.6093 C   0  0  0  0  0  0  0  0  0  0  0  0
   -4.4609   -0.9060    0.6388 C   0  0  0  0  0  0  0  0  0  0  0  0
   -4.2629   -1.9624   -0.2488 C   0  0  0  0  0  0  0  0  0  0  0  0
   -5.3974   -3.3103   -0.1280 S   0  0  0  0  0  0  0  0  0  0  0  0
   -4.7192   -4.5658   -1.2509 C   0  0  0  0  0  0  0  0  0  0  0  0
   -3.2280   -1.8989   -1.1702 C   0  0  0  0  0  0  0  0  0  0  0  0
   -2.4006   -0.7924   -1.2010 C   0  0  0  0  0  0  0  0  0  0  0  0
    0.2546    0.0190    0.1456 C   0  0  0  0  0  0  0  0  0  0  0  0
   -0.3141   -1.3729    0.9932 S   0  0  0  0  0  0  0  0  0  0  0  0
    0.3869    3.1295   -1.8519 C   0  0  0  0  0  0  0  0  0  0  0  0
    1.3302    4.1302   -2.0286 C   0  0  0  0  0  0  0  0  0  0  0  0
    2.4900    4.2308   -1.2533 N   0  0  0  0  0  0  0  0  0  0  0  0
    3.7417    4.1054   -1.8523 C   0  0  0  0  0  0  0  0  0  0  0  0
    4.8554    4.7670   -1.3433 C   0  0  0  0  0  0  0  0  0  0  0  0
    6.1009    4.5965   -1.9143 C   0  0  0  0  0  0  0  0  0  0  0  0
    6.2563    3.7547   -3.0061 C   0  0  0  0  0  0  0  0  0  0  0  0
    7.8067    3.4072   -3.7793 S   0  0  0  0  0  0  0  0  0  0  0  0
    9.0220    4.2297   -2.7119 C   0  0  0  0  0  0  0  0  0  0  0  0
    5.1375    3.1275   -3.5486 C   0  0  0  0  0  0  0  0  0  0  0  0
    3.8950    3.3039   -2.9846 C   0  0  0  0  0  0  0  0  0  0  0  0
    2.3246    4.5628    0.0983 C   0  0  0  0  0  0  0  0  0  0  0  0
    1.3453    5.4780    0.4874 C   0  0  0  0  0  0  0  0  0  0  0  0
    1.1766    5.7800    1.8209 C   0  0  0  0  0  0  0  0  0  0  0  0
    1.9675    5.1741    2.7949 C   0  0  0  0  0  0  0  0  0  0  0  0
    1.6453    5.6408    4.4687 S   0  0  0  0  0  0  0  0  0  0  0  0
    2.8585    4.6939    5.4320 C   0  0  0  0  0  0  0  0  0  0  0  0
    2.9385    4.2598    2.4098 C   0  0  0  0  0  0  0  0  0  0  0  0
    3.1136    3.9595    1.0726 C   0  0  0  0  0  0  0  0  0  0  0  0
    0.9125    5.0721   -2.9859 C   0  0  0  0  0  0  0  0  0  0  0  0
    1.5507    6.5605   -3.5699 S   0  0  0  0  0  0  0  0  0  0  0  0
    0.0462    6.9008   -4.4209 C   0  0  0  0  0  0  0  0  0  0  0  0
   -0.8642    5.8485   -4.3197 C   0  0  0  0  0  0  0  0  0  0  0  0
   -2.0253    5.6979   -5.0633 N   0  0  0  0  0  0  0  0  0  0  0  0
   -2.1836    4.5462   -5.8357 C   0  0  0  0  0  0  0  0  0  0  0  0
   -3.4539    4.0597   -6.1368 C   0  0  0  0  0  0  0  0  0  0  0  0
   -3.6139    2.9331   -6.9193 C   0  0  0  0  0  0  0  0  0  0  0  0
   -2.5037    2.2626   -7.4131 C   0  0  0  0  0  0  0  0  0  0  0  0
   -2.5851    0.8066   -8.4080 S   0  0  0  0  0  0  0  0  0  0  0  0
   -4.3394    0.6891   -8.8618 C   0  0  0  0  0  0  0  0  0  0  0  0
   -1.2303    2.7419   -7.1117 C   0  0  0  0  0  0  0  0  0  0  0  0
   -1.0699    3.8699   -6.3409 C   0  0  0  0  0  0  0  0  0  0  0  0
   -3.1139    6.5829   -4.9122 C   0  0  0  0  0  0  0  0  0  0  0  0
   -3.6257    7.2681   -6.0120 C   0  0  0  0  0  0  0  0  0  0  0  0
   -4.6988    8.1161   -5.8542 C   0  0  0  0  0  0  0  0  0  0  0  0
   -5.2960    8.2761   -4.6022 C   0  0  0  0  0  0  0  0  0  0  0  0
   -6.6526    9.3964   -4.5131 S   0  0  0  0  0  0  0  0  0  0  0  0
   -7.0288    9.4927   -2.7389 C   0  0  0  0  0  0  0  0  0  0  0  0
   -4.8048    7.5700   -3.5140 C   0  0  0  0  0  0  0  0  0  0  0  0
   -3.7105    6.7371   -3.6673 C   0  0  0  0  0  0  0  0  0  0  0  0
   -0.3453    4.8154   -3.5084 C   0  0  0  0  0  0  0  0  0  0  0  0
   -1.0195    3.3538   -2.8782 S   0  0  0  0  0  0  0  0  0  0  0  0
    0.0001    8.0948   -5.1844 C   0  0  0  0  0  0  0  0  0  0  0  0
   -0.9456    9.0744   -5.2487 C   0  0  0  0  0  0  0  0  0  0  0  0
   -0.9187    9.9993   -6.4122 C   0  0  0  0  0  0  0  0  0  0  0  0
   -0.1005   10.0192   -7.3028 O   0  0  0  0  0  0  0  0  0  0  0  0
   -2.1138   10.8536   -6.2598 C   0  0  0  0  0  0  0  0  0  0  0  0
   -2.5989   11.8100   -7.1266 C   0  0  0  0  0  0  0  0  0  0  0  0
   -3.7464   12.4919   -6.7441 C   0  0  0  0  0  0  0  0  0  0  0  0
   -4.4761   13.8076   -7.9030 Br  0  0  0  0  0  0  0  0  0  0  0  0
   -4.3691   12.2404   -5.5299 C   0  0  0  0  0  0  0  0  0  0  0  0
   -3.8648   11.2843   -4.6621 C   0  0  0  0  0  0  0  0  0  0  0  0
   -2.7375   10.5654   -5.0328 C   0  0  0  0  0  0  0  0  0  0  0  0
   -1.9995    9.4963   -4.3575 C   0  0  0  0  0  0  0  0  0  0  0  0
   -2.1827    9.1282   -3.0468 C   0  0  0  0  0  0  0  0  0  0  0  0
   -1.4173    8.1932   -2.3239 C   0  0  0  0  0  0  0  0  0  0  0  0
   -0.8442    7.4684   -1.6410 N   0  0  0  0  0  0  0  0  0  0  0  0
   -3.1726    9.6893   -2.2158 C   0  0  0  0  0  0  0  0  0  0  0  0
   -3.9715   10.1071   -1.5034 N   0  0  0  0  0  0  0  0  0  0  0  0
    2.1018  -10.9345    5.9061 H   0  0  0  0  0  0  0  0  0  0  0  0
   -4.0098  -11.8828    7.0840 H   0  0  0  0  0  0  0  0  0  0  0  0
   -2.8304  -15.5384    9.0014 H   0  0  0  0  0  0  0  0  0  0  0  0
   -0.4741  -15.0859    8.5105 H   0  0  0  0  0  0  0  0  0  0  0  0
    3.0430   -9.0889    4.7825 H   0  0  0  0  0  0  0  0  0  0  0  0
    4.2750   -7.4182    5.6361 H   0  0  0  0  0  0  0  0  0  0  0  0
    6.7780   -7.8057    5.2916 H   0  0  0  0  0  0  0  0  0  0  0  0
    7.6497   -6.3979    0.7269 H   0  0  0  0  0  0  0  0  0  0  0  0
    9.4121   -6.5361    0.9359 H   0  0  0  0  0  0  0  0  0  0  0  0
    8.7927   -4.1276    1.0453 H   0  0  0  0  0  0  0  0  0  0  0  0
    7.6084   -4.4711    2.3134 H   0  0  0  0  0  0  0  0  0  0  0  0
    9.3374   -4.6733    2.6340 H   0  0  0  0  0  0  0  0  0  0  0  0
   -1.9207   -5.1894    1.3861 H   0  0  0  0  0  0  0  0  0  0  0  0
   -4.3958   -4.8152    1.8005 H   0  0  0  0  0  0  0  0  0  0  0  0
   -6.4517   -4.3578    2.4688 H   0  0  0  0  0  0  0  0  0  0  0  0
   -7.8144   -4.9711    3.4224 H   0  0  0  0  0  0  0  0  0  0  0  0
   -5.9494   -6.7395    1.7542 H   0  0  0  0  0  0  0  0  0  0  0  0
   -7.3566   -7.2853    2.6674 H   0  0  0  0  0  0  0  0  0  0  0  0
   -7.5712   -6.2347    1.2602 H   0  0  0  0  0  0  0  0  0  0  0  0
   -0.6456   -3.5995    2.1522 H   0  0  0  0  0  0  0  0  0  0  0  0
    6.0671   -2.3469    0.4082 H   0  0  0  0  0  0  0  0  0  0  0  0
    6.8955   -4.5249   -0.3610 H   0  0  0  0  0  0  0  0  0  0  0  0
    4.5881   -8.8772   -1.2677 H   0  0  0  0  0  0  0  0  0  0  0  0
    3.6646   -7.6183   -0.4103 H   0  0  0  0  0  0  0  0  0  0  0  0
    3.5753   -7.7529   -2.1977 H   0  0  0  0  0  0  0  0  0  0  0  0
    2.9884   -5.5285   -1.7633 H   0  0  0  0  0  0  0  0  0  0  0  0
    2.1820   -3.3333   -1.0915 H   0  0  0  0  0  0  0  0  0  0  0  0
    3.8003    0.1856    2.2509 H   0  0  0  0  0  0  0  0  0  0  0  0
    5.3997    2.0180    2.4921 H   0  0  0  0  0  0  0  0  0  0  0  0
    7.5874    4.9175    2.0046 H   0  0  0  0  0  0  0  0  0  0  0  0
    7.0824    3.5134    2.9638 H   0  0  0  0  0  0  0  0  0  0  0  0
    5.9124    4.3343    1.8746 H   0  0  0  0  0  0  0  0  0  0  0  0
    6.9132    1.2127   -1.4287 H   0  0  0  0  0  0  0  0  0  0  0  0
    5.3324   -0.6641   -1.6458 H   0  0  0  0  0  0  0  0  0  0  0  0
   -4.0609    2.1271   -1.3160 H   0  0  0  0  0  0  0  0  0  0  0  0
   -5.0487    4.3542   -1.2024 H   0  0  0  0  0  0  0  0  0  0  0  0
   -5.9996    5.8539    0.9151 H   0  0  0  0  0  0  0  0  0  0  0  0
   -6.2421    7.5457    0.4171 H   0  0  0  0  0  0  0  0  0  0  0  0
   -6.2516    6.2557   -0.8072 H   0  0  0  0  0  0  0  0  0  0  0  0
   -1.6291    5.7637    0.9370 H   0  0  0  0  0  0  0  0  0  0  0  0
   -0.6415    3.5168    0.8520 H   0  0  0  0  0  0  0  0  0  0  0  0
   -3.7854    1.0063    1.3036 H   0  0  0  0  0  0  0  0  0  0  0  0
   -5.2659   -0.9645    1.3552 H   0  0  0  0  0  0  0  0  0  0  0  0
   -4.7779   -4.2188   -2.2784 H   0  0  0  0  0  0  0  0  0  0  0  0
   -3.6966   -4.7987   -0.9688 H   0  0  0  0  0  0  0  0  0  0  0  0
   -5.3466   -5.4429   -1.1239 H   0  0  0  0  0  0  0  0  0  0  0  0
   -3.0579   -2.6952   -1.8767 H   0  0  0  0  0  0  0  0  0  0  0  0
   -1.6033   -0.7404   -1.9280 H   0  0  0  0  0  0  0  0  0  0  0  0
    4.7427    5.4278   -0.4966 H   0  0  0  0  0  0  0  0  0  0  0  0
    6.9411    5.1266   -1.4971 H   0  0  0  0  0  0  0  0  0  0  0  0
    8.8971    5.3073   -2.7668 H   0  0  0  0  0  0  0  0  0  0  0  0
    9.9933    3.9521   -3.1091 H   0  0  0  0  0  0  0  0  0  0  0  0
    8.9192    3.8682   -1.6928 H   0  0  0  0  0  0  0  0  0  0  0  0
    5.2589    2.4910   -4.4117 H   0  0  0  0  0  0  0  0  0  0  0  0
    3.0349    2.8050   -3.4061 H   0  0  0  0  0  0  0  0  0  0  0  0
    0.7277    5.9606   -0.2544 H   0  0  0  0  0  0  0  0  0  0  0  0
    0.4339    6.5007    2.1272 H   0  0  0  0  0  0  0  0  0  0  0  0
    3.8668    4.9727    5.1388 H   0  0  0  0  0  0  0  0  0  0  0  0
    2.6877    4.9715    6.4675 H   0  0  0  0  0  0  0  0  0  0  0  0
    2.6877    3.6288    5.3050 H   0  0  0  0  0  0  0  0  0  0  0  0
    3.5568    3.7651    3.1424 H   0  0  0  0  0  0  0  0  0  0  0  0
    3.8573    3.2373    0.7710 H   0  0  0  0  0  0  0  0  0  0  0  0
   -4.3270    4.5640   -5.7509 H   0  0  0  0  0  0  0  0  0  0  0  0
   -4.6131    2.5853   -7.1265 H   0  0  0  0  0  0  0  0  0  0  0  0
   -4.9398    0.4494   -7.9888 H   0  0  0  0  0  0  0  0  0  0  0  0
   -4.6620    1.6191   -9.3204 H   0  0  0  0  0  0  0  0  0  0  0  0
   -4.4015   -0.1199   -9.5829 H   0  0  0  0  0  0  0  0  0  0  0  0
   -0.3681    2.2240   -7.5027 H   0  0  0  0  0  0  0  0  0  0  0  0
   -0.0760    4.2402   -6.1402 H   0  0  0  0  0  0  0  0  0  0  0  0
   -3.1673    7.1363   -6.9807 H   0  0  0  0  0  0  0  0  0  0  0  0
   -5.0900    8.6679   -6.6955 H   0  0  0  0  0  0  0  0  0  0  0  0
   -7.7767   10.2740   -2.6450 H   0  0  0  0  0  0  0  0  0  0  0  0
   -6.1356    9.7627   -2.1800 H   0  0  0  0  0  0  0  0  0  0  0  0
   -7.4415    8.5483   -2.3956 H   0  0  0  0  0  0  0  0  0  0  0  0
   -5.2481    7.6718   -2.5383 H   0  0  0  0  0  0  0  0  0  0  0  0
   -3.3247    6.1899   -2.8196 H   0  0  0  0  0  0  0  0  0  0  0  0
    0.8543    8.2566   -5.8395 H   0  0  0  0  0  0  0  0  0  0  0  0
   -2.0990   12.0128   -8.0610 H   0  0  0  0  0  0  0  0  0  0  0  0
   -5.2567   12.7915   -5.2602 H   0  0  0  0  0  0  0  0  0  0  0  0
   -4.3621   11.1168   -3.7229 H   0  0  0  0  0  0  0  0  0  0  0  0
  1  2  2  0  0  0  0
  2  3  1  0  0  0  0
  3  4  2  0  0  0  0
  3  5  1  0  0  0  0
  5  6  2  0  0  0  0
  6  7  1  0  0  0  0
  7  8  1  0  0  0  0
  7  9  2  0  0  0  0
  9 10  1  0  0  0  0
 10 11  2  0  0  0  0
 11 12  1  0  0  0  0
 12 13  2  0  0  0  0
 13 14  1  0  0  0  0
 14 15  3  0  0  0  0
 13 16  1  0  0  0  0
 16 17  3  0  0  0  0
  1 18  1  0  0  0  0
 18 19  2  0  0  0  0
 19 20  1  0  0  0  0
 20 21  2  0  0  0  0
 21 22  1  0  0  0  0
 22 23  2  0  0  0  0
 23 24  1  0  0  0  0
 24 25  2  0  0  0  0
 25 26  1  0  0  0  0
 26 27  1  0  0  0  0
 27 28  1  0  0  0  0
 25 29  1  0  0  0  0
 21 30  1  0  0  0  0
 30 31  2  0  0  0  0
 31 32  1  0  0  0  0
 32 33  1  0  0  0  0
 33 34  2  0  0  0  0
 34 35  1  0  0  0  0
 35 36  2  0  0  0  0
 36 37  1  0  0  0  0
 37 38  1  0  0  0  0
 38 39  1  0  0  0  0
 36 40  1  0  0  0  0
 32 41  2  0  0  0  0
 41 42  1  0  0  0  0
 31 43  1  0  0  0  0
 43 44  2  0  0  0  0
 44 45  1  0  0  0  0
 44 46  1  0  0  0  0
 46 47  2  0  0  0  0
 47 48  1  0  0  0  0
 48 49  1  0  0  0  0
 49 50  2  0  0  0  0
 50 51  1  0  0  0  0
 51 52  2  0  0  0  0
 52 53  1  0  0  0  0
 53 54  1  0  0  0  0
 52 55  1  0  0  0  0
 55 56  2  0  0  0  0
 48 57  1  0  0  0  0
 57 58  2  0  0  0  0
 58 59  1  0  0  0  0
 59 60  2  0  0  0  0
 60 61  1  0  0  0  0
 61 62  1  0  0  0  0
 60 63  1  0  0  0  0
 63 64  2  0  0  0  0
 47 65  1  0  0  0  0
 65 66  1  0  0  0  0
 66 67  1  0  0  0  0
 67 68  2  0  0  0  0
 68 69  1  0  0  0  0
 69 70  1  0  0  0  0
 70 71  2  0  0  0  0
 71 72  1  0  0  0  0
 72 73  2  0  0  0  0
 73 74  1  0  0  0  0
 74 75  1  0  0  0  0
 73 76  1  0  0  0  0
 76 77  2  0  0  0  0
 69 78  1  0  0  0  0
 78 79  2  0  0  0  0
 79 80  1  0  0  0  0
 80 81  2  0  0  0  0
 81 82  1  0  0  0  0
 82 83  1  0  0  0  0
 81 84  1  0  0  0  0
 84 85  2  0  0  0  0
 68 86  1  0  0  0  0
 86 87  1  0  0  0  0
 67 88  1  0  0  0  0
 88 89  2  0  0  0  0
 89 90  1  0  0  0  0
 90 91  1  0  0  0  0
 91 92  2  0  0  0  0
 92 93  1  0  0  0  0
 93 94  2  0  0  0  0
 94 95  1  0  0  0  0
 95 96  1  0  0  0  0
 94 97  1  0  0  0  0
 97 98  2  0  0  0  0
 90 99  1  0  0  0  0
 99100  2  0  0  0  0
100101  1  0  0  0  0
101102  2  0  0  0  0
102103  1  0  0  0  0
103104  1  0  0  0  0
102105  1  0  0  0  0
105106  2  0  0  0  0
 89107  1  0  0  0  0
107108  1  0  0  0  0
108109  1  0  0  0  0
109110  2  0  0  0  0
110111  1  0  0  0  0
111112  1  0  0  0  0
112113  2  0  0  0  0
113114  1  0  0  0  0
114115  2  0  0  0  0
115116  1  0  0  0  0
116117  1  0  0  0  0
115118  1  0  0  0  0
118119  2  0  0  0  0
111120  1  0  0  0  0
120121  2  0  0  0  0
121122  1  0  0  0  0
122123  2  0  0  0  0
123124  1  0  0  0  0
124125  1  0  0  0  0
123126  1  0  0  0  0
126127  2  0  0  0  0
110128  1  0  0  0  0
128129  1  0  0  0  0
109130  1  0  0  0  0
130131  2  0  0  0  0
131132  1  0  0  0  0
132133  2  0  0  0  0
132134  1  0  0  0  0
134135  2  0  0  0  0
135136  1  0  0  0  0
136137  1  0  0  0  0
136138  2  0  0  0  0
138139  1  0  0  0  0
139140  2  0  0  0  0
140141  1  0  0  0  0
141142  2  0  0  0  0
142143  1  0  0  0  0
143144  3  0  0  0  0
142145  1  0  0  0  0
145146  3  0  0  0  0
 12  2  1  0  0  0  0
 42 18  1  0  0  0  0
 87 46  1  0  0  0  0
129 88  1  0  0  0  0
141131  1  0  0  0  0
 11  5  1  0  0  0  0
 41 20  1  0  0  0  0
 56 49  1  0  0  0  0
 64 57  1  0  0  0  0
 86 65  2  0  0  0  0
 98 91  1  0  0  0  0
106 99  1  0  0  0  0
128107  2  0  0  0  0
140134  1  0  0  0  0
 29 22  1  0  0  0  0
 45 30  1  0  0  0  0
 77 70  1  0  0  0  0
 85 78  1  0  0  0  0
119112  1  0  0  0  0
127120  1  0  0  0  0
 40 33  1  0  0  0  0
  1147  1  0  0  0  0
  6148  1  0  0  0  0
  9149  1  0  0  0  0
 10150  1  0  0  0  0
 19151  1  0  0  0  0
 23152  1  0  0  0  0
 24153  1  0  0  0  0
 27154  1  0  0  0  0
 27155  1  0  0  0  0
 28156  1  0  0  0  0
 28157  1  0  0  0  0
 28158  1  0  0  0  0
 34159  1  0  0  0  0
 35160  1  0  0  0  0
 38161  1  0  0  0  0
 38162  1  0  0  0  0
 39163  1  0  0  0  0
 39164  1  0  0  0  0
 39165  1  0  0  0  0
 43166  1  0  0  0  0
 50167  1  0  0  0  0
 51168  1  0  0  0  0
 54169  1  0  0  0  0
 54170  1  0  0  0  0
 54171  1  0  0  0  0
 55172  1  0  0  0  0
 56173  1  0  0  0  0
 58174  1  0  0  0  0
 59175  1  0  0  0  0
 62176  1  0  0  0  0
 62177  1  0  0  0  0
 62178  1  0  0  0  0
 63179  1  0  0  0  0
 64180  1  0  0  0  0
 71181  1  0  0  0  0
 72182  1  0  0  0  0
 75183  1  0  0  0  0
 75184  1  0  0  0  0
 75185  1  0  0  0  0
 76186  1  0  0  0  0
 77187  1  0  0  0  0
 79188  1  0  0  0  0
 80189  1  0  0  0  0
 83190  1  0  0  0  0
 83191  1  0  0  0  0
 83192  1  0  0  0  0
 84193  1  0  0  0  0
 85194  1  0  0  0  0
 92195  1  0  0  0  0
 93196  1  0  0  0  0
 96197  1  0  0  0  0
 96198  1  0  0  0  0
 96199  1  0  0  0  0
 97200  1  0  0  0  0
 98201  1  0  0  0  0
100202  1  0  0  0  0
101203  1  0  0  0  0
104204  1  0  0  0  0
104205  1  0  0  0  0
104206  1  0  0  0  0
105207  1  0  0  0  0
106208  1  0  0  0  0
113209  1  0  0  0  0
114210  1  0  0  0  0
117211  1  0  0  0  0
117212  1  0  0  0  0
117213  1  0  0  0  0
118214  1  0  0  0  0
119215  1  0  0  0  0
121216  1  0  0  0  0
122217  1  0  0  0  0
125218  1  0  0  0  0
125219  1  0  0  0  0
125220  1  0  0  0  0
126221  1  0  0  0  0
127222  1  0  0  0  0
130223  1  0  0  0  0
135224  1  0  0  0  0
138225  1  0  0  0  0
139226  1  0  0  0  0
M  END
