208

C         -5.94680       -0.28970       -6.82350
C         -6.86490        0.20520       -5.94450
C         -6.58210        0.38780       -4.49450
O         -5.62660        0.01060       -3.85240
C         -7.65670        1.27030       -3.99680
C         -7.79480        1.78970       -2.72610
C         -8.88100        2.62310       -2.50320
Br        -9.10810        3.39200       -0.78390
C         -9.79530        2.91780       -3.50550
C         -9.64300        2.38930       -4.77970
C         -8.55850        1.56130       -5.03430
C         -8.10760        0.88600       -6.24950
C         -8.77330        0.84930       -7.44550
C         -9.99800        1.50520       -7.68580
N        -10.99060        2.02650       -7.93230
C         -8.32980        0.13480       -8.57900
N         -8.03600       -0.43020       -9.53390
C         -4.78360       -0.99170       -6.36180
C         -4.85730       -1.94310       -5.34790
F         -6.05130       -2.45460       -5.01650
C         -3.75200       -2.38100       -4.63090
F         -3.99240       -3.21390       -3.60230
C         -2.48780       -1.82390       -4.83270
C         -2.36520       -0.97800       -5.98180
N         -1.15860       -0.46640       -6.24530
C         -0.99230        0.34430       -7.26530
C          0.38020        0.91790       -7.43680
C          0.49230        2.24860       -6.68820
C         -2.10140        0.67220       -8.09180
N         -3.30450        0.22690       -7.81250
C         -3.47830       -0.59790       -6.76800
C         -1.97840        1.50250       -9.33260
C         -1.59270        0.61770      -10.52120
C         -1.44530       -1.79920       -3.87080
C         -1.31360       -2.53490       -2.68040
N         -1.68660       -3.83170       -2.48540
C         -1.94010       -4.25560       -1.15370
C         -3.05800       -3.78160       -0.47390
C         -3.30880       -4.21410        0.80970
C         -2.42810       -5.08650        1.44980
S         -2.82100       -5.51670        3.11070
C         -1.61180       -6.80030        3.52780
C         -1.31080       -5.55400        0.76900
C         -1.08050       -5.15230       -0.53260
C         -1.74720       -4.78560       -3.50640
C         -2.54960       -5.91720       -3.34030
C         -2.60980       -6.87870       -4.32180
C         -1.87280       -6.74170       -5.49740
S         -2.03590       -8.03570       -6.68400
C         -1.09450       -7.43920       -8.11730
C         -1.06230       -5.62630       -5.66060
C         -0.99940       -4.66150       -4.67470
C         -0.64080       -1.76050       -1.70290
S         -0.46500       -1.88370        0.01820
C          0.28710       -0.29880        0.06420
C          0.39620        0.27360       -1.19310
N          0.78990        1.60680       -1.35450
C         -0.17540        2.53750       -0.89220
C          0.20330        3.66670       -0.17190
C         -0.75780        4.54250        0.28940
C         -2.10850        4.31280        0.03290
S         -3.26920        5.46360        0.70300
C         -4.81470        5.07050       -0.16770
C         -2.48660        3.19150       -0.69340
C         -1.52480        2.31170       -1.14380
C          1.67620        1.93600       -2.37580
C          1.61870        3.16960       -3.02510
C          2.50550        3.46370       -4.03580
C          3.46150        2.53420       -4.43470
S          4.48630        2.98810       -5.80280
C          5.89500        1.85100       -5.67370
C          3.53030        1.30940       -3.78710
C          2.65460        1.02040       -2.76010
C         -0.13700       -0.56150       -2.18970
S         -0.41760       -0.36170       -3.88820
C          0.83720        0.21960        1.26190
C          0.48340       -0.11820        2.56130
N         -0.67120       -0.81940        2.88470
C         -0.54890       -1.94200        3.71370
C         -1.50260       -2.24610        4.67890
C         -1.33680       -3.33750        5.50920
C         -0.20750       -4.13730        5.39500
S          0.09240       -5.57290        6.37600
C         -1.09480       -5.42310        7.73790
C          0.74860       -3.83550        4.42760
C          0.57940       -2.75390        3.59460
C         -1.89240       -0.29120        2.46000
C         -2.05820        1.09210        2.37720
C         -3.23860        1.62570        1.90800
C         -4.26160        0.78620        1.49320
S         -5.74980        1.47020        0.78940
C         -6.39540        2.38300        2.22670
C         -4.11200       -0.58990        1.58740
C         -2.94130       -1.12680        2.08370
C          1.42390        0.36740        3.48630
S          1.54700        0.29470        5.20080
C          3.09830        1.14060        5.14870
C          3.40310        1.58000        3.83820
N          4.47420        2.35290        3.48590
C          4.91460        3.37770        4.34710
C          3.98330        4.24170        4.92250
C          4.38650        5.15870        5.86720
C          5.72150        5.21860        6.25650
S          6.16000        6.33110        7.55400
C          7.37090        5.32930        8.46960
C          6.66180        4.41200        5.62580
C          6.26280        3.49970        4.67000
C          5.06080        2.18220        2.22310
C          5.44620        3.28330        1.46010
C          5.96100        3.09770        0.19660
C          6.10560        1.81380       -0.32770
S          6.73180        1.69830       -1.96930
C          6.84150       -0.09070       -2.26980
C          5.76100        0.71440        0.44700
C          5.24770        0.89950        1.71440
C          2.46320        1.08730        2.91190
S          2.26330        1.23640        1.19370
C          3.88460        1.33110        6.28400
C          3.73850        0.86430        7.56860
C          4.39050        1.61830        8.65500
O          5.26700        2.45340        8.55330
C          3.70280        1.17690        9.89190
C          3.85550        1.64490       11.17950
C          3.05920        1.07330       12.16390
Br         3.22500        1.68130       13.95770
C          2.14470        0.07120       11.87380
C          2.00650       -0.40240       10.57660
C          2.78920        0.15270        9.57790
C          2.91620       -0.15940        8.15400
C          2.55500       -1.35080        7.56770
C          1.68910       -2.28190        8.16300
N          0.93890       -3.03420        8.60100
C          3.10280       -1.78410        6.34300
N          3.61280       -2.19530        5.39930
H         -6.00200       -0.06140       -7.87890
H         -7.08560        1.55140       -1.94720
H        -10.62950        3.56920       -3.29320
H        -10.35870        2.63860       -5.54590
H          1.09590        0.21600       -7.00800
H          0.61170        1.06330       -8.49150
H          1.49140        2.65920       -6.80740
H         -0.22930        2.97040       -7.06460
H          0.30760        2.09430       -5.62780
H         -2.94870        1.95850       -9.53090
H         -1.23650        2.28910       -9.19770
H         -2.34960       -0.14710      -10.67580
H         -0.63680        0.12720      -10.34920
H         -1.51690        1.21890      -11.42350
H         -3.73170       -3.09890       -0.96750
H         -4.19680       -3.89240        1.33180
H         -1.69440       -7.62390        2.82480
H         -0.61100       -6.37950        3.54140
H         -1.87270       -7.13850        4.52540
H         -0.61460       -6.22820        1.23970
H         -0.22200       -5.52740       -1.07000
H         -3.13940       -6.02540       -2.44380
H         -3.23800       -7.74670       -4.19520
H         -1.49030       -6.48310       -8.44680
H         -0.03920       -7.36800       -7.87040
H         -1.24030       -8.18550       -8.89210
H         -0.46530       -5.49540       -6.54870
H         -0.35020       -3.81120       -4.81820
H          1.25020        3.85080        0.01670
H         -0.47260        5.41640        0.85520
H         -5.53000        5.82100        0.15450
H         -4.65430        5.14550       -1.23910
H         -5.17350        4.08240        0.10550
H         -3.52100        2.98420       -0.91260
H         -1.83270        1.44470       -1.70840
H          0.86770        3.89150       -2.74360
H          2.45480        4.41560       -4.54170
H          5.59350        0.84260       -5.94310
H          6.29350        1.89440       -4.66450
H          6.63330        2.21360       -6.38190
H          4.26010        0.57130       -4.07880
H          2.71780        0.06930       -2.25110
H         -2.37690       -1.62110        4.78310
H         -2.09370       -3.54960        6.24610
H         -0.93950       -4.47020        8.23360
H         -2.11060       -5.52950        7.36760
H         -0.86230       -6.23710        8.41740
H          1.62740       -4.45590        4.34160
H          1.32340       -2.53010        2.84480
H         -1.25890        1.75190        2.68170
H         -3.35900        2.69670        1.87000
H         -6.62990        1.67600        3.01680
H         -7.29730        2.88630        1.89230
H         -5.66220        3.10780        2.56690
H         -4.91300       -1.23560        1.26150
H         -2.81580       -2.19450        2.16520
H          2.94250        4.16260        4.64530
H          3.67130        5.81870        6.33240
H          8.33610        5.34340        7.97220
H          7.45780        5.78810        9.44930
H          6.98190        4.31930        8.55860
H          7.70450        4.47920        5.89130
H          6.98500        2.85220        4.19510
H          5.32320        4.27920        1.85860
H          6.24500        3.94620       -0.40660
H          7.25100       -0.19900       -3.26970
H          5.85170       -0.53520       -2.22340
H          7.51480       -0.54620       -1.54970
H          5.88640       -0.29140        0.08190
H          4.98780        0.04230        2.31810
H          4.71060        2.02500        6.17850
H          4.56720        2.42350       11.40590
H          1.53840       -0.34330       12.66450
H          1.29070       -1.18020       10.36540
