
  xtb     02062203193D
 energy: -358.584680782553 gnorm: 0.000475805927 xtb: 6.4.1 (unknown)
208225  0     0  0            999 V2000
   -5.9468   -0.2897   -6.8235 C   0  0  0  0  0  0  0  0  0  0  0  0
   -6.8649    0.2052   -5.9445 C   0  0  0  0  0  0  0  0  0  0  0  0
   -6.5821    0.3878   -4.4945 C   0  0  0  0  0  0  0  0  0  0  0  0
   -5.6266    0.0106   -3.8524 O   0  0  0  0  0  0  0  0  0  0  0  0
   -7.6567    1.2703   -3.9968 C   0  0  0  0  0  0  0  0  0  0  0  0
   -7.7948    1.7897   -2.7261 C   0  0  0  0  0  0  0  0  0  0  0  0
   -8.8810    2.6231   -2.5032 C   0  0  0  0  0  0  0  0  0  0  0  0
   -9.1081    3.3920   -0.7839 Br  0  0  0  0  0  0  0  0  0  0  0  0
   -9.7953    2.9178   -3.5055 C   0  0  0  0  0  0  0  0  0  0  0  0
   -9.6430    2.3893   -4.7797 C   0  0  0  0  0  0  0  0  0  0  0  0
   -8.5585    1.5613   -5.0343 C   0  0  0  0  0  0  0  0  0  0  0  0
   -8.1076    0.8860   -6.2495 C   0  0  0  0  0  0  0  0  0  0  0  0
   -8.7733    0.8493   -7.4455 C   0  0  0  0  0  0  0  0  0  0  0  0
   -9.9980    1.5052   -7.6858 C   0  0  0  0  0  0  0  0  0  0  0  0
  -10.9906    2.0265   -7.9323 N   0  0  0  0  0  0  0  0  0  0  0  0
   -8.3298    0.1348   -8.5790 C   0  0  0  0  0  0  0  0  0  0  0  0
   -8.0360   -0.4302   -9.5339 N   0  0  0  0  0  0  0  0  0  0  0  0
   -4.7836   -0.9917   -6.3618 C   0  0  0  0  0  0  0  0  0  0  0  0
   -4.8573   -1.9431   -5.3479 C   0  0  0  0  0  0  0  0  0  0  0  0
   -6.0513   -2.4546   -5.0165 F   0  0  0  0  0  0  0  0  0  0  0  0
   -3.7520   -2.3810   -4.6309 C   0  0  0  0  0  0  0  0  0  0  0  0
   -3.9924   -3.2139   -3.6023 F   0  0  0  0  0  0  0  0  0  0  0  0
   -2.4878   -1.8239   -4.8327 C   0  0  0  0  0  0  0  0  0  0  0  0
   -2.3652   -0.9780   -5.9818 C   0  0  0  0  0  0  0  0  0  0  0  0
   -1.1586   -0.4664   -6.2453 N   0  0  0  0  0  0  0  0  0  0  0  0
   -0.9923    0.3443   -7.2653 C   0  0  0  0  0  0  0  0  0  0  0  0
    0.3802    0.9179   -7.4368 C   0  0  0  0  0  0  0  0  0  0  0  0
    0.4923    2.2486   -6.6882 C   0  0  0  0  0  0  0  0  0  0  0  0
   -2.1014    0.6722   -8.0918 C   0  0  0  0  0  0  0  0  0  0  0  0
   -3.3045    0.2269   -7.8125 N   0  0  0  0  0  0  0  0  0  0  0  0
   -3.4783   -0.5979   -6.7680 C   0  0  0  0  0  0  0  0  0  0  0  0
   -1.9784    1.5025   -9.3326 C   0  0  0  0  0  0  0  0  0  0  0  0
   -1.5927    0.6177  -10.5212 C   0  0  0  0  0  0  0  0  0  0  0  0
   -1.4453   -1.7992   -3.8708 C   0  0  0  0  0  0  0  0  0  0  0  0
   -1.3136   -2.5349   -2.6804 C   0  0  0  0  0  0  0  0  0  0  0  0
   -1.6866   -3.8317   -2.4854 N   0  0  0  0  0  0  0  0  0  0  0  0
   -1.9401   -4.2556   -1.1537 C   0  0  0  0  0  0  0  0  0  0  0  0
   -3.0580   -3.7816   -0.4739 C   0  0  0  0  0  0  0  0  0  0  0  0
   -3.3088   -4.2141    0.8097 C   0  0  0  0  0  0  0  0  0  0  0  0
   -2.4281   -5.0865    1.4498 C   0  0  0  0  0  0  0  0  0  0  0  0
   -2.8210   -5.5167    3.1107 S   0  0  0  0  0  0  0  0  0  0  0  0
   -1.6118   -6.8003    3.5278 C   0  0  0  0  0  0  0  0  0  0  0  0
   -1.3108   -5.5540    0.7690 C   0  0  0  0  0  0  0  0  0  0  0  0
   -1.0805   -5.1523   -0.5326 C   0  0  0  0  0  0  0  0  0  0  0  0
   -1.7472   -4.7856   -3.5064 C   0  0  0  0  0  0  0  0  0  0  0  0
   -2.5496   -5.9172   -3.3403 C   0  0  0  0  0  0  0  0  0  0  0  0
   -2.6098   -6.8787   -4.3218 C   0  0  0  0  0  0  0  0  0  0  0  0
   -1.8728   -6.7417   -5.4974 C   0  0  0  0  0  0  0  0  0  0  0  0
   -2.0359   -8.0357   -6.6840 S   0  0  0  0  0  0  0  0  0  0  0  0
   -1.0945   -7.4392   -8.1173 C   0  0  0  0  0  0  0  0  0  0  0  0
   -1.0623   -5.6263   -5.6606 C   0  0  0  0  0  0  0  0  0  0  0  0
   -0.9994   -4.6615   -4.6747 C   0  0  0  0  0  0  0  0  0  0  0  0
   -0.6408   -1.7605   -1.7029 C   0  0  0  0  0  0  0  0  0  0  0  0
   -0.4650   -1.8837    0.0182 S   0  0  0  0  0  0  0  0  0  0  0  0
    0.2871   -0.2988    0.0642 C   0  0  0  0  0  0  0  0  0  0  0  0
    0.3962    0.2736   -1.1931 C   0  0  0  0  0  0  0  0  0  0  0  0
    0.7899    1.6068   -1.3545 N   0  0  0  0  0  0  0  0  0  0  0  0
   -0.1754    2.5375   -0.8922 C   0  0  0  0  0  0  0  0  0  0  0  0
    0.2033    3.6667   -0.1719 C   0  0  0  0  0  0  0  0  0  0  0  0
   -0.7578    4.5425    0.2894 C   0  0  0  0  0  0  0  0  0  0  0  0
   -2.1085    4.3128    0.0329 C   0  0  0  0  0  0  0  0  0  0  0  0
   -3.2692    5.4636    0.7030 S   0  0  0  0  0  0  0  0  0  0  0  0
   -4.8147    5.0705   -0.1677 C   0  0  0  0  0  0  0  0  0  0  0  0
   -2.4866    3.1915   -0.6934 C   0  0  0  0  0  0  0  0  0  0  0  0
   -1.5248    2.3117   -1.1438 C   0  0  0  0  0  0  0  0  0  0  0  0
    1.6762    1.9360   -2.3758 C   0  0  0  0  0  0  0  0  0  0  0  0
    1.6187    3.1696   -3.0251 C   0  0  0  0  0  0  0  0  0  0  0  0
    2.5055    3.4637   -4.0358 C   0  0  0  0  0  0  0  0  0  0  0  0
    3.4615    2.5342   -4.4347 C   0  0  0  0  0  0  0  0  0  0  0  0
    4.4863    2.9881   -5.8028 S   0  0  0  0  0  0  0  0  0  0  0  0
    5.8950    1.8510   -5.6737 C   0  0  0  0  0  0  0  0  0  0  0  0
    3.5303    1.3094   -3.7871 C   0  0  0  0  0  0  0  0  0  0  0  0
    2.6546    1.0204   -2.7601 C   0  0  0  0  0  0  0  0  0  0  0  0
   -0.1370   -0.5615   -2.1897 C   0  0  0  0  0  0  0  0  0  0  0  0
   -0.4176   -0.3617   -3.8882 S   0  0  0  0  0  0  0  0  0  0  0  0
    0.8372    0.2196    1.2619 C   0  0  0  0  0  0  0  0  0  0  0  0
    0.4834   -0.1182    2.5613 C   0  0  0  0  0  0  0  0  0  0  0  0
   -0.6712   -0.8194    2.8847 N   0  0  0  0  0  0  0  0  0  0  0  0
   -0.5489   -1.9420    3.7137 C   0  0  0  0  0  0  0  0  0  0  0  0
   -1.5026   -2.2461    4.6789 C   0  0  0  0  0  0  0  0  0  0  0  0
   -1.3368   -3.3375    5.5092 C   0  0  0  0  0  0  0  0  0  0  0  0
   -0.2075   -4.1373    5.3950 C   0  0  0  0  0  0  0  0  0  0  0  0
    0.0924   -5.5729    6.3760 S   0  0  0  0  0  0  0  0  0  0  0  0
   -1.0948   -5.4231    7.7379 C   0  0  0  0  0  0  0  0  0  0  0  0
    0.7486   -3.8355    4.4276 C   0  0  0  0  0  0  0  0  0  0  0  0
    0.5794   -2.7539    3.5946 C   0  0  0  0  0  0  0  0  0  0  0  0
   -1.8924   -0.2912    2.4600 C   0  0  0  0  0  0  0  0  0  0  0  0
   -2.0582    1.0921    2.3772 C   0  0  0  0  0  0  0  0  0  0  0  0
   -3.2386    1.6257    1.9080 C   0  0  0  0  0  0  0  0  0  0  0  0
   -4.2616    0.7862    1.4932 C   0  0  0  0  0  0  0  0  0  0  0  0
   -5.7498    1.4702    0.7894 S   0  0  0  0  0  0  0  0  0  0  0  0
   -6.3954    2.3830    2.2267 C   0  0  0  0  0  0  0  0  0  0  0  0
   -4.1120   -0.5899    1.5874 C   0  0  0  0  0  0  0  0  0  0  0  0
   -2.9413   -1.1268    2.0837 C   0  0  0  0  0  0  0  0  0  0  0  0
    1.4239    0.3674    3.4863 C   0  0  0  0  0  0  0  0  0  0  0  0
    1.5470    0.2947    5.2008 S   0  0  0  0  0  0  0  0  0  0  0  0
    3.0983    1.1406    5.1487 C   0  0  0  0  0  0  0  0  0  0  0  0
    3.4031    1.5800    3.8382 C   0  0  0  0  0  0  0  0  0  0  0  0
    4.4742    2.3529    3.4859 N   0  0  0  0  0  0  0  0  0  0  0  0
    4.9146    3.3777    4.3471 C   0  0  0  0  0  0  0  0  0  0  0  0
    3.9833    4.2417    4.9225 C   0  0  0  0  0  0  0  0  0  0  0  0
    4.3865    5.1587    5.8672 C   0  0  0  0  0  0  0  0  0  0  0  0
    5.7215    5.2186    6.2565 C   0  0  0  0  0  0  0  0  0  0  0  0
    6.1600    6.3311    7.5540 S   0  0  0  0  0  0  0  0  0  0  0  0
    7.3709    5.3293    8.4696 C   0  0  0  0  0  0  0  0  0  0  0  0
    6.6618    4.4120    5.6258 C   0  0  0  0  0  0  0  0  0  0  0  0
    6.2628    3.4997    4.6700 C   0  0  0  0  0  0  0  0  0  0  0  0
    5.0608    2.1822    2.2231 C   0  0  0  0  0  0  0  0  0  0  0  0
    5.4462    3.2833    1.4601 C   0  0  0  0  0  0  0  0  0  0  0  0
    5.9610    3.0977    0.1966 C   0  0  0  0  0  0  0  0  0  0  0  0
    6.1056    1.8138   -0.3277 C   0  0  0  0  0  0  0  0  0  0  0  0
    6.7318    1.6983   -1.9693 S   0  0  0  0  0  0  0  0  0  0  0  0
    6.8415   -0.0907   -2.2698 C   0  0  0  0  0  0  0  0  0  0  0  0
    5.7610    0.7144    0.4470 C   0  0  0  0  0  0  0  0  0  0  0  0
    5.2477    0.8995    1.7144 C   0  0  0  0  0  0  0  0  0  0  0  0
    2.4632    1.0873    2.9119 C   0  0  0  0  0  0  0  0  0  0  0  0
    2.2633    1.2364    1.1937 S   0  0  0  0  0  0  0  0  0  0  0  0
    3.8846    1.3311    6.2840 C   0  0  0  0  0  0  0  0  0  0  0  0
    3.7385    0.8643    7.5686 C   0  0  0  0  0  0  0  0  0  0  0  0
    4.3905    1.6183    8.6550 C   0  0  0  0  0  0  0  0  0  0  0  0
    5.2670    2.4534    8.5533 O   0  0  0  0  0  0  0  0  0  0  0  0
    3.7028    1.1769    9.8919 C   0  0  0  0  0  0  0  0  0  0  0  0
    3.8555    1.6449   11.1795 C   0  0  0  0  0  0  0  0  0  0  0  0
    3.0592    1.0733   12.1639 C   0  0  0  0  0  0  0  0  0  0  0  0
    3.2250    1.6813   13.9577 Br  0  0  0  0  0  0  0  0  0  0  0  0
    2.1447    0.0712   11.8738 C   0  0  0  0  0  0  0  0  0  0  0  0
    2.0065   -0.4024   10.5766 C   0  0  0  0  0  0  0  0  0  0  0  0
    2.7892    0.1527    9.5779 C   0  0  0  0  0  0  0  0  0  0  0  0
    2.9162   -0.1594    8.1540 C   0  0  0  0  0  0  0  0  0  0  0  0
    2.5550   -1.3508    7.5677 C   0  0  0  0  0  0  0  0  0  0  0  0
    1.6891   -2.2819    8.1630 C   0  0  0  0  0  0  0  0  0  0  0  0
    0.9389   -3.0342    8.6010 N   0  0  0  0  0  0  0  0  0  0  0  0
    3.1028   -1.7841    6.3430 C   0  0  0  0  0  0  0  0  0  0  0  0
    3.6128   -2.1953    5.3993 N   0  0  0  0  0  0  0  0  0  0  0  0
   -6.0020   -0.0614   -7.8789 H   0  0  0  0  0  0  0  0  0  0  0  0
   -7.0856    1.5514   -1.9472 H   0  0  0  0  0  0  0  0  0  0  0  0
  -10.6295    3.5692   -3.2932 H   0  0  0  0  0  0  0  0  0  0  0  0
  -10.3587    2.6386   -5.5459 H   0  0  0  0  0  0  0  0  0  0  0  0
    1.0959    0.2160   -7.0080 H   0  0  0  0  0  0  0  0  0  0  0  0
    0.6117    1.0633   -8.4915 H   0  0  0  0  0  0  0  0  0  0  0  0
    1.4914    2.6592   -6.8074 H   0  0  0  0  0  0  0  0  0  0  0  0
   -0.2293    2.9704   -7.0646 H   0  0  0  0  0  0  0  0  0  0  0  0
    0.3076    2.0943   -5.6278 H   0  0  0  0  0  0  0  0  0  0  0  0
   -2.9487    1.9585   -9.5309 H   0  0  0  0  0  0  0  0  0  0  0  0
   -1.2365    2.2891   -9.1977 H   0  0  0  0  0  0  0  0  0  0  0  0
   -2.3496   -0.1471  -10.6758 H   0  0  0  0  0  0  0  0  0  0  0  0
   -0.6368    0.1272  -10.3492 H   0  0  0  0  0  0  0  0  0  0  0  0
   -1.5169    1.2189  -11.4235 H   0  0  0  0  0  0  0  0  0  0  0  0
   -3.7317   -3.0989   -0.9675 H   0  0  0  0  0  0  0  0  0  0  0  0
   -4.1968   -3.8924    1.3318 H   0  0  0  0  0  0  0  0  0  0  0  0
   -1.6944   -7.6239    2.8248 H   0  0  0  0  0  0  0  0  0  0  0  0
   -0.6110   -6.3795    3.5414 H   0  0  0  0  0  0  0  0  0  0  0  0
   -1.8727   -7.1385    4.5254 H   0  0  0  0  0  0  0  0  0  0  0  0
   -0.6146   -6.2282    1.2397 H   0  0  0  0  0  0  0  0  0  0  0  0
   -0.2220   -5.5274   -1.0700 H   0  0  0  0  0  0  0  0  0  0  0  0
   -3.1394   -6.0254   -2.4438 H   0  0  0  0  0  0  0  0  0  0  0  0
   -3.2380   -7.7467   -4.1952 H   0  0  0  0  0  0  0  0  0  0  0  0
   -1.4903   -6.4831   -8.4468 H   0  0  0  0  0  0  0  0  0  0  0  0
   -0.0392   -7.3680   -7.8704 H   0  0  0  0  0  0  0  0  0  0  0  0
   -1.2403   -8.1855   -8.8921 H   0  0  0  0  0  0  0  0  0  0  0  0
   -0.4653   -5.4954   -6.5487 H   0  0  0  0  0  0  0  0  0  0  0  0
   -0.3502   -3.8112   -4.8182 H   0  0  0  0  0  0  0  0  0  0  0  0
    1.2502    3.8508    0.0167 H   0  0  0  0  0  0  0  0  0  0  0  0
   -0.4726    5.4164    0.8552 H   0  0  0  0  0  0  0  0  0  0  0  0
   -5.5300    5.8210    0.1545 H   0  0  0  0  0  0  0  0  0  0  0  0
   -4.6543    5.1455   -1.2391 H   0  0  0  0  0  0  0  0  0  0  0  0
   -5.1735    4.0824    0.1055 H   0  0  0  0  0  0  0  0  0  0  0  0
   -3.5210    2.9842   -0.9126 H   0  0  0  0  0  0  0  0  0  0  0  0
   -1.8327    1.4447   -1.7084 H   0  0  0  0  0  0  0  0  0  0  0  0
    0.8677    3.8915   -2.7436 H   0  0  0  0  0  0  0  0  0  0  0  0
    2.4548    4.4156   -4.5417 H   0  0  0  0  0  0  0  0  0  0  0  0
    5.5935    0.8426   -5.9431 H   0  0  0  0  0  0  0  0  0  0  0  0
    6.2935    1.8944   -4.6645 H   0  0  0  0  0  0  0  0  0  0  0  0
    6.6333    2.2136   -6.3819 H   0  0  0  0  0  0  0  0  0  0  0  0
    4.2601    0.5713   -4.0788 H   0  0  0  0  0  0  0  0  0  0  0  0
    2.7178    0.0693   -2.2511 H   0  0  0  0  0  0  0  0  0  0  0  0
   -2.3769   -1.6211    4.7831 H   0  0  0  0  0  0  0  0  0  0  0  0
   -2.0937   -3.5496    6.2461 H   0  0  0  0  0  0  0  0  0  0  0  0
   -0.9395   -4.4702    8.2336 H   0  0  0  0  0  0  0  0  0  0  0  0
   -2.1106   -5.5295    7.3676 H   0  0  0  0  0  0  0  0  0  0  0  0
   -0.8623   -6.2371    8.4174 H   0  0  0  0  0  0  0  0  0  0  0  0
    1.6274   -4.4559    4.3416 H   0  0  0  0  0  0  0  0  0  0  0  0
    1.3234   -2.5301    2.8448 H   0  0  0  0  0  0  0  0  0  0  0  0
   -1.2589    1.7519    2.6817 H   0  0  0  0  0  0  0  0  0  0  0  0
   -3.3590    2.6967    1.8700 H   0  0  0  0  0  0  0  0  0  0  0  0
   -6.6299    1.6760    3.0168 H   0  0  0  0  0  0  0  0  0  0  0  0
   -7.2973    2.8863    1.8923 H   0  0  0  0  0  0  0  0  0  0  0  0
   -5.6622    3.1078    2.5669 H   0  0  0  0  0  0  0  0  0  0  0  0
   -4.9130   -1.2356    1.2615 H   0  0  0  0  0  0  0  0  0  0  0  0
   -2.8158   -2.1945    2.1652 H   0  0  0  0  0  0  0  0  0  0  0  0
    2.9425    4.1626    4.6453 H   0  0  0  0  0  0  0  0  0  0  0  0
    3.6713    5.8187    6.3324 H   0  0  0  0  0  0  0  0  0  0  0  0
    8.3361    5.3434    7.9722 H   0  0  0  0  0  0  0  0  0  0  0  0
    7.4578    5.7881    9.4493 H   0  0  0  0  0  0  0  0  0  0  0  0
    6.9819    4.3193    8.5586 H   0  0  0  0  0  0  0  0  0  0  0  0
    7.7045    4.4792    5.8913 H   0  0  0  0  0  0  0  0  0  0  0  0
    6.9850    2.8522    4.1951 H   0  0  0  0  0  0  0  0  0  0  0  0
    5.3232    4.2792    1.8586 H   0  0  0  0  0  0  0  0  0  0  0  0
    6.2450    3.9462   -0.4066 H   0  0  0  0  0  0  0  0  0  0  0  0
    7.2510   -0.1990   -3.2697 H   0  0  0  0  0  0  0  0  0  0  0  0
    5.8517   -0.5352   -2.2234 H   0  0  0  0  0  0  0  0  0  0  0  0
    7.5148   -0.5462   -1.5497 H   0  0  0  0  0  0  0  0  0  0  0  0
    5.8864   -0.2914    0.0819 H   0  0  0  0  0  0  0  0  0  0  0  0
    4.9878    0.0423    2.3181 H   0  0  0  0  0  0  0  0  0  0  0  0
    4.7106    2.0250    6.1785 H   0  0  0  0  0  0  0  0  0  0  0  0
    4.5672    2.4235   11.4059 H   0  0  0  0  0  0  0  0  0  0  0  0
    1.5384   -0.3433   12.6645 H   0  0  0  0  0  0  0  0  0  0  0  0
    1.2907   -1.1802   10.3654 H   0  0  0  0  0  0  0  0  0  0  0  0
  1  2  2  0  0  0  0
  2  3  1  0  0  0  0
  3  4  2  0  0  0  0
  3  5  1  0  0  0  0
  5  6  2  0  0  0  0
  6  7  1  0  0  0  0
  7  8  1  0  0  0  0
  7  9  2  0  0  0  0
  9 10  1  0  0  0  0
 10 11  2  0  0  0  0
 11 12  1  0  0  0  0
 12 13  2  0  0  0  0
 13 14  1  0  0  0  0
 14 15  3  0  0  0  0
 13 16  1  0  0  0  0
 16 17  3  0  0  0  0
  1 18  1  0  0  0  0
 18 19  2  0  0  0  0
 19 20  1  0  0  0  0
 19 21  1  0  0  0  0
 21 22  1  0  0  0  0
 21 23  2  0  0  0  0
 23 24  1  0  0  0  0
 24 25  2  0  0  0  0
 25 26  1  0  0  0  0
 26 27  1  0  0  0  0
 27 28  1  0  0  0  0
 26 29  2  0  0  0  0
 29 30  1  0  0  0  0
 30 31  2  0  0  0  0
 29 32  1  0  0  0  0
 32 33  1  0  0  0  0
 23 34  1  0  0  0  0
 34 35  2  0  0  0  0
 35 36  1  0  0  0  0
 36 37  1  0  0  0  0
 37 38  2  0  0  0  0
 38 39  1  0  0  0  0
 39 40  2  0  0  0  0
 40 41  1  0  0  0  0
 41 42  1  0  0  0  0
 40 43  1  0  0  0  0
 43 44  2  0  0  0  0
 36 45  1  0  0  0  0
 45 46  2  0  0  0  0
 46 47  1  0  0  0  0
 47 48  2  0  0  0  0
 48 49  1  0  0  0  0
 49 50  1  0  0  0  0
 48 51  1  0  0  0  0
 51 52  2  0  0  0  0
 35 53  1  0  0  0  0
 53 54  1  0  0  0  0
 54 55  1  0  0  0  0
 55 56  2  0  0  0  0
 56 57  1  0  0  0  0
 57 58  1  0  0  0  0
 58 59  2  0  0  0  0
 59 60  1  0  0  0  0
 60 61  2  0  0  0  0
 61 62  1  0  0  0  0
 62 63  1  0  0  0  0
 61 64  1  0  0  0  0
 64 65  2  0  0  0  0
 57 66  1  0  0  0  0
 66 67  2  0  0  0  0
 67 68  1  0  0  0  0
 68 69  2  0  0  0  0
 69 70  1  0  0  0  0
 70 71  1  0  0  0  0
 69 72  1  0  0  0  0
 72 73  2  0  0  0  0
 56 74  1  0  0  0  0
 74 75  1  0  0  0  0
 55 76  1  0  0  0  0
 76 77  2  0  0  0  0
 77 78  1  0  0  0  0
 78 79  1  0  0  0  0
 79 80  2  0  0  0  0
 80 81  1  0  0  0  0
 81 82  2  0  0  0  0
 82 83  1  0  0  0  0
 83 84  1  0  0  0  0
 82 85  1  0  0  0  0
 85 86  2  0  0  0  0
 78 87  1  0  0  0  0
 87 88  2  0  0  0  0
 88 89  1  0  0  0  0
 89 90  2  0  0  0  0
 90 91  1  0  0  0  0
 91 92  1  0  0  0  0
 90 93  1  0  0  0  0
 93 94  2  0  0  0  0
 77 95  1  0  0  0  0
 95 96  1  0  0  0  0
 96 97  1  0  0  0  0
 97 98  2  0  0  0  0
 98 99  1  0  0  0  0
 99100  1  0  0  0  0
100101  2  0  0  0  0
101102  1  0  0  0  0
102103  2  0  0  0  0
103104  1  0  0  0  0
104105  1  0  0  0  0
103106  1  0  0  0  0
106107  2  0  0  0  0
 99108  1  0  0  0  0
108109  2  0  0  0  0
109110  1  0  0  0  0
110111  2  0  0  0  0
111112  1  0  0  0  0
112113  1  0  0  0  0
111114  1  0  0  0  0
114115  2  0  0  0  0
 98116  1  0  0  0  0
116117  1  0  0  0  0
 97118  1  0  0  0  0
118119  2  0  0  0  0
119120  1  0  0  0  0
120121  2  0  0  0  0
120122  1  0  0  0  0
122123  2  0  0  0  0
123124  1  0  0  0  0
124125  1  0  0  0  0
124126  2  0  0  0  0
126127  1  0  0  0  0
127128  2  0  0  0  0
128129  1  0  0  0  0
129130  2  0  0  0  0
130131  1  0  0  0  0
131132  3  0  0  0  0
130133  1  0  0  0  0
133134  3  0  0  0  0
 12  2  1  0  0  0  0
 31 18  1  0  0  0  0
 75 34  1  0  0  0  0
117 76  1  0  0  0  0
129119  1  0  0  0  0
 11  5  1  0  0  0  0
 31 24  1  0  0  0  0
 44 37  1  0  0  0  0
 52 45  1  0  0  0  0
 74 53  2  0  0  0  0
 86 79  1  0  0  0  0
 94 87  1  0  0  0  0
116 95  2  0  0  0  0
128122  1  0  0  0  0
 65 58  1  0  0  0  0
 73 66  1  0  0  0  0
107100  1  0  0  0  0
115108  1  0  0  0  0
  1135  1  0  0  0  0
  6136  1  0  0  0  0
  9137  1  0  0  0  0
 10138  1  0  0  0  0
 27139  1  0  0  0  0
 27140  1  0  0  0  0
 28141  1  0  0  0  0
 28142  1  0  0  0  0
 28143  1  0  0  0  0
 32144  1  0  0  0  0
 32145  1  0  0  0  0
 33146  1  0  0  0  0
 33147  1  0  0  0  0
 33148  1  0  0  0  0
 38149  1  0  0  0  0
 39150  1  0  0  0  0
 42151  1  0  0  0  0
 42152  1  0  0  0  0
 42153  1  0  0  0  0
 43154  1  0  0  0  0
 44155  1  0  0  0  0
 46156  1  0  0  0  0
 47157  1  0  0  0  0
 50158  1  0  0  0  0
 50159  1  0  0  0  0
 50160  1  0  0  0  0
 51161  1  0  0  0  0
 52162  1  0  0  0  0
 59163  1  0  0  0  0
 60164  1  0  0  0  0
 63165  1  0  0  0  0
 63166  1  0  0  0  0
 63167  1  0  0  0  0
 64168  1  0  0  0  0
 65169  1  0  0  0  0
 67170  1  0  0  0  0
 68171  1  0  0  0  0
 71172  1  0  0  0  0
 71173  1  0  0  0  0
 71174  1  0  0  0  0
 72175  1  0  0  0  0
 73176  1  0  0  0  0
 80177  1  0  0  0  0
 81178  1  0  0  0  0
 84179  1  0  0  0  0
 84180  1  0  0  0  0
 84181  1  0  0  0  0
 85182  1  0  0  0  0
 86183  1  0  0  0  0
 88184  1  0  0  0  0
 89185  1  0  0  0  0
 92186  1  0  0  0  0
 92187  1  0  0  0  0
 92188  1  0  0  0  0
 93189  1  0  0  0  0
 94190  1  0  0  0  0
101191  1  0  0  0  0
102192  1  0  0  0  0
105193  1  0  0  0  0
105194  1  0  0  0  0
105195  1  0  0  0  0
106196  1  0  0  0  0
107197  1  0  0  0  0
109198  1  0  0  0  0
110199  1  0  0  0  0
113200  1  0  0  0  0
113201  1  0  0  0  0
113202  1  0  0  0  0
114203  1  0  0  0  0
115204  1  0  0  0  0
118205  1  0  0  0  0
123206  1  0  0  0  0
126207  1  0  0  0  0
127208  1  0  0  0  0
M  END
