
  xtb     02112223383D
 energy: -375.169858482913 gnorm: 0.000659050163 xtb: 6.4.1 (unknown)
224243  0     0  0            999 V2000
    8.2532    3.0980   -0.1618 C   0  0  0  0  0  0  0  0  0  0  0  0
    9.3558    2.7065    0.5711 C   0  0  0  0  0  0  0  0  0  0  0  0
    9.6206    3.0131    1.9772 C   0  0  0  0  0  0  0  0  0  0  0  0
    8.9849    3.7477    2.7088 O   0  0  0  0  0  0  0  0  0  0  0  0
   10.9480    2.4218    2.2695 C   0  0  0  0  0  0  0  0  0  0  0  0
   11.6285    2.3905    3.4668 C   0  0  0  0  0  0  0  0  0  0  0  0
   12.8890    1.8069    3.4647 C   0  0  0  0  0  0  0  0  0  0  0  0
   13.8687    1.7141    5.0916 Br  0  0  0  0  0  0  0  0  0  0  0  0
   13.4524    1.2899    2.3075 C   0  0  0  0  0  0  0  0  0  0  0  0
   12.7607    1.3349    1.1049 C   0  0  0  0  0  0  0  0  0  0  0  0
   11.4961    1.9020    1.0839 C   0  0  0  0  0  0  0  0  0  0  0  0
   10.5213    2.0772    0.0066 C   0  0  0  0  0  0  0  0  0  0  0  0
   10.6611    1.6150   -1.2822 C   0  0  0  0  0  0  0  0  0  0  0  0
    9.6651    1.6589   -2.2770 C   0  0  0  0  0  0  0  0  0  0  0  0
    8.9039    1.6209   -3.1389 N   0  0  0  0  0  0  0  0  0  0  0  0
   11.8293    1.0003   -1.7740 C   0  0  0  0  0  0  0  0  0  0  0  0
   12.7528    0.4953   -2.2339 N   0  0  0  0  0  0  0  0  0  0  0  0
    6.9091    3.2226    0.1906 C   0  0  0  0  0  0  0  0  0  0  0  0
    6.1298    2.6195    1.1987 C   0  0  0  0  0  0  0  0  0  0  0  0
    6.5425    2.0533    2.4049 N   0  0  0  0  0  0  0  0  0  0  0  0
    5.9746    0.7900    2.6662 C   0  0  0  0  0  0  0  0  0  0  0  0
    6.0066   -0.1792    1.6608 C   0  0  0  0  0  0  0  0  0  0  0  0
    5.3720   -1.3871    1.8369 C   0  0  0  0  0  0  0  0  0  0  0  0
    4.6983   -1.6677    3.0257 C   0  0  0  0  0  0  0  0  0  0  0  0
    3.8710   -3.2216    3.1164 S   0  0  0  0  0  0  0  0  0  0  0  0
    3.1717   -3.2576    4.7888 C   0  0  0  0  0  0  0  0  0  0  0  0
    4.7011   -0.7240    4.0435 C   0  0  0  0  0  0  0  0  0  0  0  0
    5.3276    0.4935    3.8623 C   0  0  0  0  0  0  0  0  0  0  0  0
    6.8048    2.9107    3.4862 C   0  0  0  0  0  0  0  0  0  0  0  0
    7.5506    2.4517    4.5741 C   0  0  0  0  0  0  0  0  0  0  0  0
    7.7573    3.2660    5.6639 C   0  0  0  0  0  0  0  0  0  0  0  0
    7.2376    4.5592    5.6867 C   0  0  0  0  0  0  0  0  0  0  0  0
    7.5274    5.5102    7.1448 S   0  0  0  0  0  0  0  0  0  0  0  0
    7.0986    7.2007    6.6405 C   0  0  0  0  0  0  0  0  0  0  0  0
    6.4996    5.0214    4.6049 C   0  0  0  0  0  0  0  0  0  0  0  0
    6.2787    4.1993    3.5205 C   0  0  0  0  0  0  0  0  0  0  0  0
    4.7830    2.5578    0.8086 C   0  0  0  0  0  0  0  0  0  0  0  0
    3.3898    1.8621    1.5551 S   0  0  0  0  0  0  0  0  0  0  0  0
    2.3736    2.4385    0.2423 C   0  0  0  0  0  0  0  0  0  0  0  0
    3.0965    3.1785   -0.6987 C   0  0  0  0  0  0  0  0  0  0  0  0
    2.5661    3.7764   -1.8326 N   0  0  0  0  0  0  0  0  0  0  0  0
    3.3571    3.6962   -2.9927 C   0  0  0  0  0  0  0  0  0  0  0  0
    3.9838    2.4905   -3.2973 C   0  0  0  0  0  0  0  0  0  0  0  0
    4.8558    2.3955   -4.3612 C   0  0  0  0  0  0  0  0  0  0  0  0
    5.1050    3.5097   -5.1515 C   0  0  0  0  0  0  0  0  0  0  0  0
    6.2109    3.4970   -6.5229 S   0  0  0  0  0  0  0  0  0  0  0  0
    7.2150    2.0124   -6.2392 C   0  0  0  0  0  0  0  0  0  0  0  0
    4.4454    4.7066   -4.8770 C   0  0  0  0  0  0  0  0  0  0  0  0
    3.5854    4.8048   -3.8052 C   0  0  0  0  0  0  0  0  0  0  0  0
    1.4565    4.6189   -1.7528 C   0  0  0  0  0  0  0  0  0  0  0  0
    0.6444    4.8128   -2.8686 C   0  0  0  0  0  0  0  0  0  0  0  0
   -0.4762    5.6149   -2.7990 C   0  0  0  0  0  0  0  0  0  0  0  0
   -0.8128    6.2376   -1.6043 C   0  0  0  0  0  0  0  0  0  0  0  0
   -2.2287    7.2692   -1.3833 S   0  0  0  0  0  0  0  0  0  0  0  0
   -2.9293    7.4170   -3.0510 C   0  0  0  0  0  0  0  0  0  0  0  0
   -0.0045    6.0469   -0.4851 C   0  0  0  0  0  0  0  0  0  0  0  0
    1.1176    5.2530   -0.5562 C   0  0  0  0  0  0  0  0  0  0  0  0
    4.4659    3.2059   -0.3778 C   0  0  0  0  0  0  0  0  0  0  0  0
    5.8803    3.8632   -1.1107 S   0  0  0  0  0  0  0  0  0  0  0  0
    1.0494    1.9668    0.1176 C   0  0  0  0  0  0  0  0  0  0  0  0
    0.2907    1.2493    1.0464 C   0  0  0  0  0  0  0  0  0  0  0  0
    0.5769    1.0809    2.3897 N   0  0  0  0  0  0  0  0  0  0  0  0
    0.3160   -0.1881    2.9400 C   0  0  0  0  0  0  0  0  0  0  0  0
   -0.3465   -0.3188    4.1556 C   0  0  0  0  0  0  0  0  0  0  0  0
   -0.6175   -1.5695    4.6760 C   0  0  0  0  0  0  0  0  0  0  0  0
   -0.2375   -2.7098    3.9796 C   0  0  0  0  0  0  0  0  0  0  0  0
   -0.5157   -4.3561    4.5506 S   0  0  0  0  0  0  0  0  0  0  0  0
   -1.6162   -4.1457    5.9784 C   0  0  0  0  0  0  0  0  0  0  0  0
    0.4306   -2.5812    2.7624 C   0  0  0  0  0  0  0  0  0  0  0  0
    0.7095   -1.3349    2.2504 C   0  0  0  0  0  0  0  0  0  0  0  0
    1.0927    2.1056    3.1836 C   0  0  0  0  0  0  0  0  0  0  0  0
    1.9000    1.7995    4.2797 C   0  0  0  0  0  0  0  0  0  0  0  0
    2.4986    2.7964    5.0214 C   0  0  0  0  0  0  0  0  0  0  0  0
    2.3017    4.1286    4.6845 C   0  0  0  0  0  0  0  0  0  0  0  0
    3.0740    5.4752    5.5223 S   0  0  0  0  0  0  0  0  0  0  0  0
    3.8235    4.7070    6.9862 C   0  0  0  0  0  0  0  0  0  0  0  0
    1.4654    4.4428    3.6142 C   0  0  0  0  0  0  0  0  0  0  0  0
    0.8618    3.4486    2.8769 C   0  0  0  0  0  0  0  0  0  0  0  0
   -0.8349    0.6636    0.4265 C   0  0  0  0  0  0  0  0  0  0  0  0
   -2.1242   -0.3496    0.9730 S   0  0  0  0  0  0  0  0  0  0  0  0
   -2.8079   -0.4039   -0.6525 C   0  0  0  0  0  0  0  0  0  0  0  0
   -2.0985    0.3914   -1.5506 C   0  0  0  0  0  0  0  0  0  0  0  0
   -2.4058    0.6528   -2.8741 N   0  0  0  0  0  0  0  0  0  0  0  0
   -3.7132    0.8342   -3.3290 C   0  0  0  0  0  0  0  0  0  0  0  0
   -4.0129    0.6248   -4.6774 C   0  0  0  0  0  0  0  0  0  0  0  0
   -5.3012    0.7721   -5.1370 C   0  0  0  0  0  0  0  0  0  0  0  0
   -6.3307    1.0978   -4.2593 C   0  0  0  0  0  0  0  0  0  0  0  0
   -7.9602    1.2201   -4.9274 S   0  0  0  0  0  0  0  0  0  0  0  0
   -9.0070    0.8911   -3.4785 C   0  0  0  0  0  0  0  0  0  0  0  0
   -6.0372    1.3321   -2.9237 C   0  0  0  0  0  0  0  0  0  0  0  0
   -4.7404    1.2110   -2.4665 C   0  0  0  0  0  0  0  0  0  0  0  0
   -1.3200    0.9095   -3.7383 C   0  0  0  0  0  0  0  0  0  0  0  0
   -0.2420    0.0245   -3.7735 C   0  0  0  0  0  0  0  0  0  0  0  0
    0.8418    0.2823   -4.5816 C   0  0  0  0  0  0  0  0  0  0  0  0
    0.8727    1.4229   -5.3827 C   0  0  0  0  0  0  0  0  0  0  0  0
    2.3038    1.6308   -6.3894 S   0  0  0  0  0  0  0  0  0  0  0  0
    2.1299    3.2980   -7.0796 C   0  0  0  0  0  0  0  0  0  0  0  0
   -0.2066    2.2978   -5.3614 C   0  0  0  0  0  0  0  0  0  0  0  0
   -1.2895    2.0447   -4.5414 C   0  0  0  0  0  0  0  0  0  0  0  0
   -0.9664    0.9586   -0.9208 C   0  0  0  0  0  0  0  0  0  0  0  0
    0.2974    1.9943   -1.4751 S   0  0  0  0  0  0  0  0  0  0  0  0
   -3.9308   -1.2438   -0.8682 C   0  0  0  0  0  0  0  0  0  0  0  0
   -4.9038   -1.7384    0.4961 S   0  0  0  0  0  0  0  0  0  0  0  0
   -5.8960   -2.7094   -0.5331 C   0  0  0  0  0  0  0  0  0  0  0  0
   -7.0415   -3.4586   -0.2001 C   0  0  0  0  0  0  0  0  0  0  0  0
   -7.8474   -3.9285   -1.2389 C   0  0  0  0  0  0  0  0  0  0  0  0
   -7.5641   -3.6981   -2.5357 O   0  0  0  0  0  0  0  0  0  0  0  0
   -6.1651   -3.5469   -2.8630 C   0  0  0  0  0  0  0  0  0  0  0  0
   -5.5357   -4.9404   -2.8504 C   0  0  0  0  0  0  0  0  0  0  0  0
   -6.2138   -5.9618   -3.5037 C   0  0  0  0  0  0  0  0  0  0  0  0
   -5.7025   -7.2444   -3.5195 C   0  0  0  0  0  0  0  0  0  0  0  0
   -4.4971   -7.5373   -2.8936 C   0  0  0  0  0  0  0  0  0  0  0  0
   -3.9600   -8.9389   -2.8729 C   0  0  0  0  0  0  0  0  0  0  0  0
   -4.4365   -9.6748   -1.6187 C   0  0  0  0  0  0  0  0  0  0  0  0
   -3.8222   -6.5108   -2.2476 C   0  0  0  0  0  0  0  0  0  0  0  0
   -4.3330   -5.2254   -2.2220 C   0  0  0  0  0  0  0  0  0  0  0  0
   -6.0902   -2.9810   -4.2681 C   0  0  0  0  0  0  0  0  0  0  0  0
   -4.9059   -3.0792   -4.9877 C   0  0  0  0  0  0  0  0  0  0  0  0
   -4.8286   -2.5793   -6.2730 C   0  0  0  0  0  0  0  0  0  0  0  0
   -5.9310   -1.9868   -6.8757 C   0  0  0  0  0  0  0  0  0  0  0  0
   -5.8613   -1.4981   -8.2939 C   0  0  0  0  0  0  0  0  0  0  0  0
   -6.2330   -2.6220   -9.2631 C   0  0  0  0  0  0  0  0  0  0  0  0
   -7.1130   -1.9008   -6.1537 C   0  0  0  0  0  0  0  0  0  0  0  0
   -7.1907   -2.3817   -4.8601 C   0  0  0  0  0  0  0  0  0  0  0  0
   -5.4866   -2.6469   -1.8583 C   0  0  0  0  0  0  0  0  0  0  0  0
   -4.3827   -1.8163   -2.0437 C   0  0  0  0  0  0  0  0  0  0  0  0
   -8.9947   -4.5789   -0.7882 C   0  0  0  0  0  0  0  0  0  0  0  0
   -9.0724   -4.6323    0.5940 C   0  0  0  0  0  0  0  0  0  0  0  0
   -7.6973   -3.8565    1.3416 S   0  0  0  0  0  0  0  0  0  0  0  0
  -10.0855   -5.2281    1.3796 C   0  0  0  0  0  0  0  0  0  0  0  0
  -11.2387   -5.8647    0.9339 C   0  0  0  0  0  0  0  0  0  0  0  0
  -12.0376   -6.3467    1.9563 C   0  0  0  0  0  0  0  0  0  0  0  0
  -11.5229   -6.0967    3.2214 C   0  0  0  0  0  0  0  0  0  0  0  0
  -12.0425   -6.4322    4.4983 C   0  0  0  0  0  0  0  0  0  0  0  0
  -13.2194   -7.1061    4.7676 C   0  0  0  0  0  0  0  0  0  0  0  0
  -14.1219   -7.5814    3.8022 C   0  0  0  0  0  0  0  0  0  0  0  0
  -14.8856   -7.9902    3.0476 N   0  0  0  0  0  0  0  0  0  0  0  0
  -13.6025   -7.3680    6.0995 C   0  0  0  0  0  0  0  0  0  0  0  0
  -13.9322   -7.5912    7.1752 N   0  0  0  0  0  0  0  0  0  0  0  0
  -11.2697   -6.0340    5.6207 C   0  0  0  0  0  0  0  0  0  0  0  0
  -10.6363   -5.7059    6.5170 N   0  0  0  0  0  0  0  0  0  0  0  0
  -10.0025   -5.2355    3.1106 S   0  0  0  0  0  0  0  0  0  0  0  0
    8.4225    3.2501   -1.2225 H   0  0  0  0  0  0  0  0  0  0  0  0
   11.1893    2.8016    4.3627 H   0  0  0  0  0  0  0  0  0  0  0  0
   14.4377    0.8511    2.3426 H   0  0  0  0  0  0  0  0  0  0  0  0
   13.2188    0.9352    0.2151 H   0  0  0  0  0  0  0  0  0  0  0  0
    6.5203    0.0347    0.7345 H   0  0  0  0  0  0  0  0  0  0  0  0
    5.3851   -2.1298    1.0541 H   0  0  0  0  0  0  0  0  0  0  0  0
    2.6412   -4.2022    4.8610 H   0  0  0  0  0  0  0  0  0  0  0  0
    3.9691   -3.2212    5.5254 H   0  0  0  0  0  0  0  0  0  0  0  0
    2.4710   -2.4374    4.9154 H   0  0  0  0  0  0  0  0  0  0  0  0
    4.2022   -0.9151    4.9799 H   0  0  0  0  0  0  0  0  0  0  0  0
    5.2874    1.2322    4.6478 H   0  0  0  0  0  0  0  0  0  0  0  0
    7.9714    1.4572    4.5468 H   0  0  0  0  0  0  0  0  0  0  0  0
    8.3349    2.9168    6.5065 H   0  0  0  0  0  0  0  0  0  0  0  0
    7.4087    7.8398    7.4615 H   0  0  0  0  0  0  0  0  0  0  0  0
    6.0270    7.2927    6.4869 H   0  0  0  0  0  0  0  0  0  0  0  0
    7.6484    7.4582    5.7404 H   0  0  0  0  0  0  0  0  0  0  0  0
    6.0713    6.0102    4.6020 H   0  0  0  0  0  0  0  0  0  0  0  0
    5.6877    4.5627    2.6931 H   0  0  0  0  0  0  0  0  0  0  0  0
    3.7852    1.6215   -2.6871 H   0  0  0  0  0  0  0  0  0  0  0  0
    5.3299    1.4509   -4.5675 H   0  0  0  0  0  0  0  0  0  0  0  0
    7.6019    2.0190   -5.2243 H   0  0  0  0  0  0  0  0  0  0  0  0
    8.0345    2.0749   -6.9487 H   0  0  0  0  0  0  0  0  0  0  0  0
    6.6266    1.1212   -6.4378 H   0  0  0  0  0  0  0  0  0  0  0  0
    4.6367    5.5658   -5.5018 H   0  0  0  0  0  0  0  0  0  0  0  0
    3.1076    5.7459   -3.5764 H   0  0  0  0  0  0  0  0  0  0  0  0
    0.8848    4.3049   -3.7898 H   0  0  0  0  0  0  0  0  0  0  0  0
   -1.0848    5.7341   -3.6808 H   0  0  0  0  0  0  0  0  0  0  0  0
   -2.1868    7.8282   -3.7286 H   0  0  0  0  0  0  0  0  0  0  0  0
   -3.2886    6.4511   -3.3945 H   0  0  0  0  0  0  0  0  0  0  0  0
   -3.7632    8.1057   -2.9565 H   0  0  0  0  0  0  0  0  0  0  0  0
   -0.2665    6.5380    0.4398 H   0  0  0  0  0  0  0  0  0  0  0  0
    1.7414    5.1245    0.3160 H   0  0  0  0  0  0  0  0  0  0  0  0
   -0.6543    0.5661    4.6927 H   0  0  0  0  0  0  0  0  0  0  0  0
   -1.1322   -1.6394    5.6206 H   0  0  0  0  0  0  0  0  0  0  0  0
   -2.5023   -3.5937    5.6797 H   0  0  0  0  0  0  0  0  0  0  0  0
   -1.8925   -5.1500    6.2842 H   0  0  0  0  0  0  0  0  0  0  0  0
   -1.0918   -3.6477    6.7890 H   0  0  0  0  0  0  0  0  0  0  0  0
    0.7382   -3.4700    2.2341 H   0  0  0  0  0  0  0  0  0  0  0  0
    1.2406   -1.2384    1.3152 H   0  0  0  0  0  0  0  0  0  0  0  0
    2.0917    0.7663    4.5246 H   0  0  0  0  0  0  0  0  0  0  0  0
    3.1341    2.5193    5.8469 H   0  0  0  0  0  0  0  0  0  0  0  0
    4.1989    5.5255    7.5925 H   0  0  0  0  0  0  0  0  0  0  0  0
    3.0666    4.1598    7.5400 H   0  0  0  0  0  0  0  0  0  0  0  0
    4.6484    4.0634    6.6933 H   0  0  0  0  0  0  0  0  0  0  0  0
    1.2957    5.4801    3.3682 H   0  0  0  0  0  0  0  0  0  0  0  0
    0.2158    3.7078    2.0512 H   0  0  0  0  0  0  0  0  0  0  0  0
   -3.2298    0.3341   -5.3611 H   0  0  0  0  0  0  0  0  0  0  0  0
   -5.5267    0.6160   -6.1792 H   0  0  0  0  0  0  0  0  0  0  0  0
   -9.0597    1.7670   -2.8383 H   0  0  0  0  0  0  0  0  0  0  0  0
   -8.6111    0.0347   -2.9409 H   0  0  0  0  0  0  0  0  0  0  0  0
   -9.9946    0.6652   -3.8683 H   0  0  0  0  0  0  0  0  0  0  0  0
   -6.8089    1.6239   -2.2291 H   0  0  0  0  0  0  0  0  0  0  0  0
   -4.5244    1.4246   -1.4310 H   0  0  0  0  0  0  0  0  0  0  0  0
   -0.2621   -0.8617   -3.1562 H   0  0  0  0  0  0  0  0  0  0  0  0
    1.6784   -0.3984   -4.6089 H   0  0  0  0  0  0  0  0  0  0  0  0
    1.2917    3.3351   -7.7694 H   0  0  0  0  0  0  0  0  0  0  0  0
    3.0566    3.4883   -7.6126 H   0  0  0  0  0  0  0  0  0  0  0  0
    2.0208    4.0183   -6.2744 H   0  0  0  0  0  0  0  0  0  0  0  0
   -0.2153    3.1821   -5.9786 H   0  0  0  0  0  0  0  0  0  0  0  0
   -2.1207    2.7338   -4.5188 H   0  0  0  0  0  0  0  0  0  0  0  0
   -7.1486   -5.7395   -3.9970 H   0  0  0  0  0  0  0  0  0  0  0  0
   -6.2432   -8.0281   -4.0303 H   0  0  0  0  0  0  0  0  0  0  0  0
   -2.8684   -8.9170   -2.8832 H   0  0  0  0  0  0  0  0  0  0  0  0
   -4.3001   -9.4790   -3.7585 H   0  0  0  0  0  0  0  0  0  0  0  0
   -4.0485  -10.6904   -1.6036 H   0  0  0  0  0  0  0  0  0  0  0  0
   -4.0950   -9.1588   -0.7242 H   0  0  0  0  0  0  0  0  0  0  0  0
   -5.5232   -9.7176   -1.5949 H   0  0  0  0  0  0  0  0  0  0  0  0
   -2.8822   -6.7169   -1.7559 H   0  0  0  0  0  0  0  0  0  0  0  0
   -3.7835   -4.4471   -1.7129 H   0  0  0  0  0  0  0  0  0  0  0  0
   -4.0468   -3.5635   -4.5460 H   0  0  0  0  0  0  0  0  0  0  0  0
   -3.8994   -2.6584   -6.8194 H   0  0  0  0  0  0  0  0  0  0  0  0
   -4.8502   -1.1508   -8.5178 H   0  0  0  0  0  0  0  0  0  0  0  0
   -6.5512   -0.6629   -8.4323 H   0  0  0  0  0  0  0  0  0  0  0  0
   -7.2430   -2.9727   -9.0642 H   0  0  0  0  0  0  0  0  0  0  0  0
   -6.1829   -2.2705  -10.2909 H   0  0  0  0  0  0  0  0  0  0  0  0
   -5.5508   -3.4614   -9.1483 H   0  0  0  0  0  0  0  0  0  0  0  0
   -7.9810   -1.4420   -6.6038 H   0  0  0  0  0  0  0  0  0  0  0  0
   -8.1167   -2.3088   -4.3115 H   0  0  0  0  0  0  0  0  0  0  0  0
   -3.9050   -1.6667   -2.9929 H   0  0  0  0  0  0  0  0  0  0  0  0
   -9.7344   -4.9925   -1.4466 H   0  0  0  0  0  0  0  0  0  0  0  0
  -11.4807   -5.9681   -0.1075 H   0  0  0  0  0  0  0  0  0  0  0  0
  -12.9649   -6.8638    1.7909 H   0  0  0  0  0  0  0  0  0  0  0  0
  1  2  2  0  0  0  0
  2  3  1  0  0  0  0
  3  4  2  0  0  0  0
  3  5  1  0  0  0  0
  5  6  2  0  0  0  0
  6  7  1  0  0  0  0
  7  8  1  0  0  0  0
  7  9  2  0  0  0  0
  9 10  1  0  0  0  0
 10 11  2  0  0  0  0
 11 12  1  0  0  0  0
 12 13  2  0  0  0  0
 13 14  1  0  0  0  0
 14 15  3  0  0  0  0
 13 16  1  0  0  0  0
 16 17  3  0  0  0  0
  1 18  1  0  0  0  0
 18 19  2  0  0  0  0
 19 20  1  0  0  0  0
 20 21  1  0  0  0  0
 21 22  2  0  0  0  0
 22 23  1  0  0  0  0
 23 24  2  0  0  0  0
 24 25  1  0  0  0  0
 25 26  1  0  0  0  0
 24 27  1  0  0  0  0
 27 28  2  0  0  0  0
 20 29  1  0  0  0  0
 29 30  2  0  0  0  0
 30 31  1  0  0  0  0
 31 32  2  0  0  0  0
 32 33  1  0  0  0  0
 33 34  1  0  0  0  0
 32 35  1  0  0  0  0
 35 36  2  0  0  0  0
 19 37  1  0  0  0  0
 37 38  1  0  0  0  0
 38 39  1  0  0  0  0
 39 40  2  0  0  0  0
 40 41  1  0  0  0  0
 41 42  1  0  0  0  0
 42 43  2  0  0  0  0
 43 44  1  0  0  0  0
 44 45  2  0  0  0  0
 45 46  1  0  0  0  0
 46 47  1  0  0  0  0
 45 48  1  0  0  0  0
 48 49  2  0  0  0  0
 41 50  1  0  0  0  0
 50 51  2  0  0  0  0
 51 52  1  0  0  0  0
 52 53  2  0  0  0  0
 53 54  1  0  0  0  0
 54 55  1  0  0  0  0
 53 56  1  0  0  0  0
 56 57  2  0  0  0  0
 40 58  1  0  0  0  0
 58 59  1  0  0  0  0
 39 60  1  0  0  0  0
 60 61  2  0  0  0  0
 61 62  1  0  0  0  0
 62 63  1  0  0  0  0
 63 64  2  0  0  0  0
 64 65  1  0  0  0  0
 65 66  2  0  0  0  0
 66 67  1  0  0  0  0
 67 68  1  0  0  0  0
 66 69  1  0  0  0  0
 69 70  2  0  0  0  0
 62 71  1  0  0  0  0
 71 72  2  0  0  0  0
 72 73  1  0  0  0  0
 73 74  2  0  0  0  0
 74 75  1  0  0  0  0
 75 76  1  0  0  0  0
 74 77  1  0  0  0  0
 77 78  2  0  0  0  0
 61 79  1  0  0  0  0
 79 80  1  0  0  0  0
 80 81  1  0  0  0  0
 81 82  2  0  0  0  0
 82 83  1  0  0  0  0
 83 84  1  0  0  0  0
 84 85  2  0  0  0  0
 85 86  1  0  0  0  0
 86 87  2  0  0  0  0
 87 88  1  0  0  0  0
 88 89  1  0  0  0  0
 87 90  1  0  0  0  0
 90 91  2  0  0  0  0
 83 92  1  0  0  0  0
 92 93  2  0  0  0  0
 93 94  1  0  0  0  0
 94 95  2  0  0  0  0
 95 96  1  0  0  0  0
 96 97  1  0  0  0  0
 95 98  1  0  0  0  0
 98 99  2  0  0  0  0
 82100  1  0  0  0  0
100101  1  0  0  0  0
 81102  1  0  0  0  0
102103  1  0  0  0  0
103104  1  0  0  0  0
104105  1  0  0  0  0
105106  2  0  0  0  0
106107  1  0  0  0  0
107108  1  0  0  0  0
108109  1  0  0  0  0
109110  2  0  0  0  0
110111  1  0  0  0  0
111112  2  0  0  0  0
112113  1  0  0  0  0
113114  1  0  0  0  0
112115  1  0  0  0  0
115116  2  0  0  0  0
108117  1  0  0  0  0
117118  2  0  0  0  0
118119  1  0  0  0  0
119120  2  0  0  0  0
120121  1  0  0  0  0
121122  1  0  0  0  0
120123  1  0  0  0  0
123124  2  0  0  0  0
108125  1  0  0  0  0
125126  1  0  0  0  0
106127  1  0  0  0  0
127128  2  0  0  0  0
128129  1  0  0  0  0
128130  1  0  0  0  0
130131  2  0  0  0  0
131132  1  0  0  0  0
132133  2  0  0  0  0
133134  1  0  0  0  0
134135  2  0  0  0  0
135136  1  0  0  0  0
136137  3  0  0  0  0
135138  1  0  0  0  0
138139  3  0  0  0  0
134140  1  0  0  0  0
140141  3  0  0  0  0
133142  1  0  0  0  0
 12  2  1  0  0  0  0
 59 18  1  0  0  0  0
101 60  1  0  0  0  0
126102  2  0  0  0  0
142130  1  0  0  0  0
 11  5  1  0  0  0  0
 28 21  1  0  0  0  0
 36 29  1  0  0  0  0
 58 37  2  0  0  0  0
 70 63  1  0  0  0  0
 78 71  1  0  0  0  0
100 79  2  0  0  0  0
125104  2  0  0  0  0
 49 42  1  0  0  0  0
 57 50  1  0  0  0  0
 91 84  1  0  0  0  0
 99 92  1  0  0  0  0
129105  1  0  0  0  0
116109  1  0  0  0  0
124117  1  0  0  0  0
  1143  1  0  0  0  0
  6144  1  0  0  0  0
  9145  1  0  0  0  0
 10146  1  0  0  0  0
 22147  1  0  0  0  0
 23148  1  0  0  0  0
 26149  1  0  0  0  0
 26150  1  0  0  0  0
 26151  1  0  0  0  0
 27152  1  0  0  0  0
 28153  1  0  0  0  0
 30154  1  0  0  0  0
 31155  1  0  0  0  0
 34156  1  0  0  0  0
 34157  1  0  0  0  0
 34158  1  0  0  0  0
 35159  1  0  0  0  0
 36160  1  0  0  0  0
 43161  1  0  0  0  0
 44162  1  0  0  0  0
 47163  1  0  0  0  0
 47164  1  0  0  0  0
 47165  1  0  0  0  0
 48166  1  0  0  0  0
 49167  1  0  0  0  0
 51168  1  0  0  0  0
 52169  1  0  0  0  0
 55170  1  0  0  0  0
 55171  1  0  0  0  0
 55172  1  0  0  0  0
 56173  1  0  0  0  0
 57174  1  0  0  0  0
 64175  1  0  0  0  0
 65176  1  0  0  0  0
 68177  1  0  0  0  0
 68178  1  0  0  0  0
 68179  1  0  0  0  0
 69180  1  0  0  0  0
 70181  1  0  0  0  0
 72182  1  0  0  0  0
 73183  1  0  0  0  0
 76184  1  0  0  0  0
 76185  1  0  0  0  0
 76186  1  0  0  0  0
 77187  1  0  0  0  0
 78188  1  0  0  0  0
 85189  1  0  0  0  0
 86190  1  0  0  0  0
 89191  1  0  0  0  0
 89192  1  0  0  0  0
 89193  1  0  0  0  0
 90194  1  0  0  0  0
 91195  1  0  0  0  0
 93196  1  0  0  0  0
 94197  1  0  0  0  0
 97198  1  0  0  0  0
 97199  1  0  0  0  0
 97200  1  0  0  0  0
 98201  1  0  0  0  0
 99202  1  0  0  0  0
110203  1  0  0  0  0
111204  1  0  0  0  0
113205  1  0  0  0  0
113206  1  0  0  0  0
114207  1  0  0  0  0
114208  1  0  0  0  0
114209  1  0  0  0  0
115210  1  0  0  0  0
116211  1  0  0  0  0
118212  1  0  0  0  0
119213  1  0  0  0  0
121214  1  0  0  0  0
121215  1  0  0  0  0
122216  1  0  0  0  0
122217  1  0  0  0  0
122218  1  0  0  0  0
123219  1  0  0  0  0
124220  1  0  0  0  0
126221  1  0  0  0  0
127222  1  0  0  0  0
131223  1  0  0  0  0
132224  1  0  0  0  0
M  END
