265

C         -6.58220       -2.54120        7.94770
C         -7.64980       -3.39220        7.82400
C         -8.74120       -3.36200        8.82200
O         -8.74300       -2.78890        9.88870
C         -9.83920       -4.15260        8.21270
C        -11.13030       -4.33340        8.66040
C        -11.97830       -5.09420        7.86480
Br       -13.76920       -5.37990        8.43300
C        -11.55750       -5.64520        6.66270
C        -10.25260       -5.46770        6.22560
C         -9.38600       -4.72510        7.01030
C         -7.97580       -4.38370        6.83370
C         -7.09030       -5.10940        6.07270
C         -7.45870       -6.23030        5.31020
N         -7.68340       -7.17510        4.69530
C         -5.69430       -4.93230        6.08640
N         -4.54610       -4.87500        6.08540
C         -5.70260       -2.13620        6.93390
C         -4.37570       -1.69680        7.06130
N         -3.66590       -1.58440        8.22800
C         -2.34200       -2.06470        8.23620
C         -1.32090       -1.33950        8.84350
C         -0.03070       -1.83160        8.83600
C          0.24410       -3.05290        8.23410
S          1.91790       -3.65430        8.22310
C          1.67010       -5.35770        8.81920
C         -0.77300       -3.77620        7.62790
C         -2.06030       -3.28530        7.62650
C         -4.23990       -1.06130        9.39090
C         -3.91730       -1.58430       10.64000
C         -4.49120       -1.07060       11.78600
C         -5.40250       -0.02440       11.70260
S         -6.19630        0.70860       13.09160
C         -5.83210       -0.43580       14.45300
C         -5.71510        0.51190       10.45310
C         -5.14130        0.00330        9.31130
C         -3.79710       -1.46680        5.79320
S         -2.26750       -0.85290        5.27690
C         -2.81600       -0.83750        3.60740
C         -4.12520       -1.27210        3.47250
N         -4.85900       -1.30030        2.30040
C         -5.85890       -2.28020        2.15830
C         -7.10630       -1.93660        1.63810
C         -8.08520       -2.89360        1.49840
C         -7.84240       -4.21440        1.87260
S         -9.16870       -5.35710        1.65530
C         -8.33760       -6.97100        1.60170
C         -6.60610       -4.55740        2.40410
C         -5.62360       -3.59610        2.54750
C         -4.68080       -0.33340        1.30860
C         -4.34400        0.98120        1.63500
C         -4.05110        1.89540        0.64500
C         -4.12430        1.52140       -0.69080
S         -3.65960        2.69360       -1.93880
C         -2.64870        1.64440       -3.03250
C         -4.56520        0.24860       -1.02510
C         -4.82950       -0.67600       -0.03440
C         -4.66210       -1.64360        4.72700
S         -6.22480       -2.15800        5.24470
C         -1.95870       -0.31770        2.57990
C         -1.51950       -0.95570        1.43500
N         -1.65590       -2.31960        1.21290
C         -1.43610       -2.81420       -0.08610
C         -2.01580       -2.17690       -1.17940
C         -1.74560       -2.58570       -2.47270
C         -0.89180       -3.65450       -2.69780
S         -0.38240       -4.21760       -4.29190
C         -1.29020       -3.15550       -5.44640
C         -0.35690       -4.33360       -1.60430
C         -0.61580       -3.91990       -0.31820
C         -1.36710       -3.18540        2.29360
C         -0.38820       -2.86690        3.23060
C          0.00140       -3.78960        4.17770
C         -0.57310       -5.05240        4.18810
S          0.03930       -6.32940        5.25210
C          1.83000       -5.99220        5.18040
C         -1.61230       -5.34830        3.31420
C         -2.00640       -4.42020        2.37220
C         -0.76560       -0.07250        0.62740
S          0.09780       -0.26270       -0.85310
C          0.79080        1.34310       -0.67810
C          0.34000        1.98870        0.46130
N          0.80000        3.24470        0.87270
C         -0.11360        4.29740        0.93330
C          0.00880        5.33230        1.86070
C         -0.91580        6.35280        1.88210
C         -1.98620        6.36110        0.99050
S         -3.09680        7.74040        1.07710
C         -4.53960        7.18480        0.12700
C         -2.12180        5.32730        0.07670
C         -1.19300        4.30760        0.05420
C          2.14450        3.36320        1.23020
C          2.84260        4.55690        1.04390
C          4.17300        4.64250        1.38330
C          4.84850        3.54170        1.90700
S          6.55690        3.77680        2.29180
C          7.09690        2.15410        2.90150
C          4.16020        2.35240        2.09370
C          2.82180        2.26770        1.76100
C         -0.55940        1.17970        1.18750
S         -1.33930        1.32890        2.71820
C          1.59960        1.88160       -1.71280
C          2.31290        1.18530       -2.68090
N          2.50650       -0.18780       -2.74130
C          2.38100       -0.74630       -4.02880
C          3.35870       -1.58280       -4.55540
C          3.27070       -2.00770       -5.86460
C          2.21320       -1.59160       -6.66210
S          2.12040       -2.02450       -8.37570
C          3.84600       -1.72080       -8.86660
C          1.20650       -0.80120       -6.12460
C          1.28680       -0.38650       -4.81290
C          2.78010       -0.97450       -1.62700
C          2.45810       -2.33530       -1.63100
C          2.60670       -3.08880       -0.48990
C          3.06270       -2.50840        0.69080
S          3.07860       -3.54520        2.12420
C          3.57900       -2.43010        3.46740
C          3.45330       -1.17730        0.68170
C          3.32520       -0.42260       -0.46820
C          2.80090        2.05810       -3.68230
S          3.63730        1.79910       -5.17240
C          3.56370        3.52910       -5.52220
C          2.82900        4.23860       -4.53580
N          2.45730        5.55250       -4.60200
C          2.24840        6.24570       -3.38910
C          1.04060        6.88880       -3.14010
C          0.83520        7.55830       -1.95010
C          1.85130        7.61740       -1.00430
S          1.70200        8.43030        0.55080
C          0.22550        9.46590        0.36180
C          3.06930        6.98840       -1.26310
C          3.26320        6.29470       -2.43570
C          2.10700        6.20040       -5.79820
C          1.49340        5.51020       -6.84090
C          1.16370        6.15820       -8.01400
C          1.42640        7.51550       -8.15810
S          1.05630        8.44560       -9.60910
C          0.58160        7.18580      -10.82820
C          2.00500        8.21560       -7.10170
C          2.34750        7.56760       -5.93630
C          2.46510        3.38970       -3.47690
S          1.60070        3.61950       -1.98970
C          4.22870        4.15600       -6.57090
C          4.96770        3.63110       -7.60920
C          5.13590        2.21630       -7.93500
O          4.69630        1.24750       -7.33120
C          5.92770        2.16750       -9.17770
C          6.36430        1.03190       -9.85630
C          7.09190        1.30150      -10.99050
C          7.36970        2.60530      -11.41780
C          6.95390        3.73480      -10.75220
C          6.20850        3.48310       -9.59730
C          5.63380        4.41300       -8.62360
C          5.74330        5.78250       -8.67880
C          5.31880        6.68470       -7.68430
N          5.03960        7.49000       -6.91180
C          6.33110        6.49260       -9.74470
N          6.77200        7.13810      -10.58660
C          8.14080        2.13160      -12.62500
C          7.41230        2.20690      -13.98340
C          8.19320        1.25940      -14.86510
C          7.93210        0.02320      -14.45980
C          6.97010        0.11450      -13.29730
C          6.16650        1.35230      -13.71620
C          7.83220        0.67630      -12.14700
H         -6.45890       -2.09370        8.92850
H        -11.46140       -3.89750        9.59020
H        -12.25170       -6.21450        6.06390
H         -9.94290       -5.88930        5.28290
H         -1.54250       -0.39390        9.31530
H          0.76970       -1.27200        9.29510
H          1.16080       -5.32330        9.77730
H          1.10020       -5.93890        8.10150
H          2.66210       -5.78160        8.93820
H         -0.57420       -4.72590        7.15870
H         -2.85020       -3.85220        7.15670
H         -3.21990       -2.40590       10.70940
H         -4.22370       -1.49980       12.73790
H         -6.41940       -0.08340       15.29520
H         -4.77570       -0.40220       14.70390
H         -6.14450       -1.43880       14.17800
H         -6.41430        1.33140       10.39450
H         -5.38600        0.42290        8.34670
H         -7.29910       -0.91500        1.34580
H         -9.05270       -2.63130        1.09930
H         -7.49800       -6.91820        0.91540
H         -9.08050       -7.66960        1.22980
H         -8.02190       -7.26410        2.60000
H         -6.39800       -5.56970        2.71250
H         -4.66650       -3.86840        2.96870
H         -4.29910        1.28060        2.67120
H         -3.74970        2.89940        0.90190
H         -3.28380        1.05820       -3.69050
H         -2.01770        0.99990       -2.42660
H         -2.03740        2.32220       -3.62050
H         -4.68110       -0.03400       -2.06050
H         -5.13510       -1.67760       -0.29850
H         -2.67690       -1.34200       -1.01110
H         -2.20080       -2.05240       -3.29180
H         -1.02640       -2.11700       -5.27200
H         -2.35840       -3.32270       -5.34180
H         -0.96160       -3.45350       -6.43730
H          0.28800       -5.18030       -1.78290
H         -0.15980       -4.43880        0.51050
H          0.09970       -1.90430        3.19570
H          0.77300       -3.52810        4.88400
H          2.32210       -6.90650        5.49660
H          2.09740       -5.17950        5.85010
H          2.10180       -5.75400        4.15650
H         -2.08380       -6.31780        3.35840
H         -2.77190       -4.66550        1.65080
H          0.82250        5.33110        2.56890
H         -0.82060        7.15390        2.59910
H         -5.30870        7.93170        0.29760
H         -4.86950        6.21870        0.49680
H         -4.30080        7.13780       -0.93160
H         -2.93480        5.29900       -0.63100
H         -1.30020        3.51460       -0.66930
H          2.33580        5.40940        0.62270
H          4.71260        5.56630        1.24390
H          8.15210        2.26600        3.13060
H          6.96650        1.40350        2.12700
H          6.55090        1.89380        3.80380
H          4.65080        1.48620        2.50850
H          2.29230        1.33960        1.92050
H          4.19650       -1.87680       -3.94140
H          4.04010       -2.64510       -6.27010
H          4.19490       -0.84030       -8.33370
H          3.83250       -1.54210       -9.93750
H          4.46190       -2.58800       -8.64490
H          0.38070       -0.49900       -6.75110
H          0.51890        0.24670       -4.38950
H          2.05640       -2.78950       -2.52320
H          2.34470       -4.13460       -0.49360
H          4.59330       -2.07840        3.30130
H          3.54430       -3.02380        4.37570
H          2.88030       -1.60170        3.54180
H          3.85780       -0.70950        1.56470
H          3.62810        0.61440       -0.45450
H          0.25530        6.85100       -3.88050
H         -0.11970        8.02320       -1.76660
H         -0.66970        8.85210        0.34040
H          0.20430       10.10680        1.23770
H          0.31890       10.06920       -0.53600
H          3.86220        7.06050       -0.53560
H          4.20520        5.80500       -2.63220
H          1.27830        4.45680       -6.73600
H          0.69220        5.59460       -8.80300
H          0.45510        7.72050      -11.76440
H         -0.35680        6.71880      -10.54340
H          1.37600        6.45190      -10.92710
H          2.20470        9.26900       -7.21590
H          2.81960        8.11120       -5.13380
H          4.15610        5.23560       -6.54790
H          6.14270        0.04190       -9.48960
H          7.18710        4.73090      -11.08830
H          9.17920        2.45260      -12.68070
H          7.25820        3.21370      -14.36190
H          8.87630        1.57750      -15.63060
H          8.35330       -0.89750      -14.81900
H          6.41280       -0.78590      -13.05210
H          5.58460        1.17890      -14.62000
H          5.51840        1.74560      -12.93510
H          8.66570        0.02780      -11.88320
