224

C          8.25320        3.09800       -0.16180
C          9.35580        2.70650        0.57110
C          9.62060        3.01310        1.97720
O          8.98490        3.74770        2.70880
C         10.94800        2.42180        2.26950
C         11.62850        2.39050        3.46680
C         12.88900        1.80690        3.46470
Br        13.86870        1.71410        5.09160
C         13.45240        1.28990        2.30750
C         12.76070        1.33490        1.10490
C         11.49610        1.90200        1.08390
C         10.52130        2.07720        0.00660
C         10.66110        1.61500       -1.28220
C          9.66510        1.65890       -2.27700
N          8.90390        1.62090       -3.13890
C         11.82930        1.00030       -1.77400
N         12.75280        0.49530       -2.23390
C          6.90910        3.22260        0.19060
C          6.12980        2.61950        1.19870
N          6.54250        2.05330        2.40490
C          5.97460        0.79000        2.66620
C          6.00660       -0.17920        1.66080
C          5.37200       -1.38710        1.83690
C          4.69830       -1.66770        3.02570
S          3.87100       -3.22160        3.11640
C          3.17170       -3.25760        4.78880
C          4.70110       -0.72400        4.04350
C          5.32760        0.49350        3.86230
C          6.80480        2.91070        3.48620
C          7.55060        2.45170        4.57410
C          7.75730        3.26600        5.66390
C          7.23760        4.55920        5.68670
S          7.52740        5.51020        7.14480
C          7.09860        7.20070        6.64050
C          6.49960        5.02140        4.60490
C          6.27870        4.19930        3.52050
C          4.78300        2.55780        0.80860
S          3.38980        1.86210        1.55510
C          2.37360        2.43850        0.24230
C          3.09650        3.17850       -0.69870
N          2.56610        3.77640       -1.83260
C          3.35710        3.69620       -2.99270
C          3.98380        2.49050       -3.29730
C          4.85580        2.39550       -4.36120
C          5.10500        3.50970       -5.15150
S          6.21090        3.49700       -6.52290
C          7.21500        2.01240       -6.23920
C          4.44540        4.70660       -4.87700
C          3.58540        4.80480       -3.80520
C          1.45650        4.61890       -1.75280
C          0.64440        4.81280       -2.86860
C         -0.47620        5.61490       -2.79900
C         -0.81280        6.23760       -1.60430
S         -2.22870        7.26920       -1.38330
C         -2.92930        7.41700       -3.05100
C         -0.00450        6.04690       -0.48510
C          1.11760        5.25300       -0.55620
C          4.46590        3.20590       -0.37780
S          5.88030        3.86320       -1.11070
C          1.04940        1.96680        0.11760
C          0.29070        1.24930        1.04640
N          0.57690        1.08090        2.38970
C          0.31600       -0.18810        2.94000
C         -0.34650       -0.31880        4.15560
C         -0.61750       -1.56950        4.67600
C         -0.23750       -2.70980        3.97960
S         -0.51570       -4.35610        4.55060
C         -1.61620       -4.14570        5.97840
C          0.43060       -2.58120        2.76240
C          0.70950       -1.33490        2.25040
C          1.09270        2.10560        3.18360
C          1.90000        1.79950        4.27970
C          2.49860        2.79640        5.02140
C          2.30170        4.12860        4.68450
S          3.07400        5.47520        5.52230
C          3.82350        4.70700        6.98620
C          1.46540        4.44280        3.61420
C          0.86180        3.44860        2.87690
C         -0.83490        0.66360        0.42650
S         -2.12420       -0.34960        0.97300
C         -2.80790       -0.40390       -0.65250
C         -2.09850        0.39140       -1.55060
N         -2.40580        0.65280       -2.87410
C         -3.71320        0.83420       -3.32900
C         -4.01290        0.62480       -4.67740
C         -5.30120        0.77210       -5.13700
C         -6.33070        1.09780       -4.25930
S         -7.96020        1.22010       -4.92740
C         -9.00700        0.89110       -3.47850
C         -6.03720        1.33210       -2.92370
C         -4.74040        1.21100       -2.46650
C         -1.32000        0.90950       -3.73830
C         -0.24200        0.02450       -3.77350
C          0.84180        0.28230       -4.58160
C          0.87270        1.42290       -5.38270
S          2.30380        1.63080       -6.38940
C          2.12990        3.29800       -7.07960
C         -0.20660        2.29780       -5.36140
C         -1.28950        2.04470       -4.54140
C         -0.96640        0.95860       -0.92080
S          0.29740        1.99430       -1.47510
C         -3.93080       -1.24380       -0.86820
S         -4.90380       -1.73840        0.49610
C         -5.89600       -2.70940       -0.53310
C         -7.04150       -3.45860       -0.20010
C         -7.84740       -3.92850       -1.23890
O         -7.56410       -3.69810       -2.53570
C         -6.16510       -3.54690       -2.86300
C         -5.53570       -4.94040       -2.85040
C         -6.21380       -5.96180       -3.50370
C         -5.70250       -7.24440       -3.51950
C         -4.49710       -7.53730       -2.89360
C         -3.96000       -8.93890       -2.87290
C         -4.43650       -9.67480       -1.61870
C         -3.82220       -6.51080       -2.24760
C         -4.33300       -5.22540       -2.22200
C         -6.09020       -2.98100       -4.26810
C         -4.90590       -3.07920       -4.98770
C         -4.82860       -2.57930       -6.27300
C         -5.93100       -1.98680       -6.87570
C         -5.86130       -1.49810       -8.29390
C         -6.23300       -2.62200       -9.26310
C         -7.11300       -1.90080       -6.15370
C         -7.19070       -2.38170       -4.86010
C         -5.48660       -2.64690       -1.85830
C         -4.38270       -1.81630       -2.04370
C         -8.99470       -4.57890       -0.78820
C         -9.07240       -4.63230        0.59400
S         -7.69730       -3.85650        1.34160
C        -10.08550       -5.22810        1.37960
C        -11.23870       -5.86470        0.93390
C        -12.03760       -6.34670        1.95630
C        -11.52290       -6.09670        3.22140
C        -12.04250       -6.43220        4.49830
C        -13.21940       -7.10610        4.76760
C        -14.12190       -7.58140        3.80220
N        -14.88560       -7.99020        3.04760
C        -13.60250       -7.36800        6.09950
N        -13.93220       -7.59120        7.17520
C        -11.26970       -6.03400        5.62070
N        -10.63630       -5.70590        6.51700
S        -10.00250       -5.23550        3.11060
H          8.42250        3.25010       -1.22250
H         11.18930        2.80160        4.36270
H         14.43770        0.85110        2.34260
H         13.21880        0.93520        0.21510
H          6.52030        0.03470        0.73450
H          5.38510       -2.12980        1.05410
H          2.64120       -4.20220        4.86100
H          3.96910       -3.22120        5.52540
H          2.47100       -2.43740        4.91540
H          4.20220       -0.91510        4.97990
H          5.28740        1.23220        4.64780
H          7.97140        1.45720        4.54680
H          8.33490        2.91680        6.50650
H          7.40870        7.83980        7.46150
H          6.02700        7.29270        6.48690
H          7.64840        7.45820        5.74040
H          6.07130        6.01020        4.60200
H          5.68770        4.56270        2.69310
H          3.78520        1.62150       -2.68710
H          5.32990        1.45090       -4.56750
H          7.60190        2.01900       -5.22430
H          8.03450        2.07490       -6.94870
H          6.62660        1.12120       -6.43780
H          4.63670        5.56580       -5.50180
H          3.10760        5.74590       -3.57640
H          0.88480        4.30490       -3.78980
H         -1.08480        5.73410       -3.68080
H         -2.18680        7.82820       -3.72860
H         -3.28860        6.45110       -3.39450
H         -3.76320        8.10570       -2.95650
H         -0.26650        6.53800        0.43980
H          1.74140        5.12450        0.31600
H         -0.65430        0.56610        4.69270
H         -1.13220       -1.63940        5.62060
H         -2.50230       -3.59370        5.67970
H         -1.89250       -5.15000        6.28420
H         -1.09180       -3.64770        6.78900
H          0.73820       -3.47000        2.23410
H          1.24060       -1.23840        1.31520
H          2.09170        0.76630        4.52460
H          3.13410        2.51930        5.84690
H          4.19890        5.52550        7.59250
H          3.06660        4.15980        7.54000
H          4.64840        4.06340        6.69330
H          1.29570        5.48010        3.36820
H          0.21580        3.70780        2.05120
H         -3.22980        0.33410       -5.36110
H         -5.52670        0.61600       -6.17920
H         -9.05970        1.76700       -2.83830
H         -8.61110        0.03470       -2.94090
H         -9.99460        0.66520       -3.86830
H         -6.80890        1.62390       -2.22910
H         -4.52440        1.42460       -1.43100
H         -0.26210       -0.86170       -3.15620
H          1.67840       -0.39840       -4.60890
H          1.29170        3.33510       -7.76940
H          3.05660        3.48830       -7.61260
H          2.02080        4.01830       -6.27440
H         -0.21530        3.18210       -5.97860
H         -2.12070        2.73380       -4.51880
H         -7.14860       -5.73950       -3.99700
H         -6.24320       -8.02810       -4.03030
H         -2.86840       -8.91700       -2.88320
H         -4.30010       -9.47900       -3.75850
H         -4.04850      -10.69040       -1.60360
H         -4.09500       -9.15880       -0.72420
H         -5.52320       -9.71760       -1.59490
H         -2.88220       -6.71690       -1.75590
H         -3.78350       -4.44710       -1.71290
H         -4.04680       -3.56350       -4.54600
H         -3.89940       -2.65840       -6.81940
H         -4.85020       -1.15080       -8.51780
H         -6.55120       -0.66290       -8.43230
H         -7.24300       -2.97270       -9.06420
H         -6.18290       -2.27050      -10.29090
H         -5.55080       -3.46140       -9.14830
H         -7.98100       -1.44200       -6.60380
H         -8.11670       -2.30880       -4.31150
H         -3.90500       -1.66670       -2.99290
H         -9.73440       -4.99250       -1.44660
H        -11.48070       -5.96810       -0.10750
H        -12.96490       -6.86380        1.79090
