
  xtb     02122206153D
 energy: -439.378383144265 gnorm: 0.000515508944 xtb: 6.4.1 (unknown)
265289  0     0  0            999 V2000
   -6.5822   -2.5412    7.9477 C   0  0  0  0  0  0  0  0  0  0  0  0
   -7.6498   -3.3922    7.8240 C   0  0  0  0  0  0  0  0  0  0  0  0
   -8.7412   -3.3620    8.8220 C   0  0  0  0  0  0  0  0  0  0  0  0
   -8.7430   -2.7889    9.8887 O   0  0  0  0  0  0  0  0  0  0  0  0
   -9.8392   -4.1526    8.2127 C   0  0  0  0  0  0  0  0  0  0  0  0
  -11.1303   -4.3334    8.6604 C   0  0  0  0  0  0  0  0  0  0  0  0
  -11.9783   -5.0942    7.8648 C   0  0  0  0  0  0  0  0  0  0  0  0
  -13.7692   -5.3799    8.4330 Br  0  0  0  0  0  0  0  0  0  0  0  0
  -11.5575   -5.6452    6.6627 C   0  0  0  0  0  0  0  0  0  0  0  0
  -10.2526   -5.4677    6.2256 C   0  0  0  0  0  0  0  0  0  0  0  0
   -9.3860   -4.7251    7.0103 C   0  0  0  0  0  0  0  0  0  0  0  0
   -7.9758   -4.3837    6.8337 C   0  0  0  0  0  0  0  0  0  0  0  0
   -7.0903   -5.1094    6.0727 C   0  0  0  0  0  0  0  0  0  0  0  0
   -7.4587   -6.2303    5.3102 C   0  0  0  0  0  0  0  0  0  0  0  0
   -7.6834   -7.1751    4.6953 N   0  0  0  0  0  0  0  0  0  0  0  0
   -5.6943   -4.9323    6.0864 C   0  0  0  0  0  0  0  0  0  0  0  0
   -4.5461   -4.8750    6.0854 N   0  0  0  0  0  0  0  0  0  0  0  0
   -5.7026   -2.1362    6.9339 C   0  0  0  0  0  0  0  0  0  0  0  0
   -4.3757   -1.6968    7.0613 C   0  0  0  0  0  0  0  0  0  0  0  0
   -3.6659   -1.5844    8.2280 N   0  0  0  0  0  0  0  0  0  0  0  0
   -2.3420   -2.0647    8.2362 C   0  0  0  0  0  0  0  0  0  0  0  0
   -1.3209   -1.3395    8.8435 C   0  0  0  0  0  0  0  0  0  0  0  0
   -0.0307   -1.8316    8.8360 C   0  0  0  0  0  0  0  0  0  0  0  0
    0.2441   -3.0529    8.2341 C   0  0  0  0  0  0  0  0  0  0  0  0
    1.9179   -3.6543    8.2231 S   0  0  0  0  0  0  0  0  0  0  0  0
    1.6701   -5.3577    8.8192 C   0  0  0  0  0  0  0  0  0  0  0  0
   -0.7730   -3.7762    7.6279 C   0  0  0  0  0  0  0  0  0  0  0  0
   -2.0603   -3.2853    7.6265 C   0  0  0  0  0  0  0  0  0  0  0  0
   -4.2399   -1.0613    9.3909 C   0  0  0  0  0  0  0  0  0  0  0  0
   -3.9173   -1.5843   10.6400 C   0  0  0  0  0  0  0  0  0  0  0  0
   -4.4912   -1.0706   11.7860 C   0  0  0  0  0  0  0  0  0  0  0  0
   -5.4025   -0.0244   11.7026 C   0  0  0  0  0  0  0  0  0  0  0  0
   -6.1963    0.7086   13.0916 S   0  0  0  0  0  0  0  0  0  0  0  0
   -5.8321   -0.4358   14.4530 C   0  0  0  0  0  0  0  0  0  0  0  0
   -5.7151    0.5119   10.4531 C   0  0  0  0  0  0  0  0  0  0  0  0
   -5.1413    0.0033    9.3113 C   0  0  0  0  0  0  0  0  0  0  0  0
   -3.7971   -1.4668    5.7932 C   0  0  0  0  0  0  0  0  0  0  0  0
   -2.2675   -0.8529    5.2769 S   0  0  0  0  0  0  0  0  0  0  0  0
   -2.8160   -0.8375    3.6074 C   0  0  0  0  0  0  0  0  0  0  0  0
   -4.1252   -1.2721    3.4725 C   0  0  0  0  0  0  0  0  0  0  0  0
   -4.8590   -1.3003    2.3004 N   0  0  0  0  0  0  0  0  0  0  0  0
   -5.8589   -2.2802    2.1583 C   0  0  0  0  0  0  0  0  0  0  0  0
   -7.1063   -1.9366    1.6381 C   0  0  0  0  0  0  0  0  0  0  0  0
   -8.0852   -2.8936    1.4984 C   0  0  0  0  0  0  0  0  0  0  0  0
   -7.8424   -4.2144    1.8726 C   0  0  0  0  0  0  0  0  0  0  0  0
   -9.1687   -5.3571    1.6553 S   0  0  0  0  0  0  0  0  0  0  0  0
   -8.3376   -6.9710    1.6017 C   0  0  0  0  0  0  0  0  0  0  0  0
   -6.6061   -4.5574    2.4041 C   0  0  0  0  0  0  0  0  0  0  0  0
   -5.6236   -3.5961    2.5475 C   0  0  0  0  0  0  0  0  0  0  0  0
   -4.6808   -0.3334    1.3086 C   0  0  0  0  0  0  0  0  0  0  0  0
   -4.3440    0.9812    1.6350 C   0  0  0  0  0  0  0  0  0  0  0  0
   -4.0511    1.8954    0.6450 C   0  0  0  0  0  0  0  0  0  0  0  0
   -4.1243    1.5214   -0.6908 C   0  0  0  0  0  0  0  0  0  0  0  0
   -3.6596    2.6936   -1.9388 S   0  0  0  0  0  0  0  0  0  0  0  0
   -2.6487    1.6444   -3.0325 C   0  0  0  0  0  0  0  0  0  0  0  0
   -4.5652    0.2486   -1.0251 C   0  0  0  0  0  0  0  0  0  0  0  0
   -4.8295   -0.6760   -0.0344 C   0  0  0  0  0  0  0  0  0  0  0  0
   -4.6621   -1.6436    4.7270 C   0  0  0  0  0  0  0  0  0  0  0  0
   -6.2248   -2.1580    5.2447 S   0  0  0  0  0  0  0  0  0  0  0  0
   -1.9587   -0.3177    2.5799 C   0  0  0  0  0  0  0  0  0  0  0  0
   -1.5195   -0.9557    1.4350 C   0  0  0  0  0  0  0  0  0  0  0  0
   -1.6559   -2.3196    1.2129 N   0  0  0  0  0  0  0  0  0  0  0  0
   -1.4361   -2.8142   -0.0861 C   0  0  0  0  0  0  0  0  0  0  0  0
   -2.0158   -2.1769   -1.1794 C   0  0  0  0  0  0  0  0  0  0  0  0
   -1.7456   -2.5857   -2.4727 C   0  0  0  0  0  0  0  0  0  0  0  0
   -0.8918   -3.6545   -2.6978 C   0  0  0  0  0  0  0  0  0  0  0  0
   -0.3824   -4.2176   -4.2919 S   0  0  0  0  0  0  0  0  0  0  0  0
   -1.2902   -3.1555   -5.4464 C   0  0  0  0  0  0  0  0  0  0  0  0
   -0.3569   -4.3336   -1.6043 C   0  0  0  0  0  0  0  0  0  0  0  0
   -0.6158   -3.9199   -0.3182 C   0  0  0  0  0  0  0  0  0  0  0  0
   -1.3671   -3.1854    2.2936 C   0  0  0  0  0  0  0  0  0  0  0  0
   -0.3882   -2.8669    3.2306 C   0  0  0  0  0  0  0  0  0  0  0  0
    0.0014   -3.7896    4.1777 C   0  0  0  0  0  0  0  0  0  0  0  0
   -0.5731   -5.0524    4.1881 C   0  0  0  0  0  0  0  0  0  0  0  0
    0.0393   -6.3294    5.2521 S   0  0  0  0  0  0  0  0  0  0  0  0
    1.8300   -5.9922    5.1804 C   0  0  0  0  0  0  0  0  0  0  0  0
   -1.6123   -5.3483    3.3142 C   0  0  0  0  0  0  0  0  0  0  0  0
   -2.0064   -4.4202    2.3722 C   0  0  0  0  0  0  0  0  0  0  0  0
   -0.7656   -0.0725    0.6274 C   0  0  0  0  0  0  0  0  0  0  0  0
    0.0978   -0.2627   -0.8531 S   0  0  0  0  0  0  0  0  0  0  0  0
    0.7908    1.3431   -0.6781 C   0  0  0  0  0  0  0  0  0  0  0  0
    0.3400    1.9887    0.4613 C   0  0  0  0  0  0  0  0  0  0  0  0
    0.8000    3.2447    0.8727 N   0  0  0  0  0  0  0  0  0  0  0  0
   -0.1136    4.2974    0.9333 C   0  0  0  0  0  0  0  0  0  0  0  0
    0.0088    5.3323    1.8607 C   0  0  0  0  0  0  0  0  0  0  0  0
   -0.9158    6.3528    1.8821 C   0  0  0  0  0  0  0  0  0  0  0  0
   -1.9862    6.3611    0.9905 C   0  0  0  0  0  0  0  0  0  0  0  0
   -3.0968    7.7404    1.0771 S   0  0  0  0  0  0  0  0  0  0  0  0
   -4.5396    7.1848    0.1270 C   0  0  0  0  0  0  0  0  0  0  0  0
   -2.1218    5.3273    0.0767 C   0  0  0  0  0  0  0  0  0  0  0  0
   -1.1930    4.3076    0.0542 C   0  0  0  0  0  0  0  0  0  0  0  0
    2.1445    3.3632    1.2302 C   0  0  0  0  0  0  0  0  0  0  0  0
    2.8426    4.5569    1.0439 C   0  0  0  0  0  0  0  0  0  0  0  0
    4.1730    4.6425    1.3833 C   0  0  0  0  0  0  0  0  0  0  0  0
    4.8485    3.5417    1.9070 C   0  0  0  0  0  0  0  0  0  0  0  0
    6.5569    3.7768    2.2918 S   0  0  0  0  0  0  0  0  0  0  0  0
    7.0969    2.1541    2.9015 C   0  0  0  0  0  0  0  0  0  0  0  0
    4.1602    2.3524    2.0937 C   0  0  0  0  0  0  0  0  0  0  0  0
    2.8218    2.2677    1.7610 C   0  0  0  0  0  0  0  0  0  0  0  0
   -0.5594    1.1797    1.1875 C   0  0  0  0  0  0  0  0  0  0  0  0
   -1.3393    1.3289    2.7182 S   0  0  0  0  0  0  0  0  0  0  0  0
    1.5996    1.8816   -1.7128 C   0  0  0  0  0  0  0  0  0  0  0  0
    2.3129    1.1853   -2.6809 C   0  0  0  0  0  0  0  0  0  0  0  0
    2.5065   -0.1878   -2.7413 N   0  0  0  0  0  0  0  0  0  0  0  0
    2.3810   -0.7463   -4.0288 C   0  0  0  0  0  0  0  0  0  0  0  0
    3.3587   -1.5828   -4.5554 C   0  0  0  0  0  0  0  0  0  0  0  0
    3.2707   -2.0077   -5.8646 C   0  0  0  0  0  0  0  0  0  0  0  0
    2.2132   -1.5916   -6.6621 C   0  0  0  0  0  0  0  0  0  0  0  0
    2.1204   -2.0245   -8.3757 S   0  0  0  0  0  0  0  0  0  0  0  0
    3.8460   -1.7208   -8.8666 C   0  0  0  0  0  0  0  0  0  0  0  0
    1.2065   -0.8012   -6.1246 C   0  0  0  0  0  0  0  0  0  0  0  0
    1.2868   -0.3865   -4.8129 C   0  0  0  0  0  0  0  0  0  0  0  0
    2.7801   -0.9745   -1.6270 C   0  0  0  0  0  0  0  0  0  0  0  0
    2.4581   -2.3353   -1.6310 C   0  0  0  0  0  0  0  0  0  0  0  0
    2.6067   -3.0888   -0.4899 C   0  0  0  0  0  0  0  0  0  0  0  0
    3.0627   -2.5084    0.6908 C   0  0  0  0  0  0  0  0  0  0  0  0
    3.0786   -3.5452    2.1242 S   0  0  0  0  0  0  0  0  0  0  0  0
    3.5790   -2.4301    3.4674 C   0  0  0  0  0  0  0  0  0  0  0  0
    3.4533   -1.1773    0.6817 C   0  0  0  0  0  0  0  0  0  0  0  0
    3.3252   -0.4226   -0.4682 C   0  0  0  0  0  0  0  0  0  0  0  0
    2.8009    2.0581   -3.6823 C   0  0  0  0  0  0  0  0  0  0  0  0
    3.6373    1.7991   -5.1724 S   0  0  0  0  0  0  0  0  0  0  0  0
    3.5637    3.5291   -5.5222 C   0  0  0  0  0  0  0  0  0  0  0  0
    2.8290    4.2386   -4.5358 C   0  0  0  0  0  0  0  0  0  0  0  0
    2.4573    5.5525   -4.6020 N   0  0  0  0  0  0  0  0  0  0  0  0
    2.2484    6.2457   -3.3891 C   0  0  0  0  0  0  0  0  0  0  0  0
    1.0406    6.8888   -3.1401 C   0  0  0  0  0  0  0  0  0  0  0  0
    0.8352    7.5583   -1.9501 C   0  0  0  0  0  0  0  0  0  0  0  0
    1.8513    7.6174   -1.0043 C   0  0  0  0  0  0  0  0  0  0  0  0
    1.7020    8.4303    0.5508 S   0  0  0  0  0  0  0  0  0  0  0  0
    0.2255    9.4659    0.3618 C   0  0  0  0  0  0  0  0  0  0  0  0
    3.0693    6.9884   -1.2631 C   0  0  0  0  0  0  0  0  0  0  0  0
    3.2632    6.2947   -2.4357 C   0  0  0  0  0  0  0  0  0  0  0  0
    2.1070    6.2004   -5.7982 C   0  0  0  0  0  0  0  0  0  0  0  0
    1.4934    5.5102   -6.8409 C   0  0  0  0  0  0  0  0  0  0  0  0
    1.1637    6.1582   -8.0140 C   0  0  0  0  0  0  0  0  0  0  0  0
    1.4264    7.5155   -8.1581 C   0  0  0  0  0  0  0  0  0  0  0  0
    1.0563    8.4456   -9.6091 S   0  0  0  0  0  0  0  0  0  0  0  0
    0.5816    7.1858  -10.8282 C   0  0  0  0  0  0  0  0  0  0  0  0
    2.0050    8.2156   -7.1017 C   0  0  0  0  0  0  0  0  0  0  0  0
    2.3475    7.5676   -5.9363 C   0  0  0  0  0  0  0  0  0  0  0  0
    2.4651    3.3897   -3.4769 C   0  0  0  0  0  0  0  0  0  0  0  0
    1.6007    3.6195   -1.9897 S   0  0  0  0  0  0  0  0  0  0  0  0
    4.2287    4.1560   -6.5709 C   0  0  0  0  0  0  0  0  0  0  0  0
    4.9677    3.6311   -7.6092 C   0  0  0  0  0  0  0  0  0  0  0  0
    5.1359    2.2163   -7.9350 C   0  0  0  0  0  0  0  0  0  0  0  0
    4.6963    1.2475   -7.3312 O   0  0  0  0  0  0  0  0  0  0  0  0
    5.9277    2.1675   -9.1777 C   0  0  0  0  0  0  0  0  0  0  0  0
    6.3643    1.0319   -9.8563 C   0  0  0  0  0  0  0  0  0  0  0  0
    7.0919    1.3015  -10.9905 C   0  0  0  0  0  0  0  0  0  0  0  0
    7.3697    2.6053  -11.4178 C   0  0  0  0  0  0  0  0  0  0  0  0
    6.9539    3.7348  -10.7522 C   0  0  0  0  0  0  0  0  0  0  0  0
    6.2085    3.4831   -9.5973 C   0  0  0  0  0  0  0  0  0  0  0  0
    5.6338    4.4130   -8.6236 C   0  0  0  0  0  0  0  0  0  0  0  0
    5.7433    5.7825   -8.6788 C   0  0  0  0  0  0  0  0  0  0  0  0
    5.3188    6.6847   -7.6843 C   0  0  0  0  0  0  0  0  0  0  0  0
    5.0396    7.4900   -6.9118 N   0  0  0  0  0  0  0  0  0  0  0  0
    6.3311    6.4926   -9.7447 C   0  0  0  0  0  0  0  0  0  0  0  0
    6.7720    7.1381  -10.5866 N   0  0  0  0  0  0  0  0  0  0  0  0
    8.1408    2.1316  -12.6250 C   0  0  0  0  0  0  0  0  0  0  0  0
    7.4123    2.2069  -13.9834 C   0  0  0  0  0  0  0  0  0  0  0  0
    8.1932    1.2594  -14.8651 C   0  0  0  0  0  0  0  0  0  0  0  0
    7.9321    0.0232  -14.4598 C   0  0  0  0  0  0  0  0  0  0  0  0
    6.9701    0.1145  -13.2973 C   0  0  0  0  0  0  0  0  0  0  0  0
    6.1665    1.3523  -13.7162 C   0  0  0  0  0  0  0  0  0  0  0  0
    7.8322    0.6763  -12.1470 C   0  0  0  0  0  0  0  0  0  0  0  0
   -6.4589   -2.0937    8.9285 H   0  0  0  0  0  0  0  0  0  0  0  0
  -11.4614   -3.8975    9.5902 H   0  0  0  0  0  0  0  0  0  0  0  0
  -12.2517   -6.2145    6.0639 H   0  0  0  0  0  0  0  0  0  0  0  0
   -9.9429   -5.8893    5.2829 H   0  0  0  0  0  0  0  0  0  0  0  0
   -1.5425   -0.3939    9.3153 H   0  0  0  0  0  0  0  0  0  0  0  0
    0.7697   -1.2720    9.2951 H   0  0  0  0  0  0  0  0  0  0  0  0
    1.1608   -5.3233    9.7773 H   0  0  0  0  0  0  0  0  0  0  0  0
    1.1002   -5.9389    8.1015 H   0  0  0  0  0  0  0  0  0  0  0  0
    2.6621   -5.7816    8.9382 H   0  0  0  0  0  0  0  0  0  0  0  0
   -0.5742   -4.7259    7.1587 H   0  0  0  0  0  0  0  0  0  0  0  0
   -2.8502   -3.8522    7.1567 H   0  0  0  0  0  0  0  0  0  0  0  0
   -3.2199   -2.4059   10.7094 H   0  0  0  0  0  0  0  0  0  0  0  0
   -4.2237   -1.4998   12.7379 H   0  0  0  0  0  0  0  0  0  0  0  0
   -6.4194   -0.0834   15.2952 H   0  0  0  0  0  0  0  0  0  0  0  0
   -4.7757   -0.4022   14.7039 H   0  0  0  0  0  0  0  0  0  0  0  0
   -6.1445   -1.4388   14.1780 H   0  0  0  0  0  0  0  0  0  0  0  0
   -6.4143    1.3314   10.3945 H   0  0  0  0  0  0  0  0  0  0  0  0
   -5.3860    0.4229    8.3467 H   0  0  0  0  0  0  0  0  0  0  0  0
   -7.2991   -0.9150    1.3458 H   0  0  0  0  0  0  0  0  0  0  0  0
   -9.0527   -2.6313    1.0993 H   0  0  0  0  0  0  0  0  0  0  0  0
   -7.4980   -6.9182    0.9154 H   0  0  0  0  0  0  0  0  0  0  0  0
   -9.0805   -7.6696    1.2298 H   0  0  0  0  0  0  0  0  0  0  0  0
   -8.0219   -7.2641    2.6000 H   0  0  0  0  0  0  0  0  0  0  0  0
   -6.3980   -5.5697    2.7125 H   0  0  0  0  0  0  0  0  0  0  0  0
   -4.6665   -3.8684    2.9687 H   0  0  0  0  0  0  0  0  0  0  0  0
   -4.2991    1.2806    2.6712 H   0  0  0  0  0  0  0  0  0  0  0  0
   -3.7497    2.8994    0.9019 H   0  0  0  0  0  0  0  0  0  0  0  0
   -3.2838    1.0582   -3.6905 H   0  0  0  0  0  0  0  0  0  0  0  0
   -2.0177    0.9999   -2.4266 H   0  0  0  0  0  0  0  0  0  0  0  0
   -2.0374    2.3222   -3.6205 H   0  0  0  0  0  0  0  0  0  0  0  0
   -4.6811   -0.0340   -2.0605 H   0  0  0  0  0  0  0  0  0  0  0  0
   -5.1351   -1.6776   -0.2985 H   0  0  0  0  0  0  0  0  0  0  0  0
   -2.6769   -1.3420   -1.0111 H   0  0  0  0  0  0  0  0  0  0  0  0
   -2.2008   -2.0524   -3.2918 H   0  0  0  0  0  0  0  0  0  0  0  0
   -1.0264   -2.1170   -5.2720 H   0  0  0  0  0  0  0  0  0  0  0  0
   -2.3584   -3.3227   -5.3418 H   0  0  0  0  0  0  0  0  0  0  0  0
   -0.9616   -3.4535   -6.4373 H   0  0  0  0  0  0  0  0  0  0  0  0
    0.2880   -5.1803   -1.7829 H   0  0  0  0  0  0  0  0  0  0  0  0
   -0.1598   -4.4388    0.5105 H   0  0  0  0  0  0  0  0  0  0  0  0
    0.0997   -1.9043    3.1957 H   0  0  0  0  0  0  0  0  0  0  0  0
    0.7730   -3.5281    4.8840 H   0  0  0  0  0  0  0  0  0  0  0  0
    2.3221   -6.9065    5.4966 H   0  0  0  0  0  0  0  0  0  0  0  0
    2.0974   -5.1795    5.8501 H   0  0  0  0  0  0  0  0  0  0  0  0
    2.1018   -5.7540    4.1565 H   0  0  0  0  0  0  0  0  0  0  0  0
   -2.0838   -6.3178    3.3584 H   0  0  0  0  0  0  0  0  0  0  0  0
   -2.7719   -4.6655    1.6508 H   0  0  0  0  0  0  0  0  0  0  0  0
    0.8225    5.3311    2.5689 H   0  0  0  0  0  0  0  0  0  0  0  0
   -0.8206    7.1539    2.5991 H   0  0  0  0  0  0  0  0  0  0  0  0
   -5.3087    7.9317    0.2976 H   0  0  0  0  0  0  0  0  0  0  0  0
   -4.8695    6.2187    0.4968 H   0  0  0  0  0  0  0  0  0  0  0  0
   -4.3008    7.1378   -0.9316 H   0  0  0  0  0  0  0  0  0  0  0  0
   -2.9348    5.2990   -0.6310 H   0  0  0  0  0  0  0  0  0  0  0  0
   -1.3002    3.5146   -0.6693 H   0  0  0  0  0  0  0  0  0  0  0  0
    2.3358    5.4094    0.6227 H   0  0  0  0  0  0  0  0  0  0  0  0
    4.7126    5.5663    1.2439 H   0  0  0  0  0  0  0  0  0  0  0  0
    8.1521    2.2660    3.1306 H   0  0  0  0  0  0  0  0  0  0  0  0
    6.9665    1.4035    2.1270 H   0  0  0  0  0  0  0  0  0  0  0  0
    6.5509    1.8938    3.8038 H   0  0  0  0  0  0  0  0  0  0  0  0
    4.6508    1.4862    2.5085 H   0  0  0  0  0  0  0  0  0  0  0  0
    2.2923    1.3396    1.9205 H   0  0  0  0  0  0  0  0  0  0  0  0
    4.1965   -1.8768   -3.9414 H   0  0  0  0  0  0  0  0  0  0  0  0
    4.0401   -2.6451   -6.2701 H   0  0  0  0  0  0  0  0  0  0  0  0
    4.1949   -0.8403   -8.3337 H   0  0  0  0  0  0  0  0  0  0  0  0
    3.8325   -1.5421   -9.9375 H   0  0  0  0  0  0  0  0  0  0  0  0
    4.4619   -2.5880   -8.6449 H   0  0  0  0  0  0  0  0  0  0  0  0
    0.3807   -0.4990   -6.7511 H   0  0  0  0  0  0  0  0  0  0  0  0
    0.5189    0.2467   -4.3895 H   0  0  0  0  0  0  0  0  0  0  0  0
    2.0564   -2.7895   -2.5232 H   0  0  0  0  0  0  0  0  0  0  0  0
    2.3447   -4.1346   -0.4936 H   0  0  0  0  0  0  0  0  0  0  0  0
    4.5933   -2.0784    3.3013 H   0  0  0  0  0  0  0  0  0  0  0  0
    3.5443   -3.0238    4.3757 H   0  0  0  0  0  0  0  0  0  0  0  0
    2.8803   -1.6017    3.5418 H   0  0  0  0  0  0  0  0  0  0  0  0
    3.8578   -0.7095    1.5647 H   0  0  0  0  0  0  0  0  0  0  0  0
    3.6281    0.6144   -0.4545 H   0  0  0  0  0  0  0  0  0  0  0  0
    0.2553    6.8510   -3.8805 H   0  0  0  0  0  0  0  0  0  0  0  0
   -0.1197    8.0232   -1.7666 H   0  0  0  0  0  0  0  0  0  0  0  0
   -0.6697    8.8521    0.3404 H   0  0  0  0  0  0  0  0  0  0  0  0
    0.2043   10.1068    1.2377 H   0  0  0  0  0  0  0  0  0  0  0  0
    0.3189   10.0692   -0.5360 H   0  0  0  0  0  0  0  0  0  0  0  0
    3.8622    7.0605   -0.5356 H   0  0  0  0  0  0  0  0  0  0  0  0
    4.2052    5.8050   -2.6322 H   0  0  0  0  0  0  0  0  0  0  0  0
    1.2783    4.4568   -6.7360 H   0  0  0  0  0  0  0  0  0  0  0  0
    0.6922    5.5946   -8.8030 H   0  0  0  0  0  0  0  0  0  0  0  0
    0.4551    7.7205  -11.7644 H   0  0  0  0  0  0  0  0  0  0  0  0
   -0.3568    6.7188  -10.5434 H   0  0  0  0  0  0  0  0  0  0  0  0
    1.3760    6.4519  -10.9271 H   0  0  0  0  0  0  0  0  0  0  0  0
    2.2047    9.2690   -7.2159 H   0  0  0  0  0  0  0  0  0  0  0  0
    2.8196    8.1112   -5.1338 H   0  0  0  0  0  0  0  0  0  0  0  0
    4.1561    5.2356   -6.5479 H   0  0  0  0  0  0  0  0  0  0  0  0
    6.1427    0.0419   -9.4896 H   0  0  0  0  0  0  0  0  0  0  0  0
    7.1871    4.7309  -11.0883 H   0  0  0  0  0  0  0  0  0  0  0  0
    9.1792    2.4526  -12.6807 H   0  0  0  0  0  0  0  0  0  0  0  0
    7.2582    3.2137  -14.3619 H   0  0  0  0  0  0  0  0  0  0  0  0
    8.8763    1.5775  -15.6306 H   0  0  0  0  0  0  0  0  0  0  0  0
    8.3533   -0.8975  -14.8190 H   0  0  0  0  0  0  0  0  0  0  0  0
    6.4128   -0.7859  -13.0521 H   0  0  0  0  0  0  0  0  0  0  0  0
    5.5846    1.1789  -14.6200 H   0  0  0  0  0  0  0  0  0  0  0  0
    5.5184    1.7456  -12.9351 H   0  0  0  0  0  0  0  0  0  0  0  0
    8.6657    0.0278  -11.8832 H   0  0  0  0  0  0  0  0  0  0  0  0
  1  2  2  0  0  0  0
  2  3  1  0  0  0  0
  3  4  2  0  0  0  0
  3  5  1  0  0  0  0
  5  6  2  0  0  0  0
  6  7  1  0  0  0  0
  7  8  1  0  0  0  0
  7  9  2  0  0  0  0
  9 10  1  0  0  0  0
 10 11  2  0  0  0  0
 11 12  1  0  0  0  0
 12 13  2  0  0  0  0
 13 14  1  0  0  0  0
 14 15  3  0  0  0  0
 13 16  1  0  0  0  0
 16 17  3  0  0  0  0
  1 18  1  0  0  0  0
 18 19  2  0  0  0  0
 19 20  1  0  0  0  0
 20 21  1  0  0  0  0
 21 22  2  0  0  0  0
 22 23  1  0  0  0  0
 23 24  2  0  0  0  0
 24 25  1  0  0  0  0
 25 26  1  0  0  0  0
 24 27  1  0  0  0  0
 27 28  2  0  0  0  0
 20 29  1  0  0  0  0
 29 30  2  0  0  0  0
 30 31  1  0  0  0  0
 31 32  2  0  0  0  0
 32 33  1  0  0  0  0
 33 34  1  0  0  0  0
 32 35  1  0  0  0  0
 35 36  2  0  0  0  0
 19 37  1  0  0  0  0
 37 38  1  0  0  0  0
 38 39  1  0  0  0  0
 39 40  2  0  0  0  0
 40 41  1  0  0  0  0
 41 42  1  0  0  0  0
 42 43  2  0  0  0  0
 43 44  1  0  0  0  0
 44 45  2  0  0  0  0
 45 46  1  0  0  0  0
 46 47  1  0  0  0  0
 45 48  1  0  0  0  0
 48 49  2  0  0  0  0
 41 50  1  0  0  0  0
 50 51  2  0  0  0  0
 51 52  1  0  0  0  0
 52 53  2  0  0  0  0
 53 54  1  0  0  0  0
 54 55  1  0  0  0  0
 53 56  1  0  0  0  0
 56 57  2  0  0  0  0
 40 58  1  0  0  0  0
 58 59  1  0  0  0  0
 39 60  1  0  0  0  0
 60 61  2  0  0  0  0
 61 62  1  0  0  0  0
 62 63  1  0  0  0  0
 63 64  2  0  0  0  0
 64 65  1  0  0  0  0
 65 66  2  0  0  0  0
 66 67  1  0  0  0  0
 67 68  1  0  0  0  0
 66 69  1  0  0  0  0
 69 70  2  0  0  0  0
 62 71  1  0  0  0  0
 71 72  2  0  0  0  0
 72 73  1  0  0  0  0
 73 74  2  0  0  0  0
 74 75  1  0  0  0  0
 75 76  1  0  0  0  0
 74 77  1  0  0  0  0
 77 78  2  0  0  0  0
 61 79  1  0  0  0  0
 79 80  1  0  0  0  0
 80 81  1  0  0  0  0
 81 82  2  0  0  0  0
 82 83  1  0  0  0  0
 83 84  1  0  0  0  0
 84 85  2  0  0  0  0
 85 86  1  0  0  0  0
 86 87  2  0  0  0  0
 87 88  1  0  0  0  0
 88 89  1  0  0  0  0
 87 90  1  0  0  0  0
 90 91  2  0  0  0  0
 83 92  1  0  0  0  0
 92 93  2  0  0  0  0
 93 94  1  0  0  0  0
 94 95  2  0  0  0  0
 95 96  1  0  0  0  0
 96 97  1  0  0  0  0
 95 98  1  0  0  0  0
 98 99  2  0  0  0  0
 82100  1  0  0  0  0
100101  1  0  0  0  0
 81102  1  0  0  0  0
102103  2  0  0  0  0
103104  1  0  0  0  0
104105  1  0  0  0  0
105106  2  0  0  0  0
106107  1  0  0  0  0
107108  2  0  0  0  0
108109  1  0  0  0  0
109110  1  0  0  0  0
108111  1  0  0  0  0
111112  2  0  0  0  0
104113  1  0  0  0  0
113114  2  0  0  0  0
114115  1  0  0  0  0
115116  2  0  0  0  0
116117  1  0  0  0  0
117118  1  0  0  0  0
116119  1  0  0  0  0
119120  2  0  0  0  0
103121  1  0  0  0  0
121122  1  0  0  0  0
122123  1  0  0  0  0
123124  2  0  0  0  0
124125  1  0  0  0  0
125126  1  0  0  0  0
126127  2  0  0  0  0
127128  1  0  0  0  0
128129  2  0  0  0  0
129130  1  0  0  0  0
130131  1  0  0  0  0
129132  1  0  0  0  0
132133  2  0  0  0  0
125134  1  0  0  0  0
134135  2  0  0  0  0
135136  1  0  0  0  0
136137  2  0  0  0  0
137138  1  0  0  0  0
138139  1  0  0  0  0
137140  1  0  0  0  0
140141  2  0  0  0  0
124142  1  0  0  0  0
142143  1  0  0  0  0
123144  1  0  0  0  0
144145  2  0  0  0  0
145146  1  0  0  0  0
146147  2  0  0  0  0
146148  1  0  0  0  0
148149  2  0  0  0  0
149150  1  0  0  0  0
150151  2  0  0  0  0
151152  1  0  0  0  0
152153  2  0  0  0  0
153154  1  0  0  0  0
154155  2  0  0  0  0
155156  1  0  0  0  0
156157  3  0  0  0  0
155158  1  0  0  0  0
158159  3  0  0  0  0
151160  1  0  0  0  0
160161  1  0  0  0  0
161162  1  0  0  0  0
162163  2  0  0  0  0
163164  1  0  0  0  0
164165  1  0  0  0  0
164166  1  0  0  0  0
 12  2  1  0  0  0  0
 59 18  1  0  0  0  0
101 60  1  0  0  0  0
143102  1  0  0  0  0
154145  1  0  0  0  0
166160  1  0  0  0  0
 11  5  1  0  0  0  0
 28 21  1  0  0  0  0
 36 29  1  0  0  0  0
 58 37  2  0  0  0  0
 70 63  1  0  0  0  0
 78 71  1  0  0  0  0
100 79  2  0  0  0  0
112105  1  0  0  0  0
120113  1  0  0  0  0
142121  2  0  0  0  0
153148  1  0  0  0  0
165161  1  0  0  0  0
 49 42  1  0  0  0  0
 57 50  1  0  0  0  0
 91 84  1  0  0  0  0
 99 92  1  0  0  0  0
133126  1  0  0  0  0
141134  1  0  0  0  0
166150  1  0  0  0  0
  1167  1  0  0  0  0
  6168  1  0  0  0  0
  9169  1  0  0  0  0
 10170  1  0  0  0  0
 22171  1  0  0  0  0
 23172  1  0  0  0  0
 26173  1  0  0  0  0
 26174  1  0  0  0  0
 26175  1  0  0  0  0
 27176  1  0  0  0  0
 28177  1  0  0  0  0
 30178  1  0  0  0  0
 31179  1  0  0  0  0
 34180  1  0  0  0  0
 34181  1  0  0  0  0
 34182  1  0  0  0  0
 35183  1  0  0  0  0
 36184  1  0  0  0  0
 43185  1  0  0  0  0
 44186  1  0  0  0  0
 47187  1  0  0  0  0
 47188  1  0  0  0  0
 47189  1  0  0  0  0
 48190  1  0  0  0  0
 49191  1  0  0  0  0
 51192  1  0  0  0  0
 52193  1  0  0  0  0
 55194  1  0  0  0  0
 55195  1  0  0  0  0
 55196  1  0  0  0  0
 56197  1  0  0  0  0
 57198  1  0  0  0  0
 64199  1  0  0  0  0
 65200  1  0  0  0  0
 68201  1  0  0  0  0
 68202  1  0  0  0  0
 68203  1  0  0  0  0
 69204  1  0  0  0  0
 70205  1  0  0  0  0
 72206  1  0  0  0  0
 73207  1  0  0  0  0
 76208  1  0  0  0  0
 76209  1  0  0  0  0
 76210  1  0  0  0  0
 77211  1  0  0  0  0
 78212  1  0  0  0  0
 85213  1  0  0  0  0
 86214  1  0  0  0  0
 89215  1  0  0  0  0
 89216  1  0  0  0  0
 89217  1  0  0  0  0
 90218  1  0  0  0  0
 91219  1  0  0  0  0
 93220  1  0  0  0  0
 94221  1  0  0  0  0
 97222  1  0  0  0  0
 97223  1  0  0  0  0
 97224  1  0  0  0  0
 98225  1  0  0  0  0
 99226  1  0  0  0  0
106227  1  0  0  0  0
107228  1  0  0  0  0
110229  1  0  0  0  0
110230  1  0  0  0  0
110231  1  0  0  0  0
111232  1  0  0  0  0
112233  1  0  0  0  0
114234  1  0  0  0  0
115235  1  0  0  0  0
118236  1  0  0  0  0
118237  1  0  0  0  0
118238  1  0  0  0  0
119239  1  0  0  0  0
120240  1  0  0  0  0
127241  1  0  0  0  0
128242  1  0  0  0  0
131243  1  0  0  0  0
131244  1  0  0  0  0
131245  1  0  0  0  0
132246  1  0  0  0  0
133247  1  0  0  0  0
135248  1  0  0  0  0
136249  1  0  0  0  0
139250  1  0  0  0  0
139251  1  0  0  0  0
139252  1  0  0  0  0
140253  1  0  0  0  0
141254  1  0  0  0  0
144255  1  0  0  0  0
149256  1  0  0  0  0
152257  1  0  0  0  0
160258  1  0  0  0  0
161259  1  0  0  0  0
162260  1  0  0  0  0
163261  1  0  0  0  0
164262  1  0  0  0  0
165263  1  0  0  0  0
165264  1  0  0  0  0
166265  1  0  0  0  0
M  END
