193

C         -3.54390       -4.12680        4.96200
C         -4.69090       -4.83390        4.68920
C         -5.21310       -5.80580        5.66690
O         -4.82990       -5.98320        6.80500
C         -6.26020       -6.56100        4.93460
C         -6.97680       -7.66680        5.33990
C         -7.87290       -8.21230        4.42900
Br        -8.88230       -9.74550        4.92980
C         -8.04580       -7.67820        3.16040
C         -7.32960       -6.55710        2.76460
C         -6.43470       -5.99410        3.65880
C         -5.55600       -4.83160        3.54030
C         -5.73990       -3.79510        2.65620
C         -5.02520       -2.58450        2.71190
N         -4.49900       -1.56280        2.74900
C         -6.76520       -3.76210        1.69190
N         -7.59550       -3.66530        0.90440
C         -2.66350       -3.57930        4.02340
C         -1.78040       -2.48990        4.14360
N         -1.57670       -1.71020        5.24550
C         -1.67370       -2.21000        6.54970
C         -1.21640       -3.49110        6.85420
C         -1.37970       -4.01230        8.12160
C         -1.99750       -3.25500        9.10990
S         -2.30850       -3.86740       10.73160
C         -2.39950       -5.66250       10.46170
C         -2.39070       -1.94760        8.82660
C         -2.23330       -1.42880        7.56100
C         -1.23830       -0.35200        5.05830
C         -1.98220        0.44180        4.18480
C         -1.63530        1.76070        3.99630
C         -0.54890        2.31270        4.67450
S         -0.21660        4.01660        4.37510
C          1.37430        4.31270        5.19390
C          0.18280        1.52410        5.55320
C         -0.16220        0.19950        5.74310
C         -1.15950       -2.21940        2.90470
S         -0.00930       -1.03890        2.39840
C          0.05950       -1.75590        0.79060
C         -0.74380       -2.89190        0.68970
N         -0.83840       -3.72710       -0.40800
C          0.28380       -4.13270       -1.13040
C          0.12810       -4.61820       -2.43050
C          1.22160       -5.03540       -3.15170
C          2.50320       -4.94300       -2.61390
S          3.84320       -5.44060       -3.65690
C          5.28010       -5.47190       -2.55180
C          2.66580       -4.46000       -1.32430
C          1.56420       -4.07760       -0.58420
C         -2.06780       -4.40010       -0.57380
C         -3.25490       -3.66900       -0.59400
C         -4.46580       -4.31880       -0.67530
C         -4.51720       -5.71160       -0.72310
S         -6.12310       -6.43450       -0.75600
C         -5.80370       -8.22350       -0.75510
C         -3.33460       -6.43990       -0.73190
C         -2.12010       -5.78670       -0.66010
C         -1.45280       -3.11500        1.89000
S         -2.59350       -4.30220        2.40630
C          0.74130       -1.03680       -0.21990
C          1.58970        0.04540        0.00510
N          2.10270        0.41740        1.24180
C          2.13310        1.79640        1.50880
C          3.27190        2.42080        2.01320
C          3.28870        3.78760        2.18230
C          2.17880        4.55860        1.84260
S          2.32820        6.30090        2.07500
C          0.65690        6.92350        1.74070
C          1.03800        3.93750        1.35450
C          1.01610        2.56710        1.19990
C          2.80190       -0.49330        2.03510
C          3.41090       -1.61360        1.47730
C          4.05650       -2.53860        2.27560
C          4.11500       -2.35300        3.64950
S          4.89650       -3.46860        4.77360
C          5.69350       -4.69270        3.69570
C          3.51600       -1.22590        4.21170
C          2.86490       -0.31030        3.41930
C          1.83740        0.76180       -1.18180
S          2.61280        2.26750       -1.50450
C          2.16100        2.15150       -3.19650
C          1.38600        1.01640       -3.46980
N          0.73920        0.73340       -4.65570
C          0.18220        1.75020       -5.44320
C          0.17840        1.64180       -6.83620
C         -0.25640        2.69000       -7.61320
C         -0.69130        3.87690       -7.02440
S         -1.12310        5.19490       -8.10670
C         -1.03590        6.65760       -7.03700
C         -0.75600        3.96130       -5.63810
C         -0.32820        2.90650       -4.85820
C          0.64300       -0.60610       -5.06590
C         -0.53800       -1.09600       -5.62190
C         -0.59440       -2.38840       -6.09240
C          0.52530       -3.21460       -6.02130
S          0.36900       -4.83780       -6.69820
C          2.08900       -5.30660       -7.05290
C          1.69000       -2.74490       -5.42840
C          1.74500       -1.45020       -4.95360
C          1.22980        0.22640       -2.30860
S          0.35370       -1.22490       -1.92950
C          2.55930        3.21510       -4.05580
C          2.69770        3.10440       -5.43750
C          2.96710        4.21180       -6.22630
F          3.06850        4.00800       -7.55350
C          3.19830        5.50010       -5.74570
C          3.10250        5.63540       -4.33530
C          2.80400        4.50370       -3.50500
N          2.71420        4.83840       -2.22100
S          2.97260        6.41910       -2.07330
N          3.18580        6.76000       -3.63080
C          3.46560        6.60340       -6.61190
C          4.34000        7.60860       -6.32530
C          5.44970        7.48940       -5.34680
O          5.69420        6.57630       -4.59120
C          6.30790        8.67210       -5.59400
C          7.48940        9.01110       -4.96840
C          8.13200       10.16280       -5.40240
Br         9.75930       10.68530       -4.57300
C          7.61850       10.94170       -6.43100
C          6.43090       10.59130       -7.05560
C          5.76650        9.44880       -6.63320
C          4.51430        8.83900       -7.06730
C          3.60260        9.39240       -7.92790
C          3.80410       10.60310       -8.62130
N          3.92570       11.57780       -9.21550
C          2.32190        8.85420       -8.16900
N          1.24720        8.50090       -8.36530
H         -3.27730       -4.07060        6.01120
H         -6.84090       -8.08640        6.32460
H         -8.74370       -8.13790        2.47750
H         -7.46450       -6.15740        1.77220
H         -0.73550       -4.08130        6.08760
H         -1.02530       -5.00880        8.32860
H         -3.01150       -5.86140        9.58680
H         -2.87330       -6.07060       11.34900
H         -1.40350       -6.08270       10.35420
H         -2.84640       -1.35670        9.60560
H         -2.56980       -0.42800        7.33650
H         -2.82870        0.01710        3.66580
H         -2.20780        2.38420        3.32740
H          1.65790        5.32680        4.92960
H          1.26300        4.23070        6.27110
H          2.11520        3.61670        4.81130
H          1.02170        1.92730        6.09750
H          0.40900       -0.41440        6.42380
H         -0.85610       -4.66780       -2.86940
H          1.08630       -5.43730       -4.14210
H          6.09500       -5.87960       -3.14200
H          5.52830       -4.46430       -2.23040
H          5.07590       -6.12060       -1.70490
H          3.64360       -4.38630       -0.87470
H          1.70440       -3.73570        0.43080
H         -3.21860       -2.59120       -0.53610
H         -5.38740       -3.75810       -0.69620
H         -5.25820       -8.50630       -1.65040
H         -6.78260       -8.69250       -0.75990
H         -5.26440       -8.50540        0.14470
H         -3.34280       -7.51650       -0.78030
H         -1.20320       -6.35740       -0.65180
H          4.14490        1.83310        2.25450
H          4.17140        4.27840        2.56350
H         -0.05430        6.42870        2.39610
H          0.68970        7.98570        1.96220
H          0.40700        6.77320        0.69450
H          0.15960        4.50430        1.09640
H          0.12560        2.08220        0.82830
H          3.38050       -1.75990        0.40740
H          4.51390       -3.39760        1.81090
H          6.38510       -4.19630        3.02140
H          6.23910       -5.35480        4.36090
H          4.94300       -5.25800        3.15030
H          3.56110       -1.08850        5.28110
H          2.37830        0.54540        3.86170
H          0.55200        0.74330       -7.30430
H         -0.23200        2.61790       -8.68900
H         -0.13300        6.61100       -6.43550
H         -0.97810        7.50850       -7.70760
H         -1.92380        6.72790       -6.41510
H         -1.14000        4.84600       -5.15590
H         -0.37790        2.98550       -3.78220
H         -1.40080       -0.45120       -5.69300
H         -1.50320       -2.77010       -6.53100
H          2.57300       -4.50230       -7.59770
H          2.02760       -6.19370       -7.67530
H          2.62550       -5.53740       -6.13660
H          2.56110       -3.37380       -5.34280
H          2.65820       -1.07920       -4.51100
H          2.61840        2.14780       -5.92510
H          2.95880        6.59270       -7.57010
H          7.88820        8.40040       -4.17320
H          8.15040       11.82590       -6.74680
H          6.05080       11.20360       -7.85700
