152

C         -4.67620        6.33610        8.57620
C         -5.99010        6.56600        8.32940
C         -6.83060        7.05830        9.46150
O         -6.43720        7.50510       10.51230
C         -8.22730        6.82920        9.03630
C         -9.38710        6.98880        9.76700
C        -10.58360        6.67090        9.13890
Br       -12.21410        6.87110       10.09200
C        -10.61890        6.20350        7.83080
C         -9.44950        6.05410        7.10180
C         -8.24200        6.37580        7.70490
C         -6.87220        6.35720        7.19420
C         -6.54070        6.39270        5.86780
C         -7.48300        6.31060        4.81980
N         -8.20520        6.24550        3.93050
C         -5.23730        6.60820        5.37350
N         -4.21450        6.82320        4.90140
C         -3.69210        5.57820        7.85660
C         -4.03710        4.58690        6.92110
C         -3.03570        3.89000        6.29530
C         -3.14910        2.87210        5.21890
O         -4.15760        2.43090        4.72200
C         -1.74090        2.54590        4.88030
C         -0.87130        3.25460        5.73440
C         -1.67480        4.11760        6.58680
C         -1.32830        5.06900        7.53060
C         -2.33620        5.78390        8.15320
C          0.49480        3.06530        5.62870
C          0.98110        2.26380        4.60580
C          0.12550        1.66780        3.67840
C         -1.26370        1.76200        3.86120
C          0.63080        1.03660        2.47780
C          0.14020        1.23450        1.19760
N         -0.85290        2.14230        0.86090
C         -1.75940        1.83350       -0.15690
C         -2.26400        2.83460       -0.98240
C         -3.15250        2.53270       -1.99500
C         -3.54700        1.21800       -2.20760
S         -4.66460        0.70620       -3.47260
C         -5.12720        2.25200       -4.30390
C         -3.04650        0.21320       -1.38170
C         -2.16940        0.51520       -0.36520
C         -0.92310        3.36090        1.55660
C         -2.14540        3.89810        1.96280
C         -2.17610        5.00320        2.78500
C         -0.99190        5.59850        3.21720
S         -1.13520        6.91310        4.37990
C          0.58090        7.16990        4.92980
C          0.22150        5.12610        2.73320
C          0.25110        4.02100        1.90890
C          0.87600        0.47250        0.25340
S          0.76460        0.23440       -1.45420
C          2.17970       -0.79930       -1.41970
C          2.67140       -0.99430       -0.14110
N          3.70080       -1.85790        0.20740
C          3.90080       -3.04470       -0.51050
C          5.19020       -3.47140       -0.83160
C          5.37590       -4.55580       -1.65890
C          4.28370       -5.23820       -2.19090
S          4.64450       -6.52310       -3.34690
C          3.01620       -7.13320       -3.85940
C          3.00130       -4.86710       -1.81010
C          2.81620       -3.78690       -0.97100
C          4.56380       -1.49970        1.25010
C          4.93960       -0.16820        1.43520
C          5.76350        0.18220        2.48080
C          6.24220       -0.78680        3.35980
S          7.28190       -0.21250        4.66630
C          7.70850       -1.71790        5.58490
C          5.88770       -2.11560        3.16760
C          5.05340       -2.46560        2.12450
C          1.92290       -0.24700        0.80490
S          2.03680       -0.00750        2.51410
C          2.66280       -1.42640       -2.63470
C          1.76530       -2.05640       -3.50710
C          2.27430       -2.83040       -4.52290
C          1.55430       -3.70800       -5.48440
O          0.36460       -3.89330       -5.57160
C          2.63930       -4.36440       -6.26660
C          3.89040       -3.92510       -5.78570
C          3.66350       -2.96280       -4.71950
C          4.54590       -2.25380       -3.92700
C          4.03600       -1.49310       -2.88810
C          5.05650       -4.47210       -6.29040
C          4.95900       -5.43310       -7.28180
C          3.72320       -5.82650       -7.81290
C          2.53990       -5.29230       -7.27380
C          3.70310       -6.82110       -8.85510
C          2.84620       -6.88110       -9.90630
C          1.98860       -5.75850      -10.38040
O          1.78230       -4.69300       -9.84940
C          1.50650       -6.17970      -11.71520
C          0.70930       -5.46980      -12.58960
C          0.39200       -6.07650      -13.79710
Br        -0.70530       -5.15310      -15.04180
C          0.85990       -7.34480      -14.11980
C          1.66110       -8.04920      -13.23550
C          1.98870       -7.46490      -12.01870
C          2.78860       -7.94460      -10.89880
C          3.31700       -9.20110      -10.77050
C          3.21810      -10.20490      -11.75740
N          3.17690      -11.05580      -12.52630
C          3.99920       -9.67550       -9.62920
N          4.54200      -10.13610       -8.72860
H         -4.33800        6.74330        9.52600
H         -9.35450        7.34610       10.78460
H        -11.56740        5.95560        7.37970
H         -9.49590        5.68210        6.09130
H         -5.06820        4.34180        6.71810
H         -0.29460        5.25920        7.77690
H         -2.07730        6.54020        8.88010
H          1.18040        3.55400        6.30500
H          2.04730        2.13720        4.48370
H         -1.94440        1.24020        3.20630
H         -1.95260        3.85730       -0.83010
H         -3.52140        3.33320       -2.61520
H         -5.82830        1.96550       -5.08170
H         -4.25000        2.71130       -4.75050
H         -5.61150        2.92220       -3.59970
H         -3.36380       -0.80540       -1.54410
H         -1.80530       -0.26880        0.28240
H         -3.06730        3.41960        1.66860
H         -3.11640        5.40050        3.13570
H          0.51720        7.85740        5.76720
H          1.17280        7.61650        4.13650
H          1.00640        6.22510        5.25360
H          1.15120        5.60430        2.99450
H          1.20010        3.64710        1.55320
H          6.04270       -2.92760       -0.45270
H          6.37190       -4.87150       -1.92900
H          3.21380       -7.88920       -4.61350
H          2.43290       -6.32550       -4.29270
H          2.50450       -7.58260       -3.01320
H          2.13600       -5.40220       -2.16630
H          1.81430       -3.49890       -0.68980
H          4.58590        0.58860        0.75050
H          6.05340        1.21160        2.62630
H          8.35010       -1.39130        6.39750
H          6.80920       -2.17570        5.98680
H          8.25030       -2.40540        4.94190
H          6.24420       -2.88940        3.82770
H          4.77110       -3.49880        1.98660
H          0.69970       -1.98180       -3.34810
H          5.61100       -2.30910       -4.09020
H          4.71180       -0.94740       -2.24660
H          6.02100       -4.17460       -5.90960
H          5.85960       -5.87750       -7.68050
H          1.57230       -5.63070       -7.60710
H          4.48710       -7.56680       -8.79130
H          0.35070       -4.48500      -12.33290
H          0.59640       -7.78340      -15.07000
H          2.01830       -9.02880      -13.50760
