
  xtb     02112205303D
 energy: -273.734010918764 gnorm: 0.002123075396 xtb: 6.4.1 (unknown)
155170  0     0  0            999 V2000
    4.6439  -10.8424   -1.0619 C   0  0  0  0  0  0  0  0  0  0  0  0
    4.2225  -11.4672   -2.1913 C   0  0  0  0  0  0  0  0  0  0  0  0
    3.7682  -10.7763   -3.4314 C   0  0  0  0  0  0  0  0  0  0  0  0
    3.6327   -9.5909   -3.6243 O   0  0  0  0  0  0  0  0  0  0  0  0
    3.6225  -11.8473   -4.4416 C   0  0  0  0  0  0  0  0  0  0  0  0
    3.2242  -11.7203   -5.7567 C   0  0  0  0  0  0  0  0  0  0  0  0
    3.1650  -12.8790   -6.5179 C   0  0  0  0  0  0  0  0  0  0  0  0
    2.6129  -12.7736   -8.3319 Br  0  0  0  0  0  0  0  0  0  0  0  0
    3.5012  -14.1177   -5.9845 C   0  0  0  0  0  0  0  0  0  0  0  0
    3.9036  -14.2337   -4.6636 C   0  0  0  0  0  0  0  0  0  0  0  0
    3.9633  -13.0892   -3.8786 C   0  0  0  0  0  0  0  0  0  0  0  0
    4.3278  -12.8906   -2.4799 C   0  0  0  0  0  0  0  0  0  0  0  0
    4.6466  -13.8829   -1.5927 C   0  0  0  0  0  0  0  0  0  0  0  0
    4.9319  -13.6927   -0.2230 C   0  0  0  0  0  0  0  0  0  0  0  0
    5.1634  -13.6181    0.8988 N   0  0  0  0  0  0  0  0  0  0  0  0
    4.7219  -15.2517   -1.9305 C   0  0  0  0  0  0  0  0  0  0  0  0
    4.8084  -16.3759   -2.1436 N   0  0  0  0  0  0  0  0  0  0  0  0
    4.4446   -9.4537   -0.7326 C   0  0  0  0  0  0  0  0  0  0  0  0
    3.2453   -8.7874   -1.0393 C   0  0  0  0  0  0  0  0  0  0  0  0
    3.1312   -7.4592   -0.7160 C   0  0  0  0  0  0  0  0  0  0  0  0
    1.9800   -6.5396   -0.9289 C   0  0  0  0  0  0  0  0  0  0  0  0
    0.8946   -6.8031   -1.3850 O   0  0  0  0  0  0  0  0  0  0  0  0
    2.4712   -5.2229   -0.4415 C   0  0  0  0  0  0  0  0  0  0  0  0
    3.7881   -5.3614    0.0414 C   0  0  0  0  0  0  0  0  0  0  0  0
    4.1884   -6.7513   -0.1064 C   0  0  0  0  0  0  0  0  0  0  0  0
    5.3494   -7.4167    0.2460 C   0  0  0  0  0  0  0  0  0  0  0  0
    5.4564   -8.7651   -0.0510 C   0  0  0  0  0  0  0  0  0  0  0  0
    4.4714   -4.2523    0.5042 C   0  0  0  0  0  0  0  0  0  0  0  0
    3.8214   -3.0296    0.5245 C   0  0  0  0  0  0  0  0  0  0  0  0
    2.4903   -2.8995    0.1128 C   0  0  0  0  0  0  0  0  0  0  0  0
    1.8223   -4.0131   -0.4167 C   0  0  0  0  0  0  0  0  0  0  0  0
    1.8000   -1.6354    0.2371 C   0  0  0  0  0  0  0  0  0  0  0  0
    1.8818   -0.7079    1.2631 C   0  0  0  0  0  0  0  0  0  0  0  0
    2.5526   -0.8970    2.4602 N   0  0  0  0  0  0  0  0  0  0  0  0
    3.1217    0.2000    3.1193 C   0  0  0  0  0  0  0  0  0  0  0  0
    3.7169    1.2315    2.3985 C   0  0  0  0  0  0  0  0  0  0  0  0
    4.2611    2.3236    3.0467 C   0  0  0  0  0  0  0  0  0  0  0  0
    4.2258    2.3968    4.4319 C   0  0  0  0  0  0  0  0  0  0  0  0
    4.8970    3.7341    5.3684 S   0  0  0  0  0  0  0  0  0  0  0  0
    5.2077    5.0173    4.1222 C   0  0  0  0  0  0  0  0  0  0  0  0
    3.6485    1.3559    5.1586 C   0  0  0  0  0  0  0  0  0  0  0  0
    3.0997    0.2724    4.5130 C   0  0  0  0  0  0  0  0  0  0  0  0
    2.6979   -2.1888    2.9873 C   0  0  0  0  0  0  0  0  0  0  0  0
    3.9029   -2.5806    3.5634 C   0  0  0  0  0  0  0  0  0  0  0  0
    4.1043   -3.8877    3.9617 C   0  0  0  0  0  0  0  0  0  0  0  0
    3.1006   -4.8304    3.7865 C   0  0  0  0  0  0  0  0  0  0  0  0
    3.2791   -6.5505    4.1368 S   0  0  0  0  0  0  0  0  0  0  0  0
    4.8889   -6.6576    4.9715 C   0  0  0  0  0  0  0  0  0  0  0  0
    1.8683   -4.4267    3.2741 C   0  0  0  0  0  0  0  0  0  0  0  0
    1.6650   -3.1223    2.8886 C   0  0  0  0  0  0  0  0  0  0  0  0
    1.0959    0.4378    0.9699 C   0  0  0  0  0  0  0  0  0  0  0  0
    0.7882    1.9348    1.7815 S   0  0  0  0  0  0  0  0  0  0  0  0
   -0.2462    2.4555    0.4668 C   0  0  0  0  0  0  0  0  0  0  0  0
   -0.4112    1.4827   -0.5039 C   0  0  0  0  0  0  0  0  0  0  0  0
   -1.3162    1.5567   -1.5522 N   0  0  0  0  0  0  0  0  0  0  0  0
   -1.0323    0.9250   -2.7673 C   0  0  0  0  0  0  0  0  0  0  0  0
    0.2711    0.8787   -3.2557 C   0  0  0  0  0  0  0  0  0  0  0  0
    0.5609    0.2144   -4.4317 C   0  0  0  0  0  0  0  0  0  0  0  0
   -0.4529   -0.4087   -5.1452 C   0  0  0  0  0  0  0  0  0  0  0  0
   -0.1889   -1.2897   -6.6529 S   0  0  0  0  0  0  0  0  0  0  0  0
    1.5835   -1.6845   -6.5952 C   0  0  0  0  0  0  0  0  0  0  0  0
   -1.7644   -0.3332   -4.6796 C   0  0  0  0  0  0  0  0  0  0  0  0
   -2.0525    0.3212   -3.5041 C   0  0  0  0  0  0  0  0  0  0  0  0
   -2.5273    2.2428   -1.3683 C   0  0  0  0  0  0  0  0  0  0  0  0
   -3.2122    2.1571   -0.1551 C   0  0  0  0  0  0  0  0  0  0  0  0
   -4.3118    2.9476    0.0802 C   0  0  0  0  0  0  0  0  0  0  0  0
   -4.7690    3.8330   -0.8953 C   0  0  0  0  0  0  0  0  0  0  0  0
   -6.1121    4.8766   -0.4262 S   0  0  0  0  0  0  0  0  0  0  0  0
   -6.4243    5.8817   -1.9047 C   0  0  0  0  0  0  0  0  0  0  0  0
   -4.1470    3.8553   -2.1354 C   0  0  0  0  0  0  0  0  0  0  0  0
   -3.0343    3.0684   -2.3669 C   0  0  0  0  0  0  0  0  0  0  0  0
    0.3914    0.3480   -0.2197 C   0  0  0  0  0  0  0  0  0  0  0  0
    0.6715   -1.1564   -1.0187 S   0  0  0  0  0  0  0  0  0  0  0  0
   -0.8791    3.7593    0.4806 C   0  0  0  0  0  0  0  0  0  0  0  0
   -1.5268    4.2333    1.6290 C   0  0  0  0  0  0  0  0  0  0  0  0
   -2.2941    5.3693    1.5254 C   0  0  0  0  0  0  0  0  0  0  0  0
   -3.1834    5.9988    2.5387 C   0  0  0  0  0  0  0  0  0  0  0  0
   -3.3318    5.6825    3.6940 O   0  0  0  0  0  0  0  0  0  0  0  0
   -3.8518    7.1073    1.8022 C   0  0  0  0  0  0  0  0  0  0  0  0
   -3.3621    7.1509    0.4804 C   0  0  0  0  0  0  0  0  0  0  0  0
   -2.3980    6.0761    0.3109 C   0  0  0  0  0  0  0  0  0  0  0  0
   -1.6697    5.6719   -0.7913 C   0  0  0  0  0  0  0  0  0  0  0  0
   -0.9217    4.5106   -0.6978 C   0  0  0  0  0  0  0  0  0  0  0  0
   -3.8597    8.0809   -0.4128 C   0  0  0  0  0  0  0  0  0  0  0  0
   -4.8132    8.9853    0.0262 C   0  0  0  0  0  0  0  0  0  0  0  0
   -5.2774    8.9745    1.3457 C   0  0  0  0  0  0  0  0  0  0  0  0
   -4.8108    7.9878    2.2346 C   0  0  0  0  0  0  0  0  0  0  0  0
   -6.2442    9.9265    1.8313 C   0  0  0  0  0  0  0  0  0  0  0  0
   -6.3294   11.2432    1.5157 C   0  0  0  0  0  0  0  0  0  0  0  0
   -5.2778   12.0499    0.8320 C   0  0  0  0  0  0  0  0  0  0  0  0
   -4.3030   11.6647    0.2269 O   0  0  0  0  0  0  0  0  0  0  0  0
   -5.6336   13.4567    1.1027 C   0  0  0  0  0  0  0  0  0  0  0  0
   -4.9360   14.5938    0.7421 C   0  0  0  0  0  0  0  0  0  0  0  0
   -5.4362   15.8421    1.0920 C   0  0  0  0  0  0  0  0  0  0  0  0
   -4.7411   17.1128    0.7306 C   0  0  0  0  0  0  0  0  0  0  0  0
   -6.6375   15.8787    1.8060 C   0  0  0  0  0  0  0  0  0  0  0  0
   -7.1245   17.0828    2.1549 F   0  0  0  0  0  0  0  0  0  0  0  0
   -7.3566   14.7557    2.1789 C   0  0  0  0  0  0  0  0  0  0  0  0
   -6.8419   13.5197    1.8169 C   0  0  0  0  0  0  0  0  0  0  0  0
   -7.3334   12.1656    2.0325 C   0  0  0  0  0  0  0  0  0  0  0  0
   -8.5532   11.8250    2.5471 C   0  0  0  0  0  0  0  0  0  0  0  0
   -9.0531   10.5062    2.6247 C   0  0  0  0  0  0  0  0  0  0  0  0
   -9.5363    9.4671    2.6881 N   0  0  0  0  0  0  0  0  0  0  0  0
   -9.4934   12.7610    3.0293 C   0  0  0  0  0  0  0  0  0  0  0  0
  -10.2880   13.4772    3.4440 N   0  0  0  0  0  0  0  0  0  0  0  0
    5.2143  -11.4121   -0.3383 H   0  0  0  0  0  0  0  0  0  0  0  0
    2.9669  -10.7544   -6.1634 H   0  0  0  0  0  0  0  0  0  0  0  0
    3.4470  -14.9977   -6.6070 H   0  0  0  0  0  0  0  0  0  0  0  0
    4.1642  -15.2037   -4.2734 H   0  0  0  0  0  0  0  0  0  0  0  0
    2.4171   -9.3089   -1.4911 H   0  0  0  0  0  0  0  0  0  0  0  0
    6.1589   -6.9010    0.7404 H   0  0  0  0  0  0  0  0  0  0  0  0
    6.3600   -9.2974    0.2105 H   0  0  0  0  0  0  0  0  0  0  0  0
    5.4950   -4.3263    0.8389 H   0  0  0  0  0  0  0  0  0  0  0  0
    4.3563   -2.1511    0.8519 H   0  0  0  0  0  0  0  0  0  0  0  0
    0.8075   -3.9249   -0.7755 H   0  0  0  0  0  0  0  0  0  0  0  0
    3.7626    1.1745    1.3205 H   0  0  0  0  0  0  0  0  0  0  0  0
    4.7174    3.1031    2.4582 H   0  0  0  0  0  0  0  0  0  0  0  0
    6.0301    4.7256    3.4744 H   0  0  0  0  0  0  0  0  0  0  0  0
    5.4807    5.9074    4.6810 H   0  0  0  0  0  0  0  0  0  0  0  0
    4.3010    5.2005    3.5534 H   0  0  0  0  0  0  0  0  0  0  0  0
    3.6272    1.4180    6.2357 H   0  0  0  0  0  0  0  0  0  0  0  0
    2.6404   -0.5237    5.0797 H   0  0  0  0  0  0  0  0  0  0  0  0
    4.7004   -1.8602    3.6749 H   0  0  0  0  0  0  0  0  0  0  0  0
    5.0586   -4.1597    4.3823 H   0  0  0  0  0  0  0  0  0  0  0  0
    4.9900   -7.6955    5.2760 H   0  0  0  0  0  0  0  0  0  0  0  0
    4.8933   -6.0137    5.8474 H   0  0  0  0  0  0  0  0  0  0  0  0
    5.6887   -6.3964    4.2827 H   0  0  0  0  0  0  0  0  0  0  0  0
    1.0773   -5.1541    3.1762 H   0  0  0  0  0  0  0  0  0  0  0  0
    0.7078   -2.8231    2.4898 H   0  0  0  0  0  0  0  0  0  0  0  0
    1.0645    1.3722   -2.7132 H   0  0  0  0  0  0  0  0  0  0  0  0
    1.5798    0.1972   -4.7840 H   0  0  0  0  0  0  0  0  0  0  0  0
    2.1778   -0.7989   -6.8022 H   0  0  0  0  0  0  0  0  0  0  0  0
    1.7464   -2.4238   -7.3733 H   0  0  0  0  0  0  0  0  0  0  0  0
    1.8269   -2.1064   -5.6248 H   0  0  0  0  0  0  0  0  0  0  0  0
   -2.5497   -0.8112   -5.2444 H   0  0  0  0  0  0  0  0  0  0  0  0
   -3.0669    0.3564   -3.1362 H   0  0  0  0  0  0  0  0  0  0  0  0
   -2.8612    1.4821    0.6108 H   0  0  0  0  0  0  0  0  0  0  0  0
   -4.8255    2.9011    1.0281 H   0  0  0  0  0  0  0  0  0  0  0  0
   -5.5457    6.4743   -2.1405 H   0  0  0  0  0  0  0  0  0  0  0  0
   -7.2497    6.5354   -1.6413 H   0  0  0  0  0  0  0  0  0  0  0  0
   -6.7104    5.2438   -2.7355 H   0  0  0  0  0  0  0  0  0  0  0  0
   -4.5007    4.4987   -2.9245 H   0  0  0  0  0  0  0  0  0  0  0  0
   -2.5373    3.1141   -3.3248 H   0  0  0  0  0  0  0  0  0  0  0  0
   -1.4717    3.6842    2.5571 H   0  0  0  0  0  0  0  0  0  0  0  0
   -1.7001    6.2269   -1.7165 H   0  0  0  0  0  0  0  0  0  0  0  0
   -0.3667    4.1642   -1.5572 H   0  0  0  0  0  0  0  0  0  0  0  0
   -3.5125    8.1116   -1.4348 H   0  0  0  0  0  0  0  0  0  0  0  0
   -5.2305    9.6917   -0.6725 H   0  0  0  0  0  0  0  0  0  0  0  0
   -5.1802    7.9413    3.2483 H   0  0  0  0  0  0  0  0  0  0  0  0
   -6.9252    9.5392    2.5808 H   0  0  0  0  0  0  0  0  0  0  0  0
   -4.0117   14.5029    0.1921 H   0  0  0  0  0  0  0  0  0  0  0  0
   -4.5643   17.7124    1.6226 H   0  0  0  0  0  0  0  0  0  0  0  0
   -3.7931   16.9096    0.2414 H   0  0  0  0  0  0  0  0  0  0  0  0
   -5.3665   17.7047    0.0626 H   0  0  0  0  0  0  0  0  0  0  0  0
   -8.2728   14.8733    2.7338 H   0  0  0  0  0  0  0  0  0  0  0  0
  1  2  2  0  0  0  0
  2  3  1  0  0  0  0
  3  4  2  0  0  0  0
  3  5  1  0  0  0  0
  5  6  2  0  0  0  0
  6  7  1  0  0  0  0
  7  8  1  0  0  0  0
  7  9  2  0  0  0  0
  9 10  1  0  0  0  0
 10 11  2  0  0  0  0
 11 12  1  0  0  0  0
 12 13  2  0  0  0  0
 13 14  1  0  0  0  0
 14 15  3  0  0  0  0
 13 16  1  0  0  0  0
 16 17  3  0  0  0  0
  1 18  1  0  0  0  0
 18 19  2  0  0  0  0
 19 20  1  0  0  0  0
 20 21  1  0  0  0  0
 21 22  2  0  0  0  0
 21 23  1  0  0  0  0
 23 24  2  0  0  0  0
 24 25  1  0  0  0  0
 25 26  1  0  0  0  0
 26 27  2  0  0  0  0
 24 28  1  0  0  0  0
 28 29  2  0  0  0  0
 29 30  1  0  0  0  0
 30 31  2  0  0  0  0
 30 32  1  0  0  0  0
 32 33  2  0  0  0  0
 33 34  1  0  0  0  0
 34 35  1  0  0  0  0
 35 36  2  0  0  0  0
 36 37  1  0  0  0  0
 37 38  2  0  0  0  0
 38 39  1  0  0  0  0
 39 40  1  0  0  0  0
 38 41  1  0  0  0  0
 41 42  2  0  0  0  0
 34 43  1  0  0  0  0
 43 44  2  0  0  0  0
 44 45  1  0  0  0  0
 45 46  2  0  0  0  0
 46 47  1  0  0  0  0
 47 48  1  0  0  0  0
 46 49  1  0  0  0  0
 49 50  2  0  0  0  0
 33 51  1  0  0  0  0
 51 52  1  0  0  0  0
 52 53  1  0  0  0  0
 53 54  2  0  0  0  0
 54 55  1  0  0  0  0
 55 56  1  0  0  0  0
 56 57  2  0  0  0  0
 57 58  1  0  0  0  0
 58 59  2  0  0  0  0
 59 60  1  0  0  0  0
 60 61  1  0  0  0  0
 59 62  1  0  0  0  0
 62 63  2  0  0  0  0
 55 64  1  0  0  0  0
 64 65  2  0  0  0  0
 65 66  1  0  0  0  0
 66 67  2  0  0  0  0
 67 68  1  0  0  0  0
 68 69  1  0  0  0  0
 67 70  1  0  0  0  0
 70 71  2  0  0  0  0
 54 72  1  0  0  0  0
 72 73  1  0  0  0  0
 53 74  1  0  0  0  0
 74 75  2  0  0  0  0
 75 76  1  0  0  0  0
 76 77  1  0  0  0  0
 77 78  2  0  0  0  0
 77 79  1  0  0  0  0
 79 80  2  0  0  0  0
 80 81  1  0  0  0  0
 81 82  1  0  0  0  0
 82 83  2  0  0  0  0
 80 84  1  0  0  0  0
 84 85  2  0  0  0  0
 85 86  1  0  0  0  0
 86 87  2  0  0  0  0
 86 88  1  0  0  0  0
 88 89  2  0  0  0  0
 89 90  1  0  0  0  0
 90 91  2  0  0  0  0
 90 92  1  0  0  0  0
 92 93  2  0  0  0  0
 93 94  1  0  0  0  0
 94 95  1  0  0  0  0
 94 96  2  0  0  0  0
 96 97  1  0  0  0  0
 96 98  1  0  0  0  0
 98 99  2  0  0  0  0
 99100  1  0  0  0  0
100101  2  0  0  0  0
101102  1  0  0  0  0
102103  3  0  0  0  0
101104  1  0  0  0  0
104105  3  0  0  0  0
 12  2  1  0  0  0  0
 27 18  1  0  0  0  0
 73 32  1  0  0  0  0
 83 74  1  0  0  0  0
100 89  1  0  0  0  0
 11  5  1  0  0  0  0
 25 20  2  0  0  0  0
 42 35  1  0  0  0  0
 50 43  1  0  0  0  0
 72 51  2  0  0  0  0
 81 76  2  0  0  0  0
 99 92  1  0  0  0  0
 31 23  1  0  0  0  0
 63 56  1  0  0  0  0
 71 64  1  0  0  0  0
 87 79  1  0  0  0  0
  1106  1  0  0  0  0
  6107  1  0  0  0  0
  9108  1  0  0  0  0
 10109  1  0  0  0  0
 19110  1  0  0  0  0
 26111  1  0  0  0  0
 27112  1  0  0  0  0
 28113  1  0  0  0  0
 29114  1  0  0  0  0
 31115  1  0  0  0  0
 36116  1  0  0  0  0
 37117  1  0  0  0  0
 40118  1  0  0  0  0
 40119  1  0  0  0  0
 40120  1  0  0  0  0
 41121  1  0  0  0  0
 42122  1  0  0  0  0
 44123  1  0  0  0  0
 45124  1  0  0  0  0
 48125  1  0  0  0  0
 48126  1  0  0  0  0
 48127  1  0  0  0  0
 49128  1  0  0  0  0
 50129  1  0  0  0  0
 57130  1  0  0  0  0
 58131  1  0  0  0  0
 61132  1  0  0  0  0
 61133  1  0  0  0  0
 61134  1  0  0  0  0
 62135  1  0  0  0  0
 63136  1  0  0  0  0
 65137  1  0  0  0  0
 66138  1  0  0  0  0
 69139  1  0  0  0  0
 69140  1  0  0  0  0
 69141  1  0  0  0  0
 70142  1  0  0  0  0
 71143  1  0  0  0  0
 75144  1  0  0  0  0
 82145  1  0  0  0  0
 83146  1  0  0  0  0
 84147  1  0  0  0  0
 85148  1  0  0  0  0
 87149  1  0  0  0  0
 88150  1  0  0  0  0
 93151  1  0  0  0  0
 95152  1  0  0  0  0
 95153  1  0  0  0  0
 95154  1  0  0  0  0
 98155  1  0  0  0  0
M  END
