
  xtb     02112209103D
 energy: -334.457277267818 gnorm: 0.000958883444 xtb: 6.4.1 (unknown)
198216  0     0  0            999 V2000
   10.0723   -1.1579    8.2587 C   0  0  0  0  0  0  0  0  0  0  0  0
   10.4831   -0.3714    9.2867 C   0  0  0  0  0  0  0  0  0  0  0  0
    9.8876    0.9378    9.6722 C   0  0  0  0  0  0  0  0  0  0  0  0
    9.1218    1.6358    9.0488 O   0  0  0  0  0  0  0  0  0  0  0  0
   10.3752    1.1929   11.0462 C   0  0  0  0  0  0  0  0  0  0  0  0
   10.0560    2.2498   11.8740 C   0  0  0  0  0  0  0  0  0  0  0  0
   10.6405    2.2714   13.1327 C   0  0  0  0  0  0  0  0  0  0  0  0
   10.2447    3.7027   14.3164 Br  0  0  0  0  0  0  0  0  0  0  0  0
   11.5083    1.2690   13.5496 C   0  0  0  0  0  0  0  0  0  0  0  0
   11.8233    0.2120   12.7106 C   0  0  0  0  0  0  0  0  0  0  0  0
   11.2550    0.1714   11.4440 C   0  0  0  0  0  0  0  0  0  0  0  0
   11.3881   -0.7842   10.3516 C   0  0  0  0  0  0  0  0  0  0  0  0
   12.2669   -1.8317   10.3053 C   0  0  0  0  0  0  0  0  0  0  0  0
   13.1383   -2.1775   11.3604 C   0  0  0  0  0  0  0  0  0  0  0  0
   13.8647   -2.5049   12.1862 N   0  0  0  0  0  0  0  0  0  0  0  0
   12.4533   -2.6781    9.1902 C   0  0  0  0  0  0  0  0  0  0  0  0
   12.6724   -3.3952    8.3213 N   0  0  0  0  0  0  0  0  0  0  0  0
    9.1937   -0.7941    7.1773 C   0  0  0  0  0  0  0  0  0  0  0  0
    8.2879   -1.7630    6.7052 C   0  0  0  0  0  0  0  0  0  0  0  0
    7.3919   -1.4110    5.7276 C   0  0  0  0  0  0  0  0  0  0  0  0
    6.3008   -2.2163    5.1140 C   0  0  0  0  0  0  0  0  0  0  0  0
    6.0165   -3.3692    5.3350 O   0  0  0  0  0  0  0  0  0  0  0  0
    5.6409   -1.2771    4.1686 C   0  0  0  0  0  0  0  0  0  0  0  0
    6.3105   -0.0362    4.1953 C   0  0  0  0  0  0  0  0  0  0  0  0
    7.3960   -0.1185    5.1594 C   0  0  0  0  0  0  0  0  0  0  0  0
    8.3379    0.8104    5.5635 C   0  0  0  0  0  0  0  0  0  0  0  0
    9.2239    0.4680    6.5721 C   0  0  0  0  0  0  0  0  0  0  0  0
    5.8542    1.0070    3.4119 C   0  0  0  0  0  0  0  0  0  0  0  0
    4.7435    0.8046    2.6089 C   0  0  0  0  0  0  0  0  0  0  0  0
    4.0844   -0.4294    2.5603 C   0  0  0  0  0  0  0  0  0  0  0  0
    4.5435   -1.4816    3.3695 C   0  0  0  0  0  0  0  0  0  0  0  0
    2.9258   -0.6274    1.7208 C   0  0  0  0  0  0  0  0  0  0  0  0
    2.5836   -0.0118    0.5298 C   0  0  0  0  0  0  0  0  0  0  0  0
    3.2731    0.9680   -0.1747 N   0  0  0  0  0  0  0  0  0  0  0  0
    4.6471    0.9643   -0.3796 C   0  0  0  0  0  0  0  0  0  0  0  0
    5.4015   -0.1978   -0.2364 C   0  0  0  0  0  0  0  0  0  0  0  0
    6.7746   -0.1726   -0.3795 C   0  0  0  0  0  0  0  0  0  0  0  0
    7.4228    1.0169   -0.6794 C   0  0  0  0  0  0  0  0  0  0  0  0
    9.1724    1.1812   -0.8552 S   0  0  0  0  0  0  0  0  0  0  0  0
    9.8087   -0.4782   -0.4889 C   0  0  0  0  0  0  0  0  0  0  0  0
    6.6698    2.1765   -0.8570 C   0  0  0  0  0  0  0  0  0  0  0  0
    5.3028    2.1546   -0.7061 C   0  0  0  0  0  0  0  0  0  0  0  0
    2.4256    1.9320   -0.7695 C   0  0  0  0  0  0  0  0  0  0  0  0
    1.5002    2.5886    0.0423 C   0  0  0  0  0  0  0  0  0  0  0  0
    0.4977    3.3468   -0.5189 C   0  0  0  0  0  0  0  0  0  0  0  0
    0.4028    3.4615   -1.9027 C   0  0  0  0  0  0  0  0  0  0  0  0
   -1.0079    4.3060   -2.5549 S   0  0  0  0  0  0  0  0  0  0  0  0
   -1.3476    3.3619   -4.0710 C   0  0  0  0  0  0  0  0  0  0  0  0
    1.3873    2.8997   -2.7071 C   0  0  0  0  0  0  0  0  0  0  0  0
    2.3952    2.1390   -2.1450 C   0  0  0  0  0  0  0  0  0  0  0  0
    1.3169   -0.4658    0.0763 C   0  0  0  0  0  0  0  0  0  0  0  0
    0.3414   -0.0705   -1.2872 S   0  0  0  0  0  0  0  0  0  0  0  0
   -0.9667   -1.0723   -0.6693 C   0  0  0  0  0  0  0  0  0  0  0  0
   -0.6359   -1.7057    0.5055 C   0  0  0  0  0  0  0  0  0  0  0  0
   -1.5022   -2.5234    1.2152 N   0  0  0  0  0  0  0  0  0  0  0  0
   -2.8116   -2.0525    1.4106 C   0  0  0  0  0  0  0  0  0  0  0  0
   -3.9172   -2.8681    1.1824 C   0  0  0  0  0  0  0  0  0  0  0  0
   -5.1910   -2.3709    1.3624 C   0  0  0  0  0  0  0  0  0  0  0  0
   -5.3812   -1.0573    1.7798 C   0  0  0  0  0  0  0  0  0  0  0  0
   -7.0409   -0.4741    1.9777 S   0  0  0  0  0  0  0  0  0  0  0  0
   -6.8825    0.5737    3.4568 C   0  0  0  0  0  0  0  0  0  0  0  0
   -4.2831   -0.2403    2.0086 C   0  0  0  0  0  0  0  0  0  0  0  0
   -3.0088   -0.7376    1.8277 C   0  0  0  0  0  0  0  0  0  0  0  0
   -1.0414   -3.7015    1.7990 C   0  0  0  0  0  0  0  0  0  0  0  0
   -1.6936   -4.2565    2.9014 C   0  0  0  0  0  0  0  0  0  0  0  0
   -1.2204   -5.4120    3.4803 C   0  0  0  0  0  0  0  0  0  0  0  0
   -0.0728   -6.0334    2.9922 C   0  0  0  0  0  0  0  0  0  0  0  0
    0.4340   -7.5148    3.8108 S   0  0  0  0  0  0  0  0  0  0  0  0
    2.0624   -7.8702    3.0918 C   0  0  0  0  0  0  0  0  0  0  0  0
    0.5819   -5.4832    1.9001 C   0  0  0  0  0  0  0  0  0  0  0  0
    0.0939   -4.3381    1.3026 C   0  0  0  0  0  0  0  0  0  0  0  0
    0.6886   -1.3729    0.9072 C   0  0  0  0  0  0  0  0  0  0  0  0
    1.6978   -1.7792    2.2490 S   0  0  0  0  0  0  0  0  0  0  0  0
   -2.1723   -0.9590   -1.4578 C   0  0  0  0  0  0  0  0  0  0  0  0
   -2.2802   -1.4149   -2.7566 C   0  0  0  0  0  0  0  0  0  0  0  0
   -1.4319   -2.3559   -3.3179 N   0  0  0  0  0  0  0  0  0  0  0  0
   -1.0039   -2.1437   -4.6379 C   0  0  0  0  0  0  0  0  0  0  0  0
   -0.6516   -0.8602   -5.0466 C   0  0  0  0  0  0  0  0  0  0  0  0
   -0.2666   -0.6256   -6.3514 C   0  0  0  0  0  0  0  0  0  0  0  0
   -0.2096   -1.6597   -7.2768 C   0  0  0  0  0  0  0  0  0  0  0  0
    0.1837   -1.4028   -8.6990 C   0  0  0  0  0  0  0  0  0  0  0  0
   -0.5496   -2.9409   -6.8562 C   0  0  0  0  0  0  0  0  0  0  0  0
   -0.9472   -3.1868   -5.5579 C   0  0  0  0  0  0  0  0  0  0  0  0
   -1.1241   -3.5353   -2.6306 C   0  0  0  0  0  0  0  0  0  0  0  0
    0.1012   -4.1656   -2.8299 C   0  0  0  0  0  0  0  0  0  0  0  0
    0.3703   -5.3738   -2.2160 C   0  0  0  0  0  0  0  0  0  0  0  0
   -0.5590   -5.9795   -1.3802 C   0  0  0  0  0  0  0  0  0  0  0  0
   -0.2984   -7.3209   -0.7674 C   0  0  0  0  0  0  0  0  0  0  0  0
   -1.7604   -5.3191   -1.1487 C   0  0  0  0  0  0  0  0  0  0  0  0
   -2.0463   -4.1170   -1.7622 C   0  0  0  0  0  0  0  0  0  0  0  0
   -3.3409   -0.7764   -3.4411 C   0  0  0  0  0  0  0  0  0  0  0  0
   -3.9626   -0.8900   -5.0426 S   0  0  0  0  0  0  0  0  0  0  0  0
   -5.0846    0.4437   -4.7173 C   0  0  0  0  0  0  0  0  0  0  0  0
   -5.0551    0.8419   -3.3583 C   0  0  0  0  0  0  0  0  0  0  0  0
   -5.9343    1.6733   -2.7422 N   0  0  0  0  0  0  0  0  0  0  0  0
   -7.2144    1.9444   -3.2535 C   0  0  0  0  0  0  0  0  0  0  0  0
   -8.0129    0.9302   -3.7795 C   0  0  0  0  0  0  0  0  0  0  0  0
   -9.2566    1.2264   -4.2945 C   0  0  0  0  0  0  0  0  0  0  0  0
   -9.7427    2.5327   -4.3034 C   0  0  0  0  0  0  0  0  0  0  0  0
  -11.0751    2.8406   -4.9093 C   0  0  0  0  0  0  0  0  0  0  0  0
   -8.9561    3.5301   -3.7436 C   0  0  0  0  0  0  0  0  0  0  0  0
   -7.7084    3.2461   -3.2191 C   0  0  0  0  0  0  0  0  0  0  0  0
   -5.5875    2.3102   -1.5279 C   0  0  0  0  0  0  0  0  0  0  0  0
   -6.4939    2.3173   -0.4747 C   0  0  0  0  0  0  0  0  0  0  0  0
   -6.1793    2.9807    0.6959 C   0  0  0  0  0  0  0  0  0  0  0  0
   -4.9603    3.6289    0.8493 C   0  0  0  0  0  0  0  0  0  0  0  0
   -4.6089    4.3353    2.1234 C   0  0  0  0  0  0  0  0  0  0  0  0
   -4.0648    3.6179   -0.2154 C   0  0  0  0  0  0  0  0  0  0  0  0
   -4.3728    2.9754   -1.3966 C   0  0  0  0  0  0  0  0  0  0  0  0
   -4.0188    0.1623   -2.6758 C   0  0  0  0  0  0  0  0  0  0  0  0
   -3.4045    0.2244   -1.0577 S   0  0  0  0  0  0  0  0  0  0  0  0
   -5.8092    0.9356   -5.7993 C   0  0  0  0  0  0  0  0  0  0  0  0
   -6.3151    2.2198   -5.9047 C   0  0  0  0  0  0  0  0  0  0  0  0
   -5.7218    3.3740   -5.2261 C   0  0  0  0  0  0  0  0  0  0  0  0
   -4.7645    3.3886   -4.4712 O   0  0  0  0  0  0  0  0  0  0  0  0
   -6.4387    4.5566   -5.7580 C   0  0  0  0  0  0  0  0  0  0  0  0
   -6.2560    5.8847   -5.4420 C   0  0  0  0  0  0  0  0  0  0  0  0
   -7.0787    6.8067   -6.0772 C   0  0  0  0  0  0  0  0  0  0  0  0
   -6.8900    8.6541   -5.6640 Br  0  0  0  0  0  0  0  0  0  0  0  0
   -8.0362    6.4164   -7.0007 C   0  0  0  0  0  0  0  0  0  0  0  0
   -8.2060    5.0747   -7.3160 C   0  0  0  0  0  0  0  0  0  0  0  0
   -7.4050    4.1364   -6.6875 C   0  0  0  0  0  0  0  0  0  0  0  0
   -7.3550    2.6775   -6.7783 C   0  0  0  0  0  0  0  0  0  0  0  0
   -8.2477    1.8825   -7.4560 C   0  0  0  0  0  0  0  0  0  0  0  0
   -8.2394    0.4750   -7.4038 C   0  0  0  0  0  0  0  0  0  0  0  0
   -8.3060   -0.6715   -7.3809 N   0  0  0  0  0  0  0  0  0  0  0  0
   -9.3205    2.3772   -8.2185 C   0  0  0  0  0  0  0  0  0  0  0  0
  -10.2222    2.7304   -8.8370 N   0  0  0  0  0  0  0  0  0  0  0  0
   10.3698   -2.2004    8.2701 H   0  0  0  0  0  0  0  0  0  0  0  0
    9.3789    3.0229   11.5449 H   0  0  0  0  0  0  0  0  0  0  0  0
   11.9394    1.3158   14.5378 H   0  0  0  0  0  0  0  0  0  0  0  0
   12.4936   -0.5581   13.0555 H   0  0  0  0  0  0  0  0  0  0  0  0
    8.2684   -2.7538    7.1347 H   0  0  0  0  0  0  0  0  0  0  0  0
    8.3812    1.7901    5.1134 H   0  0  0  0  0  0  0  0  0  0  0  0
    9.9717    1.1806    6.8791 H   0  0  0  0  0  0  0  0  0  0  0  0
    6.3382    1.9714    3.4294 H   0  0  0  0  0  0  0  0  0  0  0  0
    4.3596    1.6328    2.0359 H   0  0  0  0  0  0  0  0  0  0  0  0
    4.0409   -2.4378    3.3622 H   0  0  0  0  0  0  0  0  0  0  0  0
    4.9114   -1.1336   -0.0157 H   0  0  0  0  0  0  0  0  0  0  0  0
    7.3232   -1.0920   -0.2547 H   0  0  0  0  0  0  0  0  0  0  0  0
   10.8893   -0.3966   -0.5527 H   0  0  0  0  0  0  0  0  0  0  0  0
    9.5195   -0.7733    0.5159 H   0  0  0  0  0  0  0  0  0  0  0  0
    9.4495   -1.1874   -1.2291 H   0  0  0  0  0  0  0  0  0  0  0  0
    7.1757    3.0977   -1.1017 H   0  0  0  0  0  0  0  0  0  0  0  0
    4.7310    3.0627   -0.8277 H   0  0  0  0  0  0  0  0  0  0  0  0
    1.5457    2.4530    1.1134 H   0  0  0  0  0  0  0  0  0  0  0  0
   -0.2419    3.8258    0.1035 H   0  0  0  0  0  0  0  0  0  0  0  0
   -1.1911    2.3065   -3.8684 H   0  0  0  0  0  0  0  0  0  0  0  0
   -0.7122    3.7014   -4.8840 H   0  0  0  0  0  0  0  0  0  0  0  0
   -2.3909    3.5429   -4.3164 H   0  0  0  0  0  0  0  0  0  0  0  0
    1.3537    3.0236   -3.7783 H   0  0  0  0  0  0  0  0  0  0  0  0
    3.1349    1.6653   -2.7730 H   0  0  0  0  0  0  0  0  0  0  0  0
   -3.7677   -3.8898    0.8685 H   0  0  0  0  0  0  0  0  0  0  0  0
   -6.0520   -2.9953    1.1798 H   0  0  0  0  0  0  0  0  0  0  0  0
   -6.3650    1.4971    3.2177 H   0  0  0  0  0  0  0  0  0  0  0  0
   -7.8956    0.7894    3.7808 H   0  0  0  0  0  0  0  0  0  0  0  0
   -6.3533    0.0219    4.2274 H   0  0  0  0  0  0  0  0  0  0  0  0
   -4.4142    0.7858    2.3125 H   0  0  0  0  0  0  0  0  0  0  0  0
   -2.1536   -0.1017    2.0038 H   0  0  0  0  0  0  0  0  0  0  0  0
   -2.5689   -3.7727    3.3077 H   0  0  0  0  0  0  0  0  0  0  0  0
   -1.7286   -5.8418    4.3298 H   0  0  0  0  0  0  0  0  0  0  0  0
    2.4481   -8.7186    3.6484 H   0  0  0  0  0  0  0  0  0  0  0  0
    2.7166   -7.0136    3.2235 H   0  0  0  0  0  0  0  0  0  0  0  0
    1.9603   -8.1354    2.0433 H   0  0  0  0  0  0  0  0  0  0  0  0
    1.4682   -5.9401    1.4915 H   0  0  0  0  0  0  0  0  0  0  0  0
    0.5933   -3.9473    0.4295 H   0  0  0  0  0  0  0  0  0  0  0  0
   -0.6747   -0.0518   -4.3291 H   0  0  0  0  0  0  0  0  0  0  0  0
   -0.0011    0.3773   -6.6540 H   0  0  0  0  0  0  0  0  0  0  0  0
   -0.7080   -1.2821   -9.3151 H   0  0  0  0  0  0  0  0  0  0  0  0
    0.7768   -0.4952   -8.7818 H   0  0  0  0  0  0  0  0  0  0  0  0
    0.7556   -2.2368   -9.0998 H   0  0  0  0  0  0  0  0  0  0  0  0
   -0.5142   -3.7580   -7.5620 H   0  0  0  0  0  0  0  0  0  0  0  0
   -1.2229   -4.1845   -5.2505 H   0  0  0  0  0  0  0  0  0  0  0  0
    0.8329   -3.7101   -3.4811 H   0  0  0  0  0  0  0  0  0  0  0  0
    1.3212   -5.8554   -2.3955 H   0  0  0  0  0  0  0  0  0  0  0  0
   -0.6397   -7.3465    0.2655 H   0  0  0  0  0  0  0  0  0  0  0  0
   -0.8398   -8.0915   -1.3175 H   0  0  0  0  0  0  0  0  0  0  0  0
    0.7608   -7.5649   -0.8006 H   0  0  0  0  0  0  0  0  0  0  0  0
   -2.4902   -5.7695   -0.4910 H   0  0  0  0  0  0  0  0  0  0  0  0
   -2.9960   -3.6314   -1.5912 H   0  0  0  0  0  0  0  0  0  0  0  0
   -7.6564   -0.0888   -3.7823 H   0  0  0  0  0  0  0  0  0  0  0  0
   -9.8632    0.4309   -4.7015 H   0  0  0  0  0  0  0  0  0  0  0  0
  -11.8185    2.1123   -4.5918 H   0  0  0  0  0  0  0  0  0  0  0  0
  -11.4109    3.8355   -4.6287 H   0  0  0  0  0  0  0  0  0  0  0  0
  -11.0145    2.7954   -5.9974 H   0  0  0  0  0  0  0  0  0  0  0  0
   -9.3181    4.5479   -3.7227 H   0  0  0  0  0  0  0  0  0  0  0  0
   -7.1076    4.0314   -2.7851 H   0  0  0  0  0  0  0  0  0  0  0  0
   -7.4401    1.8066   -0.5742 H   0  0  0  0  0  0  0  0  0  0  0  0
   -6.9040    2.9992    1.4970 H   0  0  0  0  0  0  0  0  0  0  0  0
   -3.7637    3.8455    2.6075 H   0  0  0  0  0  0  0  0  0  0  0  0
   -5.4485    4.3424    2.8145 H   0  0  0  0  0  0  0  0  0  0  0  0
   -4.3188    5.3645    1.9191 H   0  0  0  0  0  0  0  0  0  0  0  0
   -3.1221    4.1378   -0.1307 H   0  0  0  0  0  0  0  0  0  0  0  0
   -3.6963    3.0140   -2.2342 H   0  0  0  0  0  0  0  0  0  0  0  0
   -5.9216    0.2639   -6.6416 H   0  0  0  0  0  0  0  0  0  0  0  0
   -5.5086    6.1876   -4.7248 H   0  0  0  0  0  0  0  0  0  0  0  0
   -8.6531    7.1619   -7.4785 H   0  0  0  0  0  0  0  0  0  0  0  0
   -8.9498    4.7905   -8.0423 H   0  0  0  0  0  0  0  0  0  0  0  0
  1  2  2  0  0  0  0
  2  3  1  0  0  0  0
  3  4  2  0  0  0  0
  3  5  1  0  0  0  0
  5  6  2  0  0  0  0
  6  7  1  0  0  0  0
  7  8  1  0  0  0  0
  7  9  2  0  0  0  0
  9 10  1  0  0  0  0
 10 11  2  0  0  0  0
 11 12  1  0  0  0  0
 12 13  2  0  0  0  0
 13 14  1  0  0  0  0
 14 15  3  0  0  0  0
 13 16  1  0  0  0  0
 16 17  3  0  0  0  0
  1 18  1  0  0  0  0
 18 19  2  0  0  0  0
 19 20  1  0  0  0  0
 20 21  1  0  0  0  0
 21 22  2  0  0  0  0
 21 23  1  0  0  0  0
 23 24  2  0  0  0  0
 24 25  1  0  0  0  0
 25 26  1  0  0  0  0
 26 27  2  0  0  0  0
 24 28  1  0  0  0  0
 28 29  2  0  0  0  0
 29 30  1  0  0  0  0
 30 31  2  0  0  0  0
 30 32  1  0  0  0  0
 32 33  2  0  0  0  0
 33 34  1  0  0  0  0
 34 35  1  0  0  0  0
 35 36  2  0  0  0  0
 36 37  1  0  0  0  0
 37 38  2  0  0  0  0
 38 39  1  0  0  0  0
 39 40  1  0  0  0  0
 38 41  1  0  0  0  0
 41 42  2  0  0  0  0
 34 43  1  0  0  0  0
 43 44  2  0  0  0  0
 44 45  1  0  0  0  0
 45 46  2  0  0  0  0
 46 47  1  0  0  0  0
 47 48  1  0  0  0  0
 46 49  1  0  0  0  0
 49 50  2  0  0  0  0
 33 51  1  0  0  0  0
 51 52  1  0  0  0  0
 52 53  1  0  0  0  0
 53 54  2  0  0  0  0
 54 55  1  0  0  0  0
 55 56  1  0  0  0  0
 56 57  2  0  0  0  0
 57 58  1  0  0  0  0
 58 59  2  0  0  0  0
 59 60  1  0  0  0  0
 60 61  1  0  0  0  0
 59 62  1  0  0  0  0
 62 63  2  0  0  0  0
 55 64  1  0  0  0  0
 64 65  2  0  0  0  0
 65 66  1  0  0  0  0
 66 67  2  0  0  0  0
 67 68  1  0  0  0  0
 68 69  1  0  0  0  0
 67 70  1  0  0  0  0
 70 71  2  0  0  0  0
 54 72  1  0  0  0  0
 72 73  1  0  0  0  0
 53 74  1  0  0  0  0
 74 75  2  0  0  0  0
 75 76  1  0  0  0  0
 76 77  1  0  0  0  0
 77 78  2  0  0  0  0
 78 79  1  0  0  0  0
 79 80  2  0  0  0  0
 80 81  1  0  0  0  0
 80 82  1  0  0  0  0
 82 83  2  0  0  0  0
 76 84  1  0  0  0  0
 84 85  2  0  0  0  0
 85 86  1  0  0  0  0
 86 87  2  0  0  0  0
 87 88  1  0  0  0  0
 87 89  1  0  0  0  0
 89 90  2  0  0  0  0
 75 91  1  0  0  0  0
 91 92  1  0  0  0  0
 92 93  1  0  0  0  0
 93 94  2  0  0  0  0
 94 95  1  0  0  0  0
 95 96  1  0  0  0  0
 96 97  2  0  0  0  0
 97 98  1  0  0  0  0
 98 99  2  0  0  0  0
 99100  1  0  0  0  0
 99101  1  0  0  0  0
101102  2  0  0  0  0
 95103  1  0  0  0  0
103104  2  0  0  0  0
104105  1  0  0  0  0
105106  2  0  0  0  0
106107  1  0  0  0  0
106108  1  0  0  0  0
108109  2  0  0  0  0
 94110  1  0  0  0  0
110111  1  0  0  0  0
 93112  1  0  0  0  0
112113  2  0  0  0  0
113114  1  0  0  0  0
114115  2  0  0  0  0
114116  1  0  0  0  0
116117  2  0  0  0  0
117118  1  0  0  0  0
118119  1  0  0  0  0
118120  2  0  0  0  0
120121  1  0  0  0  0
121122  2  0  0  0  0
122123  1  0  0  0  0
123124  2  0  0  0  0
124125  1  0  0  0  0
125126  3  0  0  0  0
124127  1  0  0  0  0
127128  3  0  0  0  0
 12  2  1  0  0  0  0
 27 18  1  0  0  0  0
 73 32  1  0  0  0  0
111 74  1  0  0  0  0
123113  1  0  0  0  0
 11  5  1  0  0  0  0
 25 20  2  0  0  0  0
 42 35  1  0  0  0  0
 50 43  1  0  0  0  0
 72 51  2  0  0  0  0
 83 77  1  0  0  0  0
 90 84  1  0  0  0  0
110 91  2  0  0  0  0
122116  1  0  0  0  0
 31 23  1  0  0  0  0
 63 56  1  0  0  0  0
 71 64  1  0  0  0  0
102 96  1  0  0  0  0
109103  1  0  0  0  0
  1129  1  0  0  0  0
  6130  1  0  0  0  0
  9131  1  0  0  0  0
 10132  1  0  0  0  0
 19133  1  0  0  0  0
 26134  1  0  0  0  0
 27135  1  0  0  0  0
 28136  1  0  0  0  0
 29137  1  0  0  0  0
 31138  1  0  0  0  0
 36139  1  0  0  0  0
 37140  1  0  0  0  0
 40141  1  0  0  0  0
 40142  1  0  0  0  0
 40143  1  0  0  0  0
 41144  1  0  0  0  0
 42145  1  0  0  0  0
 44146  1  0  0  0  0
 45147  1  0  0  0  0
 48148  1  0  0  0  0
 48149  1  0  0  0  0
 48150  1  0  0  0  0
 49151  1  0  0  0  0
 50152  1  0  0  0  0
 57153  1  0  0  0  0
 58154  1  0  0  0  0
 61155  1  0  0  0  0
 61156  1  0  0  0  0
 61157  1  0  0  0  0
 62158  1  0  0  0  0
 63159  1  0  0  0  0
 65160  1  0  0  0  0
 66161  1  0  0  0  0
 69162  1  0  0  0  0
 69163  1  0  0  0  0
 69164  1  0  0  0  0
 70165  1  0  0  0  0
 71166  1  0  0  0  0
 78167  1  0  0  0  0
 79168  1  0  0  0  0
 81169  1  0  0  0  0
 81170  1  0  0  0  0
 81171  1  0  0  0  0
 82172  1  0  0  0  0
 83173  1  0  0  0  0
 85174  1  0  0  0  0
 86175  1  0  0  0  0
 88176  1  0  0  0  0
 88177  1  0  0  0  0
 88178  1  0  0  0  0
 89179  1  0  0  0  0
 90180  1  0  0  0  0
 97181  1  0  0  0  0
 98182  1  0  0  0  0
100183  1  0  0  0  0
100184  1  0  0  0  0
100185  1  0  0  0  0
101186  1  0  0  0  0
102187  1  0  0  0  0
104188  1  0  0  0  0
105189  1  0  0  0  0
107190  1  0  0  0  0
107191  1  0  0  0  0
107192  1  0  0  0  0
108193  1  0  0  0  0
109194  1  0  0  0  0
112195  1  0  0  0  0
117196  1  0  0  0  0
120197  1  0  0  0  0
121198  1  0  0  0  0
M  END
