198

C         10.07230       -1.15790        8.25870
C         10.48310       -0.37140        9.28670
C          9.88760        0.93780        9.67220
O          9.12180        1.63580        9.04880
C         10.37520        1.19290       11.04620
C         10.05600        2.24980       11.87400
C         10.64050        2.27140       13.13270
Br        10.24470        3.70270       14.31640
C         11.50830        1.26900       13.54960
C         11.82330        0.21200       12.71060
C         11.25500        0.17140       11.44400
C         11.38810       -0.78420       10.35160
C         12.26690       -1.83170       10.30530
C         13.13830       -2.17750       11.36040
N         13.86470       -2.50490       12.18620
C         12.45330       -2.67810        9.19020
N         12.67240       -3.39520        8.32130
C          9.19370       -0.79410        7.17730
C          8.28790       -1.76300        6.70520
C          7.39190       -1.41100        5.72760
C          6.30080       -2.21630        5.11400
O          6.01650       -3.36920        5.33500
C          5.64090       -1.27710        4.16860
C          6.31050       -0.03620        4.19530
C          7.39600       -0.11850        5.15940
C          8.33790        0.81040        5.56350
C          9.22390        0.46800        6.57210
C          5.85420        1.00700        3.41190
C          4.74350        0.80460        2.60890
C          4.08440       -0.42940        2.56030
C          4.54350       -1.48160        3.36950
C          2.92580       -0.62740        1.72080
C          2.58360       -0.01180        0.52980
N          3.27310        0.96800       -0.17470
C          4.64710        0.96430       -0.37960
C          5.40150       -0.19780       -0.23640
C          6.77460       -0.17260       -0.37950
C          7.42280        1.01690       -0.67940
S          9.17240        1.18120       -0.85520
C          9.80870       -0.47820       -0.48890
C          6.66980        2.17650       -0.85700
C          5.30280        2.15460       -0.70610
C          2.42560        1.93200       -0.76950
C          1.50020        2.58860        0.04230
C          0.49770        3.34680       -0.51890
C          0.40280        3.46150       -1.90270
S         -1.00790        4.30600       -2.55490
C         -1.34760        3.36190       -4.07100
C          1.38730        2.89970       -2.70710
C          2.39520        2.13900       -2.14500
C          1.31690       -0.46580        0.07630
S          0.34140       -0.07050       -1.28720
C         -0.96670       -1.07230       -0.66930
C         -0.63590       -1.70570        0.50550
N         -1.50220       -2.52340        1.21520
C         -2.81160       -2.05250        1.41060
C         -3.91720       -2.86810        1.18240
C         -5.19100       -2.37090        1.36240
C         -5.38120       -1.05730        1.77980
S         -7.04090       -0.47410        1.97770
C         -6.88250        0.57370        3.45680
C         -4.28310       -0.24030        2.00860
C         -3.00880       -0.73760        1.82770
C         -1.04140       -3.70150        1.79900
C         -1.69360       -4.25650        2.90140
C         -1.22040       -5.41200        3.48030
C         -0.07280       -6.03340        2.99220
S          0.43400       -7.51480        3.81080
C          2.06240       -7.87020        3.09180
C          0.58190       -5.48320        1.90010
C          0.09390       -4.33810        1.30260
C          0.68860       -1.37290        0.90720
S          1.69780       -1.77920        2.24900
C         -2.17230       -0.95900       -1.45780
C         -2.28020       -1.41490       -2.75660
N         -1.43190       -2.35590       -3.31790
C         -1.00390       -2.14370       -4.63790
C         -0.65160       -0.86020       -5.04660
C         -0.26660       -0.62560       -6.35140
C         -0.20960       -1.65970       -7.27680
C          0.18370       -1.40280       -8.69900
C         -0.54960       -2.94090       -6.85620
C         -0.94720       -3.18680       -5.55790
C         -1.12410       -3.53530       -2.63060
C          0.10120       -4.16560       -2.82990
C          0.37030       -5.37380       -2.21600
C         -0.55900       -5.97950       -1.38020
C         -0.29840       -7.32090       -0.76740
C         -1.76040       -5.31910       -1.14870
C         -2.04630       -4.11700       -1.76220
C         -3.34090       -0.77640       -3.44110
S         -3.96260       -0.89000       -5.04260
C         -5.08460        0.44370       -4.71730
C         -5.05510        0.84190       -3.35830
N         -5.93430        1.67330       -2.74220
C         -7.21440        1.94440       -3.25350
C         -8.01290        0.93020       -3.77950
C         -9.25660        1.22640       -4.29450
C         -9.74270        2.53270       -4.30340
C        -11.07510        2.84060       -4.90930
C         -8.95610        3.53010       -3.74360
C         -7.70840        3.24610       -3.21910
C         -5.58750        2.31020       -1.52790
C         -6.49390        2.31730       -0.47470
C         -6.17930        2.98070        0.69590
C         -4.96030        3.62890        0.84930
C         -4.60890        4.33530        2.12340
C         -4.06480        3.61790       -0.21540
C         -4.37280        2.97540       -1.39660
C         -4.01880        0.16230       -2.67580
S         -3.40450        0.22440       -1.05770
C         -5.80920        0.93560       -5.79930
C         -6.31510        2.21980       -5.90470
C         -5.72180        3.37400       -5.22610
O         -4.76450        3.38860       -4.47120
C         -6.43870        4.55660       -5.75800
C         -6.25600        5.88470       -5.44200
C         -7.07870        6.80670       -6.07720
Br        -6.89000        8.65410       -5.66400
C         -8.03620        6.41640       -7.00070
C         -8.20600        5.07470       -7.31600
C         -7.40500        4.13640       -6.68750
C         -7.35500        2.67750       -6.77830
C         -8.24770        1.88250       -7.45600
C         -8.23940        0.47500       -7.40380
N         -8.30600       -0.67150       -7.38090
C         -9.32050        2.37720       -8.21850
N        -10.22220        2.73040       -8.83700
H         10.36980       -2.20040        8.27010
H          9.37890        3.02290       11.54490
H         11.93940        1.31580       14.53780
H         12.49360       -0.55810       13.05550
H          8.26840       -2.75380        7.13470
H          8.38120        1.79010        5.11340
H          9.97170        1.18060        6.87910
H          6.33820        1.97140        3.42940
H          4.35960        1.63280        2.03590
H          4.04090       -2.43780        3.36220
H          4.91140       -1.13360       -0.01570
H          7.32320       -1.09200       -0.25470
H         10.88930       -0.39660       -0.55270
H          9.51950       -0.77330        0.51590
H          9.44950       -1.18740       -1.22910
H          7.17570        3.09770       -1.10170
H          4.73100        3.06270       -0.82770
H          1.54570        2.45300        1.11340
H         -0.24190        3.82580        0.10350
H         -1.19110        2.30650       -3.86840
H         -0.71220        3.70140       -4.88400
H         -2.39090        3.54290       -4.31640
H          1.35370        3.02360       -3.77830
H          3.13490        1.66530       -2.77300
H         -3.76770       -3.88980        0.86850
H         -6.05200       -2.99530        1.17980
H         -6.36500        1.49710        3.21770
H         -7.89560        0.78940        3.78080
H         -6.35330        0.02190        4.22740
H         -4.41420        0.78580        2.31250
H         -2.15360       -0.10170        2.00380
H         -2.56890       -3.77270        3.30770
H         -1.72860       -5.84180        4.32980
H          2.44810       -8.71860        3.64840
H          2.71660       -7.01360        3.22350
H          1.96030       -8.13540        2.04330
H          1.46820       -5.94010        1.49150
H          0.59330       -3.94730        0.42950
H         -0.67470       -0.05180       -4.32910
H         -0.00110        0.37730       -6.65400
H         -0.70800       -1.28210       -9.31510
H          0.77680       -0.49520       -8.78180
H          0.75560       -2.23680       -9.09980
H         -0.51420       -3.75800       -7.56200
H         -1.22290       -4.18450       -5.25050
H          0.83290       -3.71010       -3.48110
H          1.32120       -5.85540       -2.39550
H         -0.63970       -7.34650        0.26550
H         -0.83980       -8.09150       -1.31750
H          0.76080       -7.56490       -0.80060
H         -2.49020       -5.76950       -0.49100
H         -2.99600       -3.63140       -1.59120
H         -7.65640       -0.08880       -3.78230
H         -9.86320        0.43090       -4.70150
H        -11.81850        2.11230       -4.59180
H        -11.41090        3.83550       -4.62870
H        -11.01450        2.79540       -5.99740
H         -9.31810        4.54790       -3.72270
H         -7.10760        4.03140       -2.78510
H         -7.44010        1.80660       -0.57420
H         -6.90400        2.99920        1.49700
H         -3.76370        3.84550        2.60750
H         -5.44850        4.34240        2.81450
H         -4.31880        5.36450        1.91910
H         -3.12210        4.13780       -0.13070
H         -3.69630        3.01400       -2.23420
H         -5.92160        0.26390       -6.64160
H         -5.50860        6.18760       -4.72480
H         -8.65310        7.16190       -7.47850
H         -8.94980        4.79050       -8.04230
