
  xtb     02112201583D
 energy: -303.831382193242 gnorm: 0.001901219710 xtb: 6.4.1 (unknown)
171187  0     0  0            999 V2000
    5.7351   -6.2453    9.1424 C   0  0  0  0  0  0  0  0  0  0  0  0
    6.4469   -5.4120    9.9433 C   0  0  0  0  0  0  0  0  0  0  0  0
    6.1214   -3.9776   10.1842 C   0  0  0  0  0  0  0  0  0  0  0  0
    5.3232   -3.2782    9.6065 O   0  0  0  0  0  0  0  0  0  0  0  0
    6.9227   -3.5951   11.3681 C   0  0  0  0  0  0  0  0  0  0  0  0
    6.9429   -2.3772   12.0167 C   0  0  0  0  0  0  0  0  0  0  0  0
    7.7827   -2.2553   13.1152 C   0  0  0  0  0  0  0  0  0  0  0  0
    7.8632   -0.6014   14.0449 Br  0  0  0  0  0  0  0  0  0  0  0  0
    8.5667   -3.3163   13.5532 C   0  0  0  0  0  0  0  0  0  0  0  0
    8.5371   -4.5364   12.8966 C   0  0  0  0  0  0  0  0  0  0  0  0
    7.7104   -4.6804   11.7897 C   0  0  0  0  0  0  0  0  0  0  0  0
    7.4733   -5.8082   10.8969 C   0  0  0  0  0  0  0  0  0  0  0  0
    8.1580   -6.9928   10.9000 C   0  0  0  0  0  0  0  0  0  0  0  0
    7.9819   -8.0217    9.9493 C   0  0  0  0  0  0  0  0  0  0  0  0
    7.9091   -8.8853    9.1966 N   0  0  0  0  0  0  0  0  0  0  0  0
    9.1607   -7.3239   11.8364 C   0  0  0  0  0  0  0  0  0  0  0  0
    9.9761   -7.6486   12.5755 N   0  0  0  0  0  0  0  0  0  0  0  0
    4.7672   -5.8456    8.1524 C   0  0  0  0  0  0  0  0  0  0  0  0
    4.9731   -4.7234    7.3318 C   0  0  0  0  0  0  0  0  0  0  0  0
    3.9988   -4.3855    6.4263 C   0  0  0  0  0  0  0  0  0  0  0  0
    3.9919   -3.2864    5.4235 C   0  0  0  0  0  0  0  0  0  0  0  0
    4.8878   -2.5196    5.1617 O   0  0  0  0  0  0  0  0  0  0  0  0
    2.6621   -3.3937    4.7715 C   0  0  0  0  0  0  0  0  0  0  0  0
    1.9579   -4.4866    5.3167 C   0  0  0  0  0  0  0  0  0  0  0  0
    2.7968   -5.1165    6.3244 C   0  0  0  0  0  0  0  0  0  0  0  0
    2.6121   -6.2500    7.0957 C   0  0  0  0  0  0  0  0  0  0  0  0
    3.6102   -6.6166    7.9826 C   0  0  0  0  0  0  0  0  0  0  0  0
    0.6826   -4.7774    4.8708 C   0  0  0  0  0  0  0  0  0  0  0  0
    0.1551   -4.0260    3.8313 C   0  0  0  0  0  0  0  0  0  0  0  0
    0.8829   -2.9993    3.2292 C   0  0  0  0  0  0  0  0  0  0  0  0
    2.1375   -2.6404    3.7508 C   0  0  0  0  0  0  0  0  0  0  0  0
    0.3917   -2.3514    2.0311 C   0  0  0  0  0  0  0  0  0  0  0  0
    1.1111   -2.0511    0.8869 C   0  0  0  0  0  0  0  0  0  0  0  0
    2.4391   -2.3571    0.6427 N   0  0  0  0  0  0  0  0  0  0  0  0
    3.1756   -1.4974   -0.1889 C   0  0  0  0  0  0  0  0  0  0  0  0
    3.0228   -0.1177   -0.0853 C   0  0  0  0  0  0  0  0  0  0  0  0
    3.6672    0.7328   -0.9623 C   0  0  0  0  0  0  0  0  0  0  0  0
    4.4845    0.2119   -1.9547 C   0  0  0  0  0  0  0  0  0  0  0  0
    5.3069    1.2002   -3.1639 S   0  0  0  0  0  0  0  0  0  0  0  0
    4.5438    2.8359   -2.9711 C   0  0  0  0  0  0  0  0  0  0  0  0
    4.6883   -1.1657   -2.0235 C   0  0  0  0  0  0  0  0  0  0  0  0
    4.0422   -2.0131   -1.1521 C   0  0  0  0  0  0  0  0  0  0  0  0
    3.0619   -3.4548    1.2524 C   0  0  0  0  0  0  0  0  0  0  0  0
    2.3759   -4.6562    1.4412 C   0  0  0  0  0  0  0  0  0  0  0  0
    2.9400   -5.6656    2.1866 C   0  0  0  0  0  0  0  0  0  0  0  0
    4.2107   -5.5121    2.7398 C   0  0  0  0  0  0  0  0  0  0  0  0
    4.7721   -6.8136    3.7937 S   0  0  0  0  0  0  0  0  0  0  0  0
    6.3978   -6.2455    4.3623 C   0  0  0  0  0  0  0  0  0  0  0  0
    4.9394   -4.3645    2.4610 C   0  0  0  0  0  0  0  0  0  0  0  0
    4.3659   -3.3445    1.7275 C   0  0  0  0  0  0  0  0  0  0  0  0
    0.2788   -1.4134   -0.0710 C   0  0  0  0  0  0  0  0  0  0  0  0
    0.5533   -0.7248   -1.6284 S   0  0  0  0  0  0  0  0  0  0  0  0
   -1.1262   -0.2066   -1.7273 C   0  0  0  0  0  0  0  0  0  0  0  0
   -1.8573   -0.5509   -0.5951 C   0  0  0  0  0  0  0  0  0  0  0  0
   -3.1768   -0.2438   -0.3078 N   0  0  0  0  0  0  0  0  0  0  0  0
   -3.9021   -1.1773    0.4569 C   0  0  0  0  0  0  0  0  0  0  0  0
   -3.8342   -2.5362    0.1480 C   0  0  0  0  0  0  0  0  0  0  0  0
   -4.5128   -3.4560    0.9153 C   0  0  0  0  0  0  0  0  0  0  0  0
   -5.2802   -3.0407    2.0024 C   0  0  0  0  0  0  0  0  0  0  0  0
   -6.0850   -4.3132    2.9219 S   0  0  0  0  0  0  0  0  0  0  0  0
   -6.9599   -3.4210    4.2382 C   0  0  0  0  0  0  0  0  0  0  0  0
   -5.3672   -1.6865    2.2990 C   0  0  0  0  0  0  0  0  0  0  0  0
   -4.6796   -0.7648    1.5339 C   0  0  0  0  0  0  0  0  0  0  0  0
   -3.7738    0.9646   -0.6709 C   0  0  0  0  0  0  0  0  0  0  0  0
   -5.1454    1.0159   -0.9358 C   0  0  0  0  0  0  0  0  0  0  0  0
   -5.7254    2.1801   -1.3858 C   0  0  0  0  0  0  0  0  0  0  0  0
   -4.9511    3.3180   -1.5983 C   0  0  0  0  0  0  0  0  0  0  0  0
   -5.7606    4.7412   -2.2586 S   0  0  0  0  0  0  0  0  0  0  0  0
   -4.4021    5.6143   -3.0937 C   0  0  0  0  0  0  0  0  0  0  0  0
   -3.6007    3.2913   -1.2807 C   0  0  0  0  0  0  0  0  0  0  0  0
   -3.0201    2.1272   -0.8182 C   0  0  0  0  0  0  0  0  0  0  0  0
   -1.0377   -1.2579    0.3251 C   0  0  0  0  0  0  0  0  0  0  0  0
   -1.3066   -1.9311    1.8953 S   0  0  0  0  0  0  0  0  0  0  0  0
   -1.4815    0.5768   -2.8617 C   0  0  0  0  0  0  0  0  0  0  0  0
   -2.7103    0.8393   -3.3938 C   0  0  0  0  0  0  0  0  0  0  0  0
   -2.7026    1.8024   -4.4308 C   0  0  0  0  0  0  0  0  0  0  0  0
   -3.8070    2.4038   -5.0771 C   0  0  0  0  0  0  0  0  0  0  0  0
   -5.1723    2.0160   -4.8121 C   0  0  0  0  0  0  0  0  0  0  0  0
   -6.3093    2.7764   -4.8973 C   0  0  0  0  0  0  0  0  0  0  0  0
   -7.4751    2.0578   -4.5952 C   0  0  0  0  0  0  0  0  0  0  0  0
   -8.6894    2.6239   -4.6020 F   0  0  0  0  0  0  0  0  0  0  0  0
   -7.2772    0.7359   -4.2904 C   0  0  0  0  0  0  0  0  0  0  0  0
   -8.5011   -0.3907   -3.7654 S   0  0  0  0  0  0  0  0  0  0  0  0
   -7.6104   -1.9825   -3.8744 C   0  0  0  0  0  0  0  0  0  0  0  0
   -7.4263   -2.4438   -5.3059 C   0  0  0  0  0  0  0  0  0  0  0  0
   -5.5851    0.3743   -4.3709 S   0  0  0  0  0  0  0  0  0  0  0  0
   -3.5110    3.4237   -5.9895 C   0  0  0  0  0  0  0  0  0  0  0  0
   -2.1852    3.8177   -6.3059 C   0  0  0  0  0  0  0  0  0  0  0  0
   -1.0819    3.2272   -5.6441 C   0  0  0  0  0  0  0  0  0  0  0  0
    0.2735    3.6513   -5.9052 C   0  0  0  0  0  0  0  0  0  0  0  0
    1.5690    2.4826   -5.9891 S   0  0  0  0  0  0  0  0  0  0  0  0
    2.7422    3.7107   -6.3447 C   0  0  0  0  0  0  0  0  0  0  0  0
    4.4451    3.4113   -6.5736 S   0  0  0  0  0  0  0  0  0  0  0  0
    4.4914    1.5878   -6.6685 C   0  0  0  0  0  0  0  0  0  0  0  0
    4.0155    1.0723   -8.0114 C   0  0  0  0  0  0  0  0  0  0  0  0
    2.1329    4.9397   -6.3629 C   0  0  0  0  0  0  0  0  0  0  0  0
    0.7504    4.9157   -6.1218 C   0  0  0  0  0  0  0  0  0  0  0  0
    2.7984    6.0832   -6.5929 F   0  0  0  0  0  0  0  0  0  0  0  0
   -1.3837    2.2382   -4.7202 C   0  0  0  0  0  0  0  0  0  0  0  0
   -0.2125    1.4503   -3.6986 S   0  0  0  0  0  0  0  0  0  0  0  0
   -2.1598    4.7823   -7.3277 C   0  0  0  0  0  0  0  0  0  0  0  0
   -3.4067    5.1790   -7.7604 C   0  0  0  0  0  0  0  0  0  0  0  0
   -4.6785    4.3370   -6.9060 S   0  0  0  0  0  0  0  0  0  0  0  0
   -3.5871    6.1493   -8.7739 C   0  0  0  0  0  0  0  0  0  0  0  0
   -4.7250    6.7153   -9.2549 C   0  0  0  0  0  0  0  0  0  0  0  0
   -4.6715    7.9121  -10.5370 S   0  0  0  0  0  0  0  0  0  0  0  0
   -6.4168    8.1216  -10.4935 C   0  0  0  0  0  0  0  0  0  0  0  0
   -7.2412    9.1469  -11.4563 S   0  0  0  0  0  0  0  0  0  0  0  0
   -6.9612    7.3067   -9.5539 N   0  0  0  0  0  0  0  0  0  0  0  0
   -8.3853    7.2976   -9.2753 C   0  0  0  0  0  0  0  0  0  0  0  0
   -8.7626    8.4110   -8.3065 C   0  0  0  0  0  0  0  0  0  0  0  0
   -6.1022    6.5031   -8.8287 C   0  0  0  0  0  0  0  0  0  0  0  0
   -6.4895    5.7438   -7.9630 O   0  0  0  0  0  0  0  0  0  0  0  0
    5.8513   -7.3146    9.2755 H   0  0  0  0  0  0  0  0  0  0  0  0
    6.3291   -1.5595   11.6716 H   0  0  0  0  0  0  0  0  0  0  0  0
    9.2039   -3.1863   14.4147 H   0  0  0  0  0  0  0  0  0  0  0  0
    9.1480   -5.3479   13.2569 H   0  0  0  0  0  0  0  0  0  0  0  0
    5.8894   -4.1571    7.3845 H   0  0  0  0  0  0  0  0  0  0  0  0
    1.7161   -6.8446    7.0064 H   0  0  0  0  0  0  0  0  0  0  0  0
    3.4812   -7.4996    8.5920 H   0  0  0  0  0  0  0  0  0  0  0  0
    0.1133   -5.5883    5.2987 H   0  0  0  0  0  0  0  0  0  0  0  0
   -0.8262   -4.2607    3.4438 H   0  0  0  0  0  0  0  0  0  0  0  0
    2.6789   -1.7936    3.3591 H   0  0  0  0  0  0  0  0  0  0  0  0
    2.3864    0.2930    0.6853 H   0  0  0  0  0  0  0  0  0  0  0  0
    3.5199    1.7953   -0.8594 H   0  0  0  0  0  0  0  0  0  0  0  0
    3.4644    2.7461   -3.0587 H   0  0  0  0  0  0  0  0  0  0  0  0
    4.9354    3.4410   -3.7834 H   0  0  0  0  0  0  0  0  0  0  0  0
    4.8294    3.2745   -2.0195 H   0  0  0  0  0  0  0  0  0  0  0  0
    5.3444   -1.5612   -2.7836 H   0  0  0  0  0  0  0  0  0  0  0  0
    4.1852   -3.0811   -1.2215 H   0  0  0  0  0  0  0  0  0  0  0  0
    1.3878   -4.7805    1.0246 H   0  0  0  0  0  0  0  0  0  0  0  0
    2.3987   -6.5823    2.3634 H   0  0  0  0  0  0  0  0  0  0  0  0
    6.7335   -6.9889    5.0795 H   0  0  0  0  0  0  0  0  0  0  0  0
    6.3022   -5.2789    4.8481 H   0  0  0  0  0  0  0  0  0  0  0  0
    7.0888   -6.2019    3.5252 H   0  0  0  0  0  0  0  0  0  0  0  0
    5.9402   -4.2303    2.8363 H   0  0  0  0  0  0  0  0  0  0  0  0
    4.9238   -2.4364    1.5549 H   0  0  0  0  0  0  0  0  0  0  0  0
   -3.2425   -2.8618   -0.6951 H   0  0  0  0  0  0  0  0  0  0  0  0
   -4.4598   -4.5087    0.6821 H   0  0  0  0  0  0  0  0  0  0  0  0
   -6.2509   -2.8683    4.8461 H   0  0  0  0  0  0  0  0  0  0  0  0
   -7.4412   -4.1860    4.8383 H   0  0  0  0  0  0  0  0  0  0  0  0
   -7.7094   -2.7646    3.8074 H   0  0  0  0  0  0  0  0  0  0  0  0
   -5.9555   -1.3332    3.1298 H   0  0  0  0  0  0  0  0  0  0  0  0
   -4.7388    0.2856    1.7774 H   0  0  0  0  0  0  0  0  0  0  0  0
   -5.7474    0.1278   -0.8124 H   0  0  0  0  0  0  0  0  0  0  0  0
   -6.7818    2.2138   -1.6037 H   0  0  0  0  0  0  0  0  0  0  0  0
   -4.8731    6.2927   -3.7980 H   0  0  0  0  0  0  0  0  0  0  0  0
   -3.7871    4.8939   -3.6249 H   0  0  0  0  0  0  0  0  0  0  0  0
   -3.8144    6.1805   -2.3769 H   0  0  0  0  0  0  0  0  0  0  0  0
   -2.9900    4.1732   -1.3914 H   0  0  0  0  0  0  0  0  0  0  0  0
   -1.9698    2.1202   -0.5690 H   0  0  0  0  0  0  0  0  0  0  0  0
   -3.5950    0.3542   -3.0355 H   0  0  0  0  0  0  0  0  0  0  0  0
   -6.3392    3.8237   -5.1278 H   0  0  0  0  0  0  0  0  0  0  0  0
   -6.6570   -1.8626   -3.3596 H   0  0  0  0  0  0  0  0  0  0  0  0
   -8.2372   -2.6757   -3.3147 H   0  0  0  0  0  0  0  0  0  0  0  0
   -6.8186   -1.7361   -5.8645 H   0  0  0  0  0  0  0  0  0  0  0  0
   -8.3901   -2.5419   -5.7995 H   0  0  0  0  0  0  0  0  0  0  0  0
   -6.9267   -3.4099   -5.3177 H   0  0  0  0  0  0  0  0  0  0  0  0
    5.5374    1.3382   -6.4945 H   0  0  0  0  0  0  0  0  0  0  0  0
    3.8931    1.2004   -5.8443 H   0  0  0  0  0  0  0  0  0  0  0  0
    2.9781    1.3479   -8.1880 H   0  0  0  0  0  0  0  0  0  0  0  0
    4.0900   -0.0127   -8.0310 H   0  0  0  0  0  0  0  0  0  0  0  0
    4.6259    1.4791   -8.8143 H   0  0  0  0  0  0  0  0  0  0  0  0
    0.1546    5.8080   -6.0687 H   0  0  0  0  0  0  0  0  0  0  0  0
   -1.2550    5.1692   -7.7596 H   0  0  0  0  0  0  0  0  0  0  0  0
   -2.6613    6.4917   -9.2230 H   0  0  0  0  0  0  0  0  0  0  0  0
   -8.6106    6.3210   -8.8406 H   0  0  0  0  0  0  0  0  0  0  0  0
   -8.9149    7.4201  -10.2227 H   0  0  0  0  0  0  0  0  0  0  0  0
   -9.8303    8.3754   -8.1126 H   0  0  0  0  0  0  0  0  0  0  0  0
   -8.5174    9.3818   -8.7311 H   0  0  0  0  0  0  0  0  0  0  0  0
   -8.2320    8.2882   -7.3652 H   0  0  0  0  0  0  0  0  0  0  0  0
  1  2  2  0  0  0  0
  2  3  1  0  0  0  0
  3  4  2  0  0  0  0
  3  5  1  0  0  0  0
  5  6  2  0  0  0  0
  6  7  1  0  0  0  0
  7  8  1  0  0  0  0
  7  9  2  0  0  0  0
  9 10  1  0  0  0  0
 10 11  2  0  0  0  0
 11 12  1  0  0  0  0
 12 13  2  0  0  0  0
 13 14  1  0  0  0  0
 14 15  3  0  0  0  0
 13 16  1  0  0  0  0
 16 17  3  0  0  0  0
  1 18  1  0  0  0  0
 18 19  2  0  0  0  0
 19 20  1  0  0  0  0
 20 21  1  0  0  0  0
 21 22  2  0  0  0  0
 21 23  1  0  0  0  0
 23 24  2  0  0  0  0
 24 25  1  0  0  0  0
 25 26  1  0  0  0  0
 26 27  2  0  0  0  0
 24 28  1  0  0  0  0
 28 29  2  0  0  0  0
 29 30  1  0  0  0  0
 30 31  2  0  0  0  0
 30 32  1  0  0  0  0
 32 33  2  0  0  0  0
 33 34  1  0  0  0  0
 34 35  1  0  0  0  0
 35 36  2  0  0  0  0
 36 37  1  0  0  0  0
 37 38  2  0  0  0  0
 38 39  1  0  0  0  0
 39 40  1  0  0  0  0
 38 41  1  0  0  0  0
 41 42  2  0  0  0  0
 34 43  1  0  0  0  0
 43 44  2  0  0  0  0
 44 45  1  0  0  0  0
 45 46  2  0  0  0  0
 46 47  1  0  0  0  0
 47 48  1  0  0  0  0
 46 49  1  0  0  0  0
 49 50  2  0  0  0  0
 33 51  1  0  0  0  0
 51 52  1  0  0  0  0
 52 53  1  0  0  0  0
 53 54  2  0  0  0  0
 54 55  1  0  0  0  0
 55 56  1  0  0  0  0
 56 57  2  0  0  0  0
 57 58  1  0  0  0  0
 58 59  2  0  0  0  0
 59 60  1  0  0  0  0
 60 61  1  0  0  0  0
 59 62  1  0  0  0  0
 62 63  2  0  0  0  0
 55 64  1  0  0  0  0
 64 65  2  0  0  0  0
 65 66  1  0  0  0  0
 66 67  2  0  0  0  0
 67 68  1  0  0  0  0
 68 69  1  0  0  0  0
 67 70  1  0  0  0  0
 70 71  2  0  0  0  0
 54 72  1  0  0  0  0
 72 73  1  0  0  0  0
 53 74  1  0  0  0  0
 74 75  2  0  0  0  0
 75 76  1  0  0  0  0
 76 77  2  0  0  0  0
 77 78  1  0  0  0  0
 78 79  2  0  0  0  0
 79 80  1  0  0  0  0
 80 81  1  0  0  0  0
 80 82  2  0  0  0  0
 82 83  1  0  0  0  0
 83 84  1  0  0  0  0
 84 85  1  0  0  0  0
 82 86  1  0  0  0  0
 77 87  1  0  0  0  0
 87 88  2  0  0  0  0
 88 89  1  0  0  0  0
 89 90  1  0  0  0  0
 90 91  1  0  0  0  0
 91 92  1  0  0  0  0
 92 93  1  0  0  0  0
 93 94  1  0  0  0  0
 94 95  1  0  0  0  0
 92 96  2  0  0  0  0
 96 97  1  0  0  0  0
 96 98  1  0  0  0  0
 89 99  2  0  0  0  0
 99100  1  0  0  0  0
 88101  1  0  0  0  0
101102  2  0  0  0  0
102103  1  0  0  0  0
102104  1  0  0  0  0
104105  2  0  0  0  0
105106  1  0  0  0  0
106107  1  0  0  0  0
107108  2  0  0  0  0
107109  1  0  0  0  0
109110  1  0  0  0  0
110111  1  0  0  0  0
109112  1  0  0  0  0
112113  2  0  0  0  0
 12  2  1  0  0  0  0
 27 18  1  0  0  0  0
 73 32  1  0  0  0  0
100 74  1  0  0  0  0
112105  1  0  0  0  0
 11  5  1  0  0  0  0
 25 20  2  0  0  0  0
 42 35  1  0  0  0  0
 50 43  1  0  0  0  0
 72 51  2  0  0  0  0
 99 76  1  0  0  0  0
 31 23  1  0  0  0  0
 63 56  1  0  0  0  0
 71 64  1  0  0  0  0
 86 78  1  0  0  0  0
103 87  1  0  0  0  0
 97 90  2  0  0  0  0
  1114  1  0  0  0  0
  6115  1  0  0  0  0
  9116  1  0  0  0  0
 10117  1  0  0  0  0
 19118  1  0  0  0  0
 26119  1  0  0  0  0
 27120  1  0  0  0  0
 28121  1  0  0  0  0
 29122  1  0  0  0  0
 31123  1  0  0  0  0
 36124  1  0  0  0  0
 37125  1  0  0  0  0
 40126  1  0  0  0  0
 40127  1  0  0  0  0
 40128  1  0  0  0  0
 41129  1  0  0  0  0
 42130  1  0  0  0  0
 44131  1  0  0  0  0
 45132  1  0  0  0  0
 48133  1  0  0  0  0
 48134  1  0  0  0  0
 48135  1  0  0  0  0
 49136  1  0  0  0  0
 50137  1  0  0  0  0
 57138  1  0  0  0  0
 58139  1  0  0  0  0
 61140  1  0  0  0  0
 61141  1  0  0  0  0
 61142  1  0  0  0  0
 62143  1  0  0  0  0
 63144  1  0  0  0  0
 65145  1  0  0  0  0
 66146  1  0  0  0  0
 69147  1  0  0  0  0
 69148  1  0  0  0  0
 69149  1  0  0  0  0
 70150  1  0  0  0  0
 71151  1  0  0  0  0
 75152  1  0  0  0  0
 79153  1  0  0  0  0
 84154  1  0  0  0  0
 84155  1  0  0  0  0
 85156  1  0  0  0  0
 85157  1  0  0  0  0
 85158  1  0  0  0  0
 94159  1  0  0  0  0
 94160  1  0  0  0  0
 95161  1  0  0  0  0
 95162  1  0  0  0  0
 95163  1  0  0  0  0
 97164  1  0  0  0  0
101165  1  0  0  0  0
104166  1  0  0  0  0
110167  1  0  0  0  0
110168  1  0  0  0  0
111169  1  0  0  0  0
111170  1  0  0  0  0
111171  1  0  0  0  0
M  END
