
  xtb     02112212173D
 energy: -396.229325520830 gnorm: 0.000468083085 xtb: 6.4.1 (unknown)
248268  0     0  0            999 V2000
    8.2576    4.8510   -3.4735 C   0  0  0  0  0  0  0  0  0  0  0  0
    9.5649    4.4329   -3.5865 C   0  0  0  0  0  0  0  0  0  0  0  0
   10.4338    5.0194   -4.6244 C   0  0  0  0  0  0  0  0  0  0  0  0
   10.2009    5.9699   -5.3385 O   0  0  0  0  0  0  0  0  0  0  0  0
   11.6341    4.1466   -4.6550 C   0  0  0  0  0  0  0  0  0  0  0  0
   12.7026    4.1831   -5.5243 C   0  0  0  0  0  0  0  0  0  0  0  0
   13.6972    3.2307   -5.3478 C   0  0  0  0  0  0  0  0  0  0  0  0
   15.1730    3.1991   -6.5479 Br  0  0  0  0  0  0  0  0  0  0  0  0
   13.6401    2.2942   -4.3264 C   0  0  0  0  0  0  0  0  0  0  0  0
   12.5645    2.2728   -3.4507 C   0  0  0  0  0  0  0  0  0  0  0  0
   11.5450    3.1936   -3.6267 C   0  0  0  0  0  0  0  0  0  0  0  0
   10.2947    3.4093   -2.8999 C   0  0  0  0  0  0  0  0  0  0  0  0
    9.9811    2.8884   -1.6626 C   0  0  0  0  0  0  0  0  0  0  0  0
   10.6932    1.8468   -1.0447 C   0  0  0  0  0  0  0  0  0  0  0  0
   11.2104    0.9627   -0.5232 N   0  0  0  0  0  0  0  0  0  0  0  0
    8.9479    3.4012   -0.8616 C   0  0  0  0  0  0  0  0  0  0  0  0
    8.1373    3.8163   -0.1597 N   0  0  0  0  0  0  0  0  0  0  0  0
    7.1372    4.1829   -2.9750 C   0  0  0  0  0  0  0  0  0  0  0  0
    6.8595    2.8197   -2.7328 C   0  0  0  0  0  0  0  0  0  0  0  0
    7.6352    1.7427   -3.0733 N   0  0  0  0  0  0  0  0  0  0  0  0
    8.4836    1.6973   -4.1891 C   0  0  0  0  0  0  0  0  0  0  0  0
    8.2687    2.4781   -5.3226 C   0  0  0  0  0  0  0  0  0  0  0  0
    9.1449    2.4140   -6.3876 C   0  0  0  0  0  0  0  0  0  0  0  0
   10.2436    1.5621   -6.3694 C   0  0  0  0  0  0  0  0  0  0  0  0
   11.1899    1.5101   -7.5271 C   0  0  0  0  0  0  0  0  0  0  0  0
   10.4224    0.7475   -5.2572 C   0  0  0  0  0  0  0  0  0  0  0  0
    9.5649    0.8148   -4.1786 C   0  0  0  0  0  0  0  0  0  0  0  0
    7.3490    0.5019   -2.4401 C   0  0  0  0  0  0  0  0  0  0  0  0
    7.4105    0.3881   -1.0566 C   0  0  0  0  0  0  0  0  0  0  0  0
    7.0984   -0.8143   -0.4517 C   0  0  0  0  0  0  0  0  0  0  0  0
    6.7152   -1.9155   -1.2047 C   0  0  0  0  0  0  0  0  0  0  0  0
    6.3065   -3.1951   -0.5493 C   0  0  0  0  0  0  0  0  0  0  0  0
    6.6765   -1.7953   -2.5900 C   0  0  0  0  0  0  0  0  0  0  0  0
    6.9932   -0.6032   -3.2071 C   0  0  0  0  0  0  0  0  0  0  0  0
    5.5877    2.6776   -2.1335 C   0  0  0  0  0  0  0  0  0  0  0  0
    4.6349    1.3236   -1.6388 S   0  0  0  0  0  0  0  0  0  0  0  0
    3.2983    2.3763   -1.1783 C   0  0  0  0  0  0  0  0  0  0  0  0
    3.5833    3.7148   -1.4138 C   0  0  0  0  0  0  0  0  0  0  0  0
    2.7563    4.8115   -1.2065 N   0  0  0  0  0  0  0  0  0  0  0  0
    3.3968    6.0093   -0.8300 C   0  0  0  0  0  0  0  0  0  0  0  0
    3.0242    7.2440   -1.3566 C   0  0  0  0  0  0  0  0  0  0  0  0
    3.6830    8.3926   -0.9674 C   0  0  0  0  0  0  0  0  0  0  0  0
    4.7437    8.3506   -0.0685 C   0  0  0  0  0  0  0  0  0  0  0  0
    5.4468    9.6102    0.3367 C   0  0  0  0  0  0  0  0  0  0  0  0
    5.1328    7.1134    0.4243 C   0  0  0  0  0  0  0  0  0  0  0  0
    4.4691    5.9598    0.0579 C   0  0  0  0  0  0  0  0  0  0  0  0
    1.4207    4.8091   -1.6213 C   0  0  0  0  0  0  0  0  0  0  0  0
    0.5075    5.7057   -1.0676 C   0  0  0  0  0  0  0  0  0  0  0  0
   -0.7949    5.7554   -1.5221 C   0  0  0  0  0  0  0  0  0  0  0  0
   -1.2423    4.8978   -2.5191 C   0  0  0  0  0  0  0  0  0  0  0  0
   -2.6598    4.9349   -3.0034 C   0  0  0  0  0  0  0  0  0  0  0  0
   -0.3365    3.9856   -3.0489 C   0  0  0  0  0  0  0  0  0  0  0  0
    0.9751    3.9423   -2.6187 C   0  0  0  0  0  0  0  0  0  0  0  0
    4.8858    3.8598   -1.9562 C   0  0  0  0  0  0  0  0  0  0  0  0
    5.7600    5.2136   -2.5627 S   0  0  0  0  0  0  0  0  0  0  0  0
    2.1185    1.6834   -0.7594 C   0  0  0  0  0  0  0  0  0  0  0  0
    1.1266    1.9662    0.1682 C   0  0  0  0  0  0  0  0  0  0  0  0
    1.0442    3.0672    1.0048 N   0  0  0  0  0  0  0  0  0  0  0  0
   -0.2421    3.4723    1.4043 C   0  0  0  0  0  0  0  0  0  0  0  0
   -1.2779    3.5093    0.4692 C   0  0  0  0  0  0  0  0  0  0  0  0
   -2.5473    3.8897    0.8417 C   0  0  0  0  0  0  0  0  0  0  0  0
   -2.8171    4.2426    2.1607 C   0  0  0  0  0  0  0  0  0  0  0  0
   -4.4791    4.7162    2.5281 S   0  0  0  0  0  0  0  0  0  0  0  0
   -4.4269    5.2105    4.2723 C   0  0  0  0  0  0  0  0  0  0  0  0
   -1.7971    4.1928    3.1010 C   0  0  0  0  0  0  0  0  0  0  0  0
   -0.5253    3.8060    2.7258 C   0  0  0  0  0  0  0  0  0  0  0  0
    2.1688    3.6081    1.6420 C   0  0  0  0  0  0  0  0  0  0  0  0
    2.1417    4.9286    2.0853 C   0  0  0  0  0  0  0  0  0  0  0  0
    3.2002    5.4698    2.7853 C   0  0  0  0  0  0  0  0  0  0  0  0
    4.3300    4.7038    3.0396 C   0  0  0  0  0  0  0  0  0  0  0  0
    5.7500    5.2900    3.9044 S   0  0  0  0  0  0  0  0  0  0  0  0
    5.3196    7.0001    4.3387 C   0  0  0  0  0  0  0  0  0  0  0  0
    4.3761    3.3903    2.5756 C   0  0  0  0  0  0  0  0  0  0  0  0
    3.3098    2.8452    1.8936 C   0  0  0  0  0  0  0  0  0  0  0  0
    0.1624    0.9200    0.2000 C   0  0  0  0  0  0  0  0  0  0  0  0
   -1.3184    0.6790    1.0588 S   0  0  0  0  0  0  0  0  0  0  0  0
   -1.5944   -0.8357    0.2131 C   0  0  0  0  0  0  0  0  0  0  0  0
   -0.5875   -1.1358   -0.6734 C   0  0  0  0  0  0  0  0  0  0  0  0
   -0.5649   -2.2430   -1.5204 N   0  0  0  0  0  0  0  0  0  0  0  0
    0.5537   -3.0767   -1.4970 C   0  0  0  0  0  0  0  0  0  0  0  0
    0.9244   -3.8151   -2.6221 C   0  0  0  0  0  0  0  0  0  0  0  0
    2.0067   -4.6640   -2.5702 C   0  0  0  0  0  0  0  0  0  0  0  0
    2.7583   -4.7830   -1.4039 C   0  0  0  0  0  0  0  0  0  0  0  0
    4.1120   -5.9248   -1.4313 S   0  0  0  0  0  0  0  0  0  0  0  0
    4.4128   -6.2543    0.3308 C   0  0  0  0  0  0  0  0  0  0  0  0
    2.4282   -4.0107   -0.3005 C   0  0  0  0  0  0  0  0  0  0  0  0
    1.3324   -3.1727   -0.3463 C   0  0  0  0  0  0  0  0  0  0  0  0
   -1.7120   -2.5301   -2.2681 C   0  0  0  0  0  0  0  0  0  0  0  0
   -2.1216   -3.8423   -2.5079 C   0  0  0  0  0  0  0  0  0  0  0  0
   -3.3123   -4.0919   -3.1514 C   0  0  0  0  0  0  0  0  0  0  0  0
   -4.1182   -3.0427   -3.5888 C   0  0  0  0  0  0  0  0  0  0  0  0
   -5.6631   -3.4800   -4.3289 S   0  0  0  0  0  0  0  0  0  0  0  0
   -6.5487   -1.8989   -4.4058 C   0  0  0  0  0  0  0  0  0  0  0  0
   -3.6784   -1.7379   -3.4252 C   0  0  0  0  0  0  0  0  0  0  0  0
   -2.4877   -1.4881   -2.7698 C   0  0  0  0  0  0  0  0  0  0  0  0
    0.4209   -0.1371   -0.6525 C   0  0  0  0  0  0  0  0  0  0  0  0
    1.8867    0.1039   -1.5236 S   0  0  0  0  0  0  0  0  0  0  0  0
   -2.8755   -1.4723    0.4195 C   0  0  0  0  0  0  0  0  0  0  0  0
   -3.2083   -2.5020    1.2623 C   0  0  0  0  0  0  0  0  0  0  0  0
   -2.2947   -3.1694    2.0958 N   0  0  0  0  0  0  0  0  0  0  0  0
   -2.4897   -2.9761    3.4715 C   0  0  0  0  0  0  0  0  0  0  0  0
   -2.8105   -1.7056    3.9438 C   0  0  0  0  0  0  0  0  0  0  0  0
   -3.0248   -1.4959    5.2925 C   0  0  0  0  0  0  0  0  0  0  0  0
   -2.9248   -2.5361    6.2056 C   0  0  0  0  0  0  0  0  0  0  0  0
   -3.1418   -2.3145    7.6720 C   0  0  0  0  0  0  0  0  0  0  0  0
   -2.6104   -3.8031    5.7249 C   0  0  0  0  0  0  0  0  0  0  0  0
   -2.4014   -4.0287    4.3805 C   0  0  0  0  0  0  0  0  0  0  0  0
   -1.5407   -4.2340    1.6010 C   0  0  0  0  0  0  0  0  0  0  0  0
   -1.9763   -4.9732    0.5050 C   0  0  0  0  0  0  0  0  0  0  0  0
   -1.2256   -6.0349    0.0399 C   0  0  0  0  0  0  0  0  0  0  0  0
   -0.0274   -6.3929    0.6430 C   0  0  0  0  0  0  0  0  0  0  0  0
    0.7704   -7.5491    0.1216 C   0  0  0  0  0  0  0  0  0  0  0  0
    0.4065   -5.6421    1.7289 C   0  0  0  0  0  0  0  0  0  0  0  0
   -0.3296   -4.5748    2.2016 C   0  0  0  0  0  0  0  0  0  0  0  0
   -4.6083   -2.7353    1.2764 C   0  0  0  0  0  0  0  0  0  0  0  0
   -5.6299   -3.8926    2.0451 S   0  0  0  0  0  0  0  0  0  0  0  0
   -7.0448   -3.1722    1.2846 C   0  0  0  0  0  0  0  0  0  0  0  0
   -6.6987   -2.1118    0.4287 C   0  0  0  0  0  0  0  0  0  0  0  0
   -7.5811   -1.3674   -0.3372 N   0  0  0  0  0  0  0  0  0  0  0  0
   -8.5487   -2.0098   -1.1277 C   0  0  0  0  0  0  0  0  0  0  0  0
   -8.2704   -3.2405   -1.7201 C   0  0  0  0  0  0  0  0  0  0  0  0
   -9.2247   -3.8696   -2.4925 C   0  0  0  0  0  0  0  0  0  0  0  0
  -10.4734   -3.2942   -2.7028 C   0  0  0  0  0  0  0  0  0  0  0  0
  -11.5094   -3.9944   -3.5269 C   0  0  0  0  0  0  0  0  0  0  0  0
  -10.7408   -2.0644   -2.1124 C   0  0  0  0  0  0  0  0  0  0  0  0
   -9.7965   -1.4254   -1.3323 C   0  0  0  0  0  0  0  0  0  0  0  0
   -7.3392    0.0092   -0.4774 C   0  0  0  0  0  0  0  0  0  0  0  0
   -7.5669    0.6680   -1.6838 C   0  0  0  0  0  0  0  0  0  0  0  0
   -7.2803    2.0126   -1.8051 C   0  0  0  0  0  0  0  0  0  0  0  0
   -6.7562    2.7390   -0.7414 C   0  0  0  0  0  0  0  0  0  0  0  0
   -6.4398    4.1947   -0.8965 C   0  0  0  0  0  0  0  0  0  0  0  0
   -6.5506    2.0817    0.4642 C   0  0  0  0  0  0  0  0  0  0  0  0
   -6.8451    0.7397    0.6020 C   0  0  0  0  0  0  0  0  0  0  0  0
   -5.3151   -1.8694    0.4567 C   0  0  0  0  0  0  0  0  0  0  0  0
   -4.2792   -0.7464   -0.3498 S   0  0  0  0  0  0  0  0  0  0  0  0
   -8.3901   -3.5336    1.5153 C   0  0  0  0  0  0  0  0  0  0  0  0
   -8.9836   -4.4312    2.3477 C   0  0  0  0  0  0  0  0  0  0  0  0
   -8.2355   -5.3305    3.2043 C   0  0  0  0  0  0  0  0  0  0  0  0
   -7.0409   -5.5518    3.0869 O   0  0  0  0  0  0  0  0  0  0  0  0
   -8.9431   -5.9991    4.2103 N   0  0  0  0  0  0  0  0  0  0  0  0
   -8.2302   -7.0549    4.9268 C   0  0  0  0  0  0  0  0  0  0  0  0
   -8.3869   -8.3889    4.2093 C   0  0  0  0  0  0  0  0  0  0  0  0
  -10.1985   -5.6754    4.6566 C   0  0  0  0  0  0  0  0  0  0  0  0
  -10.7078   -6.2241    5.6023 O   0  0  0  0  0  0  0  0  0  0  0  0
  -10.8880   -4.5513    3.8830 C   0  0  0  0  0  0  0  0  0  0  0  0
  -12.3188   -4.6770    4.0443 C   0  0  0  0  0  0  0  0  0  0  0  0
  -13.4525   -4.7796    4.1348 N   0  0  0  0  0  0  0  0  0  0  0  0
  -10.4859   -4.5917    2.3964 C   0  0  0  0  0  0  0  0  0  0  0  0
  -11.2824   -3.5707    1.5894 C   0  0  0  0  0  0  0  0  0  0  0  0
    8.0600    5.8337   -3.8919 H   0  0  0  0  0  0  0  0  0  0  0  0
   12.7541    4.9227   -6.3083 H   0  0  0  0  0  0  0  0  0  0  0  0
   14.4373    1.5747   -4.2167 H   0  0  0  0  0  0  0  0  0  0  0  0
   12.5302    1.5354   -2.6652 H   0  0  0  0  0  0  0  0  0  0  0  0
    7.4107    3.1304   -5.3751 H   0  0  0  0  0  0  0  0  0  0  0  0
    8.9703    3.0401   -7.2500 H   0  0  0  0  0  0  0  0  0  0  0  0
   12.1534    1.1071   -7.2247 H   0  0  0  0  0  0  0  0  0  0  0  0
   11.3358    2.5018   -7.9494 H   0  0  0  0  0  0  0  0  0  0  0  0
   10.7870    0.8693   -8.3120 H   0  0  0  0  0  0  0  0  0  0  0  0
   11.2561    0.0616   -5.2261 H   0  0  0  0  0  0  0  0  0  0  0  0
    9.7354    0.1918   -3.3127 H   0  0  0  0  0  0  0  0  0  0  0  0
    7.6873    1.2407   -0.4563 H   0  0  0  0  0  0  0  0  0  0  0  0
    7.1493   -0.8898    0.6243 H   0  0  0  0  0  0  0  0  0  0  0  0
    6.6349   -3.2246    0.4870 H   0  0  0  0  0  0  0  0  0  0  0  0
    5.2193   -3.2714   -0.5769 H   0  0  0  0  0  0  0  0  0  0  0  0
    6.7139   -4.0529   -1.0802 H   0  0  0  0  0  0  0  0  0  0  0  0
    6.3810   -2.6443   -3.1884 H   0  0  0  0  0  0  0  0  0  0  0  0
    6.9522   -0.5140   -4.2830 H   0  0  0  0  0  0  0  0  0  0  0  0
    2.2282    7.3020   -2.0838 H   0  0  0  0  0  0  0  0  0  0  0  0
    3.3793    9.3420   -1.3850 H   0  0  0  0  0  0  0  0  0  0  0  0
    4.7629   10.2772    0.8618 H   0  0  0  0  0  0  0  0  0  0  0  0
    6.2895    9.3927    0.9882 H   0  0  0  0  0  0  0  0  0  0  0  0
    5.8149   10.1388   -0.5413 H   0  0  0  0  0  0  0  0  0  0  0  0
    5.9753    7.0384    1.0960 H   0  0  0  0  0  0  0  0  0  0  0  0
    4.7981    5.0096    0.4479 H   0  0  0  0  0  0  0  0  0  0  0  0
    0.8268    6.3743   -0.2832 H   0  0  0  0  0  0  0  0  0  0  0  0
   -1.4793    6.4661   -1.0820 H   0  0  0  0  0  0  0  0  0  0  0  0
   -3.2457    5.6462   -2.4266 H   0  0  0  0  0  0  0  0  0  0  0  0
   -2.6965    5.2259   -4.0530 H   0  0  0  0  0  0  0  0  0  0  0  0
   -3.1180    3.9500   -2.9156 H   0  0  0  0  0  0  0  0  0  0  0  0
   -0.6592    3.3042   -3.8235 H   0  0  0  0  0  0  0  0  0  0  0  0
    1.6628    3.2478   -3.0770 H   0  0  0  0  0  0  0  0  0  0  0  0
   -1.0795    3.2289   -0.5522 H   0  0  0  0  0  0  0  0  0  0  0  0
   -3.3426    3.9103    0.1135 H   0  0  0  0  0  0  0  0  0  0  0  0
   -3.7119    6.0172    4.4060 H   0  0  0  0  0  0  0  0  0  0  0  0
   -4.1807    4.3553    4.8952 H   0  0  0  0  0  0  0  0  0  0  0  0
   -5.4270    5.5612    4.5077 H   0  0  0  0  0  0  0  0  0  0  0  0
   -1.9779    4.4374    4.1354 H   0  0  0  0  0  0  0  0  0  0  0  0
    0.2530    3.7518    3.4723 H   0  0  0  0  0  0  0  0  0  0  0  0
    1.2728    5.5378    1.8887 H   0  0  0  0  0  0  0  0  0  0  0  0
    3.1324    6.4936    3.1145 H   0  0  0  0  0  0  0  0  0  0  0  0
    4.4584    7.0108    5.0007 H   0  0  0  0  0  0  0  0  0  0  0  0
    5.1326    7.5782    3.4383 H   0  0  0  0  0  0  0  0  0  0  0  0
    6.1872    7.3947    4.8585 H   0  0  0  0  0  0  0  0  0  0  0  0
    5.2584    2.7984    2.7646 H   0  0  0  0  0  0  0  0  0  0  0  0
    3.3550    1.8153    1.5745 H   0  0  0  0  0  0  0  0  0  0  0  0
    0.3556   -3.7228   -3.5347 H   0  0  0  0  0  0  0  0  0  0  0  0
    2.2839   -5.2462   -3.4358 H   0  0  0  0  0  0  0  0  0  0  0  0
    3.4667   -6.4507    0.8240 H   0  0  0  0  0  0  0  0  0  0  0  0
    4.9324   -5.4196    0.7918 H   0  0  0  0  0  0  0  0  0  0  0  0
    5.0414   -7.1387    0.3618 H   0  0  0  0  0  0  0  0  0  0  0  0
    3.0047   -4.0632    0.6093 H   0  0  0  0  0  0  0  0  0  0  0  0
    1.0668   -2.6019    0.5304 H   0  0  0  0  0  0  0  0  0  0  0  0
   -1.5124   -4.6603   -2.1609 H   0  0  0  0  0  0  0  0  0  0  0  0
   -3.6436   -5.1073   -3.3076 H   0  0  0  0  0  0  0  0  0  0  0  0
   -7.5815   -2.1468   -4.6315 H   0  0  0  0  0  0  0  0  0  0  0  0
   -6.4868   -1.4075   -3.4398 H   0  0  0  0  0  0  0  0  0  0  0  0
   -6.1364   -1.2736   -5.1929 H   0  0  0  0  0  0  0  0  0  0  0  0
   -4.2539   -0.9023   -3.7892 H   0  0  0  0  0  0  0  0  0  0  0  0
   -2.1644   -0.4666   -2.6313 H   0  0  0  0  0  0  0  0  0  0  0  0
   -2.8855   -0.8793    3.2511 H   0  0  0  0  0  0  0  0  0  0  0  0
   -3.2703   -0.5017    5.6385 H   0  0  0  0  0  0  0  0  0  0  0  0
   -3.8527   -3.0384    8.0673 H   0  0  0  0  0  0  0  0  0  0  0  0
   -3.5196   -1.3131    7.8630 H   0  0  0  0  0  0  0  0  0  0  0  0
   -2.2052   -2.4383    8.2158 H   0  0  0  0  0  0  0  0  0  0  0  0
   -2.5420   -4.6303    6.4170 H   0  0  0  0  0  0  0  0  0  0  0  0
   -2.1827   -5.0244    4.0255 H   0  0  0  0  0  0  0  0  0  0  0  0
   -2.9156   -4.7247    0.0332 H   0  0  0  0  0  0  0  0  0  0  0  0
   -1.5905   -6.6173   -0.7948 H   0  0  0  0  0  0  0  0  0  0  0  0
    1.3992   -7.9743    0.9011 H   0  0  0  0  0  0  0  0  0  0  0  0
    1.4106   -7.2240   -0.6997 H   0  0  0  0  0  0  0  0  0  0  0  0
    0.1143   -8.3285   -0.2595 H   0  0  0  0  0  0  0  0  0  0  0  0
    1.3340   -5.8999    2.2217 H   0  0  0  0  0  0  0  0  0  0  0  0
    0.0218   -4.0023    3.0476 H   0  0  0  0  0  0  0  0  0  0  0  0
   -7.3020   -3.6959   -1.5770 H   0  0  0  0  0  0  0  0  0  0  0  0
   -8.9891   -4.8181   -2.9519 H   0  0  0  0  0  0  0  0  0  0  0  0
  -12.1913   -3.2810   -3.9835 H   0  0  0  0  0  0  0  0  0  0  0  0
  -12.0960   -4.6657   -2.8984 H   0  0  0  0  0  0  0  0  0  0  0  0
  -11.0434   -4.5902   -4.3084 H   0  0  0  0  0  0  0  0  0  0  0  0
  -11.7055   -1.6009   -2.2594 H   0  0  0  0  0  0  0  0  0  0  0  0
  -10.0197   -0.4725   -0.8751 H   0  0  0  0  0  0  0  0  0  0  0  0
   -7.9673    0.1250   -2.5274 H   0  0  0  0  0  0  0  0  0  0  0  0
   -7.4574    2.5062   -2.7502 H   0  0  0  0  0  0  0  0  0  0  0  0
   -5.9267    4.5740   -0.0163 H   0  0  0  0  0  0  0  0  0  0  0  0
   -7.3569    4.7672   -1.0341 H   0  0  0  0  0  0  0  0  0  0  0  0
   -5.8138    4.3590   -1.7725 H   0  0  0  0  0  0  0  0  0  0  0  0
   -6.1545    2.6287    1.3069 H   0  0  0  0  0  0  0  0  0  0  0  0
   -6.6886    0.2474    1.5508 H   0  0  0  0  0  0  0  0  0  0  0  0
   -9.0691   -2.9349    0.9244 H   0  0  0  0  0  0  0  0  0  0  0  0
   -7.1780   -6.7682    4.9733 H   0  0  0  0  0  0  0  0  0  0  0  0
   -8.6499   -7.1093    5.9323 H   0  0  0  0  0  0  0  0  0  0  0  0
   -7.8523   -9.1615    4.7542 H   0  0  0  0  0  0  0  0  0  0  0  0
   -9.4374   -8.6657    4.1518 H   0  0  0  0  0  0  0  0  0  0  0  0
   -7.9784   -8.3251    3.2032 H   0  0  0  0  0  0  0  0  0  0  0  0
  -10.5780   -3.5943    4.3254 H   0  0  0  0  0  0  0  0  0  0  0  0
  -10.7333   -5.5930    2.0141 H   0  0  0  0  0  0  0  0  0  0  0  0
  -12.3463   -3.7581    1.7185 H   0  0  0  0  0  0  0  0  0  0  0  0
  -11.0540   -3.6505    0.5289 H   0  0  0  0  0  0  0  0  0  0  0  0
  -11.0731   -2.5563    1.9239 H   0  0  0  0  0  0  0  0  0  0  0  0
  1  2  2  0  0  0  0
  2  3  1  0  0  0  0
  3  4  2  0  0  0  0
  3  5  1  0  0  0  0
  5  6  2  0  0  0  0
  6  7  1  0  0  0  0
  7  8  1  0  0  0  0
  7  9  2  0  0  0  0
  9 10  1  0  0  0  0
 10 11  2  0  0  0  0
 11 12  1  0  0  0  0
 12 13  2  0  0  0  0
 13 14  1  0  0  0  0
 14 15  3  0  0  0  0
 13 16  1  0  0  0  0
 16 17  3  0  0  0  0
  1 18  1  0  0  0  0
 18 19  2  0  0  0  0
 19 20  1  0  0  0  0
 20 21  1  0  0  0  0
 21 22  2  0  0  0  0
 22 23  1  0  0  0  0
 23 24  2  0  0  0  0
 24 25  1  0  0  0  0
 24 26  1  0  0  0  0
 26 27  2  0  0  0  0
 20 28  1  0  0  0  0
 28 29  2  0  0  0  0
 29 30  1  0  0  0  0
 30 31  2  0  0  0  0
 31 32  1  0  0  0  0
 31 33  1  0  0  0  0
 33 34  2  0  0  0  0
 19 35  1  0  0  0  0
 35 36  1  0  0  0  0
 36 37  1  0  0  0  0
 37 38  2  0  0  0  0
 38 39  1  0  0  0  0
 39 40  1  0  0  0  0
 40 41  2  0  0  0  0
 41 42  1  0  0  0  0
 42 43  2  0  0  0  0
 43 44  1  0  0  0  0
 43 45  1  0  0  0  0
 45 46  2  0  0  0  0
 39 47  1  0  0  0  0
 47 48  2  0  0  0  0
 48 49  1  0  0  0  0
 49 50  2  0  0  0  0
 50 51  1  0  0  0  0
 50 52  1  0  0  0  0
 52 53  2  0  0  0  0
 38 54  1  0  0  0  0
 54 55  1  0  0  0  0
 37 56  1  0  0  0  0
 56 57  2  0  0  0  0
 57 58  1  0  0  0  0
 58 59  1  0  0  0  0
 59 60  2  0  0  0  0
 60 61  1  0  0  0  0
 61 62  2  0  0  0  0
 62 63  1  0  0  0  0
 63 64  1  0  0  0  0
 62 65  1  0  0  0  0
 65 66  2  0  0  0  0
 58 67  1  0  0  0  0
 67 68  2  0  0  0  0
 68 69  1  0  0  0  0
 69 70  2  0  0  0  0
 70 71  1  0  0  0  0
 71 72  1  0  0  0  0
 70 73  1  0  0  0  0
 73 74  2  0  0  0  0
 57 75  1  0  0  0  0
 75 76  1  0  0  0  0
 76 77  1  0  0  0  0
 77 78  2  0  0  0  0
 78 79  1  0  0  0  0
 79 80  1  0  0  0  0
 80 81  2  0  0  0  0
 81 82  1  0  0  0  0
 82 83  2  0  0  0  0
 83 84  1  0  0  0  0
 84 85  1  0  0  0  0
 83 86  1  0  0  0  0
 86 87  2  0  0  0  0
 79 88  1  0  0  0  0
 88 89  2  0  0  0  0
 89 90  1  0  0  0  0
 90 91  2  0  0  0  0
 91 92  1  0  0  0  0
 92 93  1  0  0  0  0
 91 94  1  0  0  0  0
 94 95  2  0  0  0  0
 78 96  1  0  0  0  0
 96 97  1  0  0  0  0
 77 98  1  0  0  0  0
 98 99  2  0  0  0  0
 99100  1  0  0  0  0
100101  1  0  0  0  0
101102  2  0  0  0  0
102103  1  0  0  0  0
103104  2  0  0  0  0
104105  1  0  0  0  0
104106  1  0  0  0  0
106107  2  0  0  0  0
100108  1  0  0  0  0
108109  2  0  0  0  0
109110  1  0  0  0  0
110111  2  0  0  0  0
111112  1  0  0  0  0
111113  1  0  0  0  0
113114  2  0  0  0  0
 99115  1  0  0  0  0
115116  1  0  0  0  0
116117  1  0  0  0  0
117118  2  0  0  0  0
118119  1  0  0  0  0
119120  1  0  0  0  0
120121  2  0  0  0  0
121122  1  0  0  0  0
122123  2  0  0  0  0
123124  1  0  0  0  0
123125  1  0  0  0  0
125126  2  0  0  0  0
119127  1  0  0  0  0
127128  2  0  0  0  0
128129  1  0  0  0  0
129130  2  0  0  0  0
130131  1  0  0  0  0
130132  1  0  0  0  0
132133  2  0  0  0  0
118134  1  0  0  0  0
134135  1  0  0  0  0
117136  1  0  0  0  0
136137  2  0  0  0  0
137138  1  0  0  0  0
138139  2  0  0  0  0
138140  1  0  0  0  0
140141  1  0  0  0  0
141142  1  0  0  0  0
140143  1  0  0  0  0
143144  2  0  0  0  0
143145  1  0  0  0  0
145146  1  0  0  0  0
146147  3  0  0  0  0
145148  1  0  0  0  0
148149  1  0  0  0  0
 12  2  1  0  0  0  0
 55 18  1  0  0  0  0
 97 56  1  0  0  0  0
135 98  1  0  0  0  0
148137  1  0  0  0  0
 11  5  1  0  0  0  0
 27 21  1  0  0  0  0
 34 28  1  0  0  0  0
 54 35  2  0  0  0  0
 66 59  1  0  0  0  0
 74 67  1  0  0  0  0
 96 75  2  0  0  0  0
107101  1  0  0  0  0
114108  1  0  0  0  0
134115  2  0  0  0  0
 46 40  1  0  0  0  0
 53 47  1  0  0  0  0
 87 80  1  0  0  0  0
 95 88  1  0  0  0  0
126120  1  0  0  0  0
133127  1  0  0  0  0
  1150  1  0  0  0  0
  6151  1  0  0  0  0
  9152  1  0  0  0  0
 10153  1  0  0  0  0
 22154  1  0  0  0  0
 23155  1  0  0  0  0
 25156  1  0  0  0  0
 25157  1  0  0  0  0
 25158  1  0  0  0  0
 26159  1  0  0  0  0
 27160  1  0  0  0  0
 29161  1  0  0  0  0
 30162  1  0  0  0  0
 32163  1  0  0  0  0
 32164  1  0  0  0  0
 32165  1  0  0  0  0
 33166  1  0  0  0  0
 34167  1  0  0  0  0
 41168  1  0  0  0  0
 42169  1  0  0  0  0
 44170  1  0  0  0  0
 44171  1  0  0  0  0
 44172  1  0  0  0  0
 45173  1  0  0  0  0
 46174  1  0  0  0  0
 48175  1  0  0  0  0
 49176  1  0  0  0  0
 51177  1  0  0  0  0
 51178  1  0  0  0  0
 51179  1  0  0  0  0
 52180  1  0  0  0  0
 53181  1  0  0  0  0
 60182  1  0  0  0  0
 61183  1  0  0  0  0
 64184  1  0  0  0  0
 64185  1  0  0  0  0
 64186  1  0  0  0  0
 65187  1  0  0  0  0
 66188  1  0  0  0  0
 68189  1  0  0  0  0
 69190  1  0  0  0  0
 72191  1  0  0  0  0
 72192  1  0  0  0  0
 72193  1  0  0  0  0
 73194  1  0  0  0  0
 74195  1  0  0  0  0
 81196  1  0  0  0  0
 82197  1  0  0  0  0
 85198  1  0  0  0  0
 85199  1  0  0  0  0
 85200  1  0  0  0  0
 86201  1  0  0  0  0
 87202  1  0  0  0  0
 89203  1  0  0  0  0
 90204  1  0  0  0  0
 93205  1  0  0  0  0
 93206  1  0  0  0  0
 93207  1  0  0  0  0
 94208  1  0  0  0  0
 95209  1  0  0  0  0
102210  1  0  0  0  0
103211  1  0  0  0  0
105212  1  0  0  0  0
105213  1  0  0  0  0
105214  1  0  0  0  0
106215  1  0  0  0  0
107216  1  0  0  0  0
109217  1  0  0  0  0
110218  1  0  0  0  0
112219  1  0  0  0  0
112220  1  0  0  0  0
112221  1  0  0  0  0
113222  1  0  0  0  0
114223  1  0  0  0  0
121224  1  0  0  0  0
122225  1  0  0  0  0
124226  1  0  0  0  0
124227  1  0  0  0  0
124228  1  0  0  0  0
125229  1  0  0  0  0
126230  1  0  0  0  0
128231  1  0  0  0  0
129232  1  0  0  0  0
131233  1  0  0  0  0
131234  1  0  0  0  0
131235  1  0  0  0  0
132236  1  0  0  0  0
133237  1  0  0  0  0
136238  1  0  0  0  0
141239  1  0  0  0  0
141240  1  0  0  0  0
142241  1  0  0  0  0
142242  1  0  0  0  0
142243  1  0  0  0  0
145244  1  0  0  0  0
148245  1  0  0  0  0
149246  1  0  0  0  0
149247  1  0  0  0  0
149248  1  0  0  0  0
M  END
