244

C         -3.17970        8.78520       -0.47690
C         -3.37090        9.81560        0.42710
C         -2.51140       10.14000        1.55990
O         -1.53730        9.53370        1.97280
C         -3.04830       11.39820        2.12730
C         -2.58650       12.11800        3.20780
C         -3.27500       13.27810        3.53750
Br        -2.68930       14.31360        5.02150
C         -4.38000       13.70050        2.81390
C         -4.83690       12.96500        1.72860
C         -4.16710       11.80270        1.37970
C         -4.40650       10.81110        0.32910
C         -5.46200       10.84090       -0.55380
C         -6.38790       11.89810       -0.64010
N         -7.16300       12.73530       -0.77740
C         -5.79750        9.82270       -1.46500
N         -6.17050        9.02330       -2.20330
C         -2.24410        7.76260       -0.49600
C         -2.19630        6.77230       -1.52080
N         -2.85450        6.82370       -2.71530
C         -3.14870        5.61570       -3.38510
C         -3.79000        4.57990       -2.71310
C         -4.08100        3.40150       -3.37320
C         -3.74720        3.22850       -4.71000
C         -4.05090        1.94990       -5.42760
C         -3.11230        4.27400       -5.37360
C         -2.81370        5.45510       -4.72600
C         -3.10410        8.02880       -3.40190
C         -2.18690        9.07600       -3.36980
C         -2.46000       10.25230       -4.03860
C         -3.63320       10.40860       -4.76800
C         -3.94690       11.69370       -5.46910
C         -4.52300        9.34230       -4.82470
C         -4.27090        8.16520       -4.14900
C         -1.35610        5.71550       -1.14600
S         -0.91330        4.21380       -1.89180
C          0.15930        3.84550       -0.54720
C          0.22300        4.88920        0.37860
N          1.04930        4.91600        1.49270
C          0.49170        5.43860        2.67310
C          1.17270        6.36000        3.46230
C          0.57000        6.88430        4.58650
C         -0.72390        6.52480        4.94580
C         -1.37780        7.14030        6.14400
C         -1.39630        5.60400        4.15320
C         -0.79640        5.05640        3.03630
C          2.42090        4.67600        1.37160
C          3.16150        4.26430        2.48050
C          4.50620        3.98980        2.35540
C          5.15720        4.10650        1.13170
C          6.61370        3.77610        1.01010
C          4.41550        4.52120        0.03400
C          3.06910        4.80850        0.14520
C         -0.67960        5.92130        0.05190
S         -1.09560        7.41820        0.80780
C          0.66410        2.53630       -0.40340
C          0.45710        1.47260       -1.28330
N          0.04370        1.60920       -2.60050
C         -0.93420        0.70460       -3.05850
C         -0.69280       -0.14020       -4.13540
C         -1.64930       -1.05190       -4.53910
C         -2.86890       -1.11860       -3.87770
S         -4.16460       -2.23970       -4.29080
C         -3.46830       -3.23340       -5.63610
C         -3.12010       -0.25130       -2.81480
C         -2.15930        0.64310       -2.40030
C          0.72790        2.43740       -3.48960
C          0.09930        2.86650       -4.66160
C          0.74620        3.71610       -5.52750
C          2.03520        4.16820       -5.24910
S          2.75300        5.27020       -6.42820
C          4.38860        5.64860       -5.73750
C          2.66650        3.74160       -4.08960
C          2.02060        2.88220       -3.22220
C          0.76050        0.24160       -0.66990
S          0.64230       -1.41010       -1.14900
C          1.33700       -1.94100        0.39310
C          1.71570       -0.86300        1.18120
N          2.41790       -0.92910        2.37710
C          2.16170        0.06910        3.33280
C          3.19790        0.75150        3.97050
C          2.91560        1.75470        4.86890
C          1.59730        2.11610        5.14260
S          1.36610        3.46000        6.26440
C         -0.40050        3.38370        6.66520
C          0.56320        1.43870        4.51250
C          0.84560        0.42030        3.62270
C          3.61850       -1.64940        2.42900
C          4.07340       -2.15610        3.64520
C          5.27070       -2.83540        3.71910
C          6.03630       -3.02600        2.57590
S          7.58060       -3.88440        2.58500
C          8.21140       -3.53410        4.25500
C          5.58260       -2.53650        1.35720
C          4.38940       -1.85040        1.28290
C          1.30800        0.36070        0.59780
S          1.38110        2.00880        1.11270
C          1.34910       -3.35210        0.60520
C          0.30510       -4.17330        0.18280
N         -0.94240       -3.69700       -0.19390
C         -1.61770       -4.34660       -1.23640
C         -0.89960       -4.79250       -2.34270
C         -1.53190       -5.51070       -3.33800
C         -2.89090       -5.78850       -3.26740
C         -3.56200       -6.62750       -4.31070
C         -3.60750       -5.30040       -2.18130
C         -2.98580       -4.59340       -1.17290
C         -1.56090       -2.72630        0.60350
C         -1.31340       -2.65820        1.97280
C         -1.88700       -1.66030        2.73600
C         -2.70980       -0.69880        2.16240
C         -3.27530        0.42270        2.98030
C         -2.97400       -0.79140        0.80090
C         -2.41650       -1.79020        0.02980
C          0.62600       -5.53800        0.30370
S         -0.16350       -6.98400       -0.19830
C          1.15850       -7.94200        0.47880
C          2.19520       -7.12030        1.00950
N          3.35680       -7.58090        1.57360
C          4.03400       -8.69130        1.03400
C          4.11990       -8.84390       -0.34900
C          4.75520       -9.94460       -0.88380
C          5.33010      -10.91180       -0.06400
C          6.01480      -12.10080       -0.66370
C          5.26010      -10.73680        1.31170
C          4.62130       -9.64250        1.86320
C          3.85330       -6.96760        2.73600
C          5.22250       -6.89320        2.97040
C          5.69400       -6.40110        4.17160
C          4.82360       -5.94430        5.15240
C          5.31700       -5.47160        6.48690
C          3.45890       -5.96810        4.88510
C          2.97370       -6.48140        3.70140
C          1.86400       -5.76380        0.89850
S          2.67230       -4.27750        1.30430
C          1.13810       -9.32370        0.60750
C          0.23120      -10.25620        0.13870
C         -0.87960      -10.00360       -0.76680
O         -1.29690       -8.93470       -1.17370
C         -1.39580      -11.33950       -1.15430
C         -2.38570      -11.64910       -2.06690
Cl        -3.32340      -10.43230       -2.80690
C         -2.60200      -12.99810       -2.38100
Cl        -3.84360      -13.43360       -3.47460
C         -1.77550      -13.97820       -1.83770
Cl        -1.98730      -15.60830       -2.31410
C         -0.76240      -13.65460       -0.91900
Cl         0.32580      -14.89350       -0.44510
C         -0.62550      -12.33290       -0.51700
C          0.27240      -11.66980        0.43030
C          0.87230      -12.24180        1.52700
C          1.69450      -11.54820        2.43900
N          2.37400      -11.07040        3.23370
C          0.62410      -13.53410        2.03390
N          0.42780      -14.51890        2.59120
H         -3.87400        8.76330       -1.30680
H         -1.72610       11.78510        3.76740
H         -4.89000       14.60820        3.09830
H         -5.69820       13.31070        1.18140
H         -4.06730        4.71050       -1.67720
H         -4.58510        2.60640       -2.84470
H         -3.13880        1.36650       -5.55940
H         -4.75730        1.34390       -4.86670
H         -4.46300        2.15260       -6.41420
H         -2.84650        4.15890       -6.41440
H         -2.31690        6.25730       -5.25100
H         -1.26680        8.96730       -2.81440
H         -1.74370       11.06030       -3.99820
H         -4.23650       11.50650       -6.50160
H         -4.78190       12.19210       -4.97650
H         -3.09150       12.36430       -5.45970
H         -5.43780        9.44180       -5.38880
H         -4.98060        7.35380       -4.18380
H          2.16660        6.67330        3.18120
H          1.10660        7.60200        5.18890
H         -2.24330        6.56240        6.46070
H         -0.67600        7.21260        6.97260
H         -1.71310        8.14900        5.90180
H         -2.40710        5.31490        4.40900
H         -1.32530        4.33400        2.42990
H          2.67100        4.14780        3.43400
H          5.06200        3.66850        3.22410
H          7.18020        4.23630        1.81760
H          6.76120        2.69730        1.07300
H          7.01440        4.12130        0.06020
H          4.89920        4.62920       -0.92680
H          2.51750        5.13880       -0.72320
H          0.25480       -0.08870       -4.65070
H         -1.42760       -1.70790       -5.36480
H         -3.24930       -2.60150       -6.49210
H         -4.23910       -3.95130       -5.89700
H         -2.58420       -3.75440       -5.28080
H         -4.08060       -0.29690       -2.32370
H         -2.34280        1.30790       -1.57020
H         -0.90880        2.54550       -4.87050
H          0.25550        4.05290       -6.42750
H          4.85140        6.33260       -6.44200
H          4.28120        6.13240       -4.77100
H          4.98030        4.74080       -5.66330
H          3.66560        4.06530       -3.84580
H          2.53020        2.55780       -2.32680
H          4.22370        0.50160        3.74620
H          3.71550        2.28660        5.36050
H         -0.55190        4.10970        7.45770
H         -0.98880        3.66330        5.79640
H         -0.65140        2.38820        7.01950
H         -0.46620        1.69800        4.69930
H          0.03870       -0.10210        3.13040
H          3.47870       -2.01180        4.53470
H          5.60050       -3.22000        4.66930
H          8.09950       -2.47510        4.46490
H          9.26300       -3.80250        4.23930
H          7.68960       -4.13360        4.99400
H          6.18070       -2.68690        0.47170
H          4.05910       -1.44990        0.33620
H          0.15740       -4.57760       -2.41050
H         -0.95600       -5.86990       -4.17970
H         -3.04780       -6.55750       -5.26700
H         -4.60140       -6.33370       -4.44010
H         -3.54540       -7.67170       -3.99780
H         -4.66770       -5.49560       -2.11370
H         -3.55300       -4.24770       -0.32160
H         -0.67490       -3.39210        2.44240
H         -1.69790       -1.63730        3.80050
H         -3.29200        0.16380        4.03660
H         -4.28690        0.66430        2.66090
H         -2.66240        1.31770        2.85780
H         -3.62450       -0.06480        0.33620
H         -2.62270       -1.84790       -1.02700
H          3.67860       -8.09940       -0.99540
H          4.81220      -10.05580       -1.95690
H          6.26700      -12.83080        0.10100
H          5.37570      -12.57650       -1.40600
H          6.93340      -11.79410       -1.16430
H          5.69740      -11.47400        1.96830
H          4.55370       -9.53630        2.93410
H          5.91580       -7.23760        2.21840
H          6.76000       -6.38600        4.34520
H          6.40390       -5.44110        6.51960
H          4.92540       -4.48200        6.72030
H          4.97590       -6.15020        7.26860
H          2.76530       -5.60870        5.63130
H          1.90850       -6.54030        3.53350
H          1.97760       -9.73170        1.15450
