214

C          5.37480       -1.46730        7.15810
C          5.13620       -2.15240        8.32460
C          6.24910       -2.81610        9.02970
O          7.43750       -2.64340        8.86710
C          5.59540       -3.79000        9.94180
C          6.17770       -4.74500       10.74760
C          5.32770       -5.56740       11.47600
Br         6.07410       -6.90680       12.60150
C          3.94780       -5.44360       11.40220
C          3.37080       -4.46970       10.59970
C          4.19890       -3.63570        9.86700
C          3.90610       -2.51110        8.98040
C          2.74870       -1.76770        8.99950
C          2.67310       -0.48700        8.41730
N          2.62000        0.58710        8.01260
C          1.57450       -2.16230        9.66140
N          0.58750       -2.46880       10.16370
C          4.48420       -1.22760        6.10800
C          4.75360       -0.51360        4.92150
N          5.82410        0.30140        4.72600
C          6.24980        0.57720        3.41010
C          6.45000       -0.46620        2.51020
C          6.86920       -0.19570        1.22350
C          7.09680        1.11050        0.80420
C          7.52260        1.39000       -0.60380
C          6.90800        2.14270        1.71530
C          6.49110        1.88570        3.00670
C          6.45420        0.99130        5.78540
C          7.83740        1.13360        5.78010
C          8.46450        1.81540        6.80480
C          7.73370        2.36750        7.84970
C          8.42230        3.06960        8.97810
C          6.34940        2.23260        7.83300
C          5.70760        1.56030        6.81300
C          3.72660       -0.71040        3.96850
S          3.41640       -0.09590        2.37580
C          1.88030       -0.92630        2.33950
C          1.56750       -1.54740        3.54440
N          0.31980       -2.01190        3.88550
C         -0.82370       -1.40780        3.32440
C         -1.87830       -2.19590        2.87970
C         -2.94140       -1.61570        2.21160
C         -2.98390       -0.24760        1.97970
C         -4.08540        0.38100        1.18550
C         -1.96020        0.54110        2.49730
C         -0.89480       -0.02450        3.16470
C          0.17850       -2.90040        4.96520
C          1.00130       -4.01720        5.07130
C          0.91200       -4.83770        6.18110
C          0.00470       -4.57110        7.19710
C         -0.08000       -5.43360        8.41770
C         -0.84290       -3.47570        7.05900
C         -0.76380       -2.64800        5.95920
C          2.66500       -1.47180        4.43440
S          2.92280       -2.05040        6.03460
C          1.03310       -0.83750        1.18140
C          0.29090       -1.91380        0.71840
F          0.44720       -3.12250        1.28930
C         -0.57110       -1.81280       -0.37250
F         -1.27280       -2.90750       -0.72020
C         -0.77790       -0.61770       -1.05430
C         -0.22430        0.53790       -0.43540
N         -0.74220        1.74240       -0.61550
C         -0.19490        2.80310       -0.05160
C         -1.08930        3.87560        0.26350
S         -2.76890        3.62630       -0.12290
C         -3.24190        5.03620        0.75480
C         -4.66360        5.45660        0.90100
C         -5.54090        4.31350        1.40890
C         -2.13660        5.63690        1.29550
C         -0.91620        4.99610        1.03880
F         -2.21320        6.75890        2.03330
C          1.16200        2.67440        0.42230
N          1.54970        1.47860        0.80490
C          0.81510        0.40370        0.53270
C          2.13770        3.72680        0.46630
C          3.34640        3.69380        1.11450
C          4.09160        4.85910        0.87580
F          5.30370        5.06520        1.41930
C          3.50230        5.77740        0.05140
C          4.04760        7.08270       -0.41300
C          4.37680        7.05260       -1.90670
S          1.95820        5.19060       -0.45850
C         -1.46060       -0.53600       -2.30570
C         -1.48680       -1.52840       -3.28830
N         -0.68390       -2.64910       -3.30660
C         -1.14700       -3.82570       -3.91390
C         -0.28660       -4.61520       -4.67150
C         -0.75740       -5.76150       -5.27850
C         -2.08790       -6.14660       -5.15490
C         -2.59780       -7.37090       -5.84990
C         -2.93590       -5.35590       -4.38940
C         -2.47680       -4.21100       -3.76930
C          0.61020       -2.58740       -2.76290
C          1.37260       -1.42440       -2.87730
C          2.58310       -1.31900       -2.22670
C          3.08400       -2.36970       -1.46350
C          4.37770       -2.21540       -0.72590
C          2.35590       -3.55070       -1.41660
C          1.13410       -3.66450       -2.05330
C         -2.31560       -1.13520       -4.36360
S         -2.84850       -1.94370       -5.78970
C         -3.75370       -0.50000       -6.27960
C         -3.45360        0.61250       -5.44500
N         -3.65130        1.90440       -5.77680
C         -3.92440        2.34590       -7.08770
C         -4.87790        3.34280       -7.27670
C         -5.15850        3.80550       -8.54900
C         -4.48740        3.30700       -9.65750
C         -4.78560        3.80320      -11.03560
C         -3.51250        2.33190       -9.45310
C         -3.23170        1.85230       -8.19090
C         -3.43210        2.95960       -4.85140
C         -4.27180        3.16140       -3.76670
C         -4.09480        4.28010       -2.97190
C         -3.07890        5.19250       -3.22910
C         -2.88270        6.41700       -2.39000
C         -2.22640        4.95580       -4.30200
C         -2.40460        3.85800       -5.11670
C         -2.74710        0.18440       -4.29510
S         -2.22860        0.95170       -2.82080
C         -4.63860       -0.63810       -7.33590
C         -5.71490        0.19210       -7.61870
C         -6.36970        1.04060       -6.62900
O         -6.10310        1.15800       -5.44680
C         -7.53890        1.63460       -7.32690
C         -8.49660        2.49530       -6.82960
Cl        -8.35420        3.17470       -5.26960
C         -9.59260        2.81520       -7.64240
Cl       -10.78210        3.91250       -7.08370
C         -9.73290        2.20970       -8.88790
Cl       -11.13040        2.53140       -9.82370
C         -8.75440        1.33370       -9.38760
Cl        -9.07850        0.50480      -10.85470
C         -7.61510        1.10610       -8.62990
C         -6.40300        0.32120       -8.86990
C         -5.85460        0.00010      -10.09020
C         -6.27130        0.47960      -11.34470
N         -6.44650        0.90920      -12.39630
C         -4.63270       -0.69060      -10.22810
N         -3.64330       -1.23990      -10.42560
H          6.41300       -1.20540        6.98520
H          7.25080       -4.84300       10.80350
H          3.32080       -6.10920       11.97560
H          2.29760       -4.38420       10.54820
H          6.28530       -1.48480        2.82980
H          7.03050       -1.01220        0.53530
H          6.66970        1.29310       -1.27620
H          7.91860        2.39770       -0.69790
H          8.28220        0.68030       -0.92550
H          7.08330        3.16380        1.41290
H          6.34420        2.69650        3.70450
H          8.41540        0.70140        4.97640
H          9.54010        1.91250        6.79560
H          9.33740        3.54880        8.63820
H          7.77260        3.81870        9.42440
H          8.68760        2.34900        9.75240
H          5.75990        2.66600        8.62720
H          4.63190        1.46940        6.81990
H         -1.84010       -3.26430        3.03000
H         -3.73860       -2.24490        1.84400
H         -3.67560        0.84320        0.28690
H         -4.57760        1.16030        1.76500
H         -4.82580       -0.35820        0.89230
H         -1.99870        1.61340        2.36650
H         -0.10290        0.60060        3.55220
H          1.70590       -4.23530        4.28230
H          1.56530       -5.69500        6.25810
H         -0.14630       -4.81100        9.30820
H         -0.97390       -6.05610        8.37890
H          0.78790       -6.08410        8.49800
H         -1.55610       -3.25770        7.83960
H         -1.41140       -1.78790        5.87140
H         -4.70260        6.29940        1.59460
H         -5.05160        5.79810       -0.06300
H         -5.18720        3.96500        2.37640
H         -6.56830        4.65050        1.51750
H         -5.51700        3.48160        0.70860
H          0.01850        5.33890        1.43930
H          3.67370        2.87510        1.72740
H          4.95000        7.30190        0.16140
H          3.31680        7.87260       -0.22260
H          4.77480        8.01380       -2.21990
H          5.11770        6.28480       -2.11700
H          3.48130        6.83930       -2.48610
H          0.74660       -4.32130       -4.78490
H         -0.08160       -6.36440       -5.86750
H         -2.92890       -7.11360       -6.85670
H         -1.81730       -8.12320       -5.93570
H         -3.44390       -7.79720       -5.31630
H         -3.97020       -5.64360       -4.27060
H         -3.13850       -3.61750       -3.15650
H          1.00110       -0.59550       -3.46240
H          3.14980       -0.40220       -2.30410
H          4.38870       -1.27850       -0.17030
H          5.21210       -2.19970       -1.42750
H          4.52790       -3.03760       -0.03100
H          2.73120       -4.38850       -0.84770
H          0.55950       -4.57460       -1.97050
H         -5.39730        3.74840       -6.42180
H         -5.91090        4.56960       -8.67820
H         -5.27840        3.02700      -11.62100
H         -5.43580        4.67330      -11.00390
H         -3.86500        4.06760      -11.55270
H         -2.96410        1.94480      -10.29910
H         -2.46770        1.10100       -8.05990
H         -5.07670        2.46560       -3.58940
H         -4.77540        4.45240       -2.15190
H         -2.05060        6.27100       -1.70090
H         -2.64490        7.27370       -3.01710
H         -3.77200        6.64670       -1.81040
H         -1.42690        5.65170       -4.51010
H         -1.75960        3.69370       -5.96770
H         -4.50450       -1.52190       -7.94690
