202

C         -6.39180       -5.70140        0.04780
C         -6.35670       -6.77920       -0.81750
C         -5.43370       -6.87770       -1.95350
O         -4.56670       -6.08950       -2.28290
C         -5.86750       -8.07830       -2.70850
C         -5.33220       -8.60640       -3.86240
C         -5.92180       -9.75880       -4.36650
Br        -5.20710      -10.55000       -5.94220
C         -7.01290      -10.35130       -3.74960
C         -7.54830       -9.80550       -2.59070
C         -6.96860       -8.66430       -2.06240
C         -7.27170       -7.88240       -0.86480
C         -8.15300       -8.24040        0.12660
C         -8.94600       -9.40130        0.09270
N         -9.59930      -10.34600        0.12420
C         -8.29770       -7.53430        1.33690
N         -8.43570       -7.02600        2.35780
C         -5.32050       -4.86120        0.34390
C         -3.92360       -5.06790        0.26390
N         -3.27430       -6.24290        0.03470
C         -3.84360       -7.50180        0.27150
C         -3.59640       -8.54720       -0.61600
C         -4.18530       -9.78230       -0.41860
C         -5.02520      -10.01220        0.66260
C         -5.70620      -11.33000        0.85530
C         -5.22680       -8.97540        1.57180
C         -4.64870       -7.73790        1.38520
C         -1.94420       -6.20930       -0.44680
C         -0.95960       -6.96030        0.18620
C          0.34010       -6.92130       -0.27940
C          0.68640       -6.14020       -1.37740
C          2.09720       -6.11810       -1.87960
C         -0.31070       -5.40570       -2.00950
C         -1.61520       -5.43760       -1.55620
C         -3.23740       -3.86880        0.56760
S         -1.56610       -3.41700        0.62440
C         -1.99260       -1.78780        1.08450
C         -3.34700       -1.61520        1.24050
N         -3.96780       -0.40150        1.56760
C         -4.81520        0.15700        0.60390
C         -5.99810        0.80430        0.95600
C         -6.81360        1.33860       -0.01990
C         -6.49100        1.23660       -1.36890
C         -7.40190        1.80490       -2.41430
C         -5.31770        0.57990       -1.71260
C         -4.48650        0.04920       -0.74550
C         -3.99910        0.00590        2.90630
C         -4.01520       -0.92980        3.93820
C         -4.05010       -0.51370        5.25370
C         -4.07310        0.83680        5.58010
C         -4.15060        1.26920        7.01360
C         -4.03900        1.76430        4.54560
C         -3.99670        1.36130        3.22560
C         -4.05140       -2.80780        0.93660
S         -5.71760       -3.23770        0.93880
C         -0.92640       -0.79370        1.04960
C         -0.34550       -0.51000       -0.19590
C         -0.70620       -1.01530       -1.47960
C          0.06210       -0.54450       -2.48620
C         -0.04940       -0.83330       -3.94240
C         -0.56290        0.38660       -4.70960
S          1.28810        0.56120       -1.91790
C          0.74960        0.37200       -0.27520
C          1.31460        0.98370        0.83860
C          0.69350        0.75030        2.07230
C         -0.40120       -0.14380        2.15510
S         -0.87980       -0.39100        3.80820
C          0.34670        0.71740        4.36970
C          0.43010        1.04460        5.81980
C         -0.52380        2.19210        6.16020
C          1.08130        1.22700        3.35640
C          2.56030        1.71690        0.69750
C          3.71330        1.20570        0.12640
N          3.87790       -0.11050       -0.26670
C          4.67380       -0.41850       -1.37820
C          5.42340       -1.59220       -1.39740
C          6.21170       -1.89430       -2.48880
C          6.28510       -1.03920       -3.58270
C          7.17120       -1.35970       -4.74720
C          5.53260        0.12770       -3.55620
C          4.73120        0.43750       -2.47510
C          3.22770       -1.13450        0.44350
C          3.18050       -1.10620        1.83520
C          2.49850       -2.08430        2.52790
C          1.84870       -3.11660        1.86050
C          1.10130       -4.16070        2.63140
C          1.91700       -3.15060        0.47420
C          2.59970       -2.17780       -0.23000
C          4.72340        2.19540        0.06400
S          6.35800        2.19030       -0.47790
C          6.52090        3.90740       -0.06940
C          5.36540        4.40820        0.57640
N          5.24500        5.60800        1.20760
C          6.34410        6.33540        1.68770
C          7.41840        5.70010        2.30930
C          8.50360        6.43420        2.73780
C          8.55570        7.81590        2.56360
C          9.76740        8.58680        2.98230
C          7.46200        8.44590        1.98560
C          6.36560        7.72200        1.55450
C          3.95920        6.15700        1.41850
C          3.61050        6.63420        2.67620
C          2.35540        7.17460        2.88300
C          1.43060        7.25190        1.84950
C          0.06290        7.81870        2.07340
C          1.79870        6.78420        0.59180
C          3.04820        6.24240        0.37030
C          4.35010        3.42350        0.59460
S          2.73500        3.37230        1.22510
C          7.72080        4.52140       -0.41760
C          7.90960        5.87710       -0.61980
C          6.84490        6.78690       -1.05350
O          5.67330        6.52580       -1.25490
C          7.52060        8.07810       -1.33030
C          6.96680        9.25860       -1.77340
C          7.82500       10.33770       -1.94380
Br         7.11330       12.00200       -2.53030
C          9.18450       10.23660       -1.69310
C          9.73230        9.03870       -1.25350
C          8.89470        7.95210       -1.06640
C          9.15200        6.59090       -0.59770
C         10.33590        6.13240       -0.07060
C         11.50310        6.90920        0.03240
N         12.47560        7.50970        0.15280
C         10.49370        4.85850        0.50870
N         10.68080        3.84990        1.02620
H         -7.33680       -5.44250        0.51010
H         -4.48580       -8.14260       -4.34490
H         -7.44950      -11.24190       -4.17490
H         -8.40250      -10.27360       -2.12940
H         -2.95240       -8.37960       -1.46620
H         -3.99730      -10.57560       -1.12750
H         -5.51220      -11.71810        1.85370
H         -5.36450      -12.05640        0.12270
H         -6.78570      -11.21710        0.75130
H         -5.85430       -9.14070        2.43540
H         -4.82320       -6.94910        2.10150
H         -1.21780       -7.56570        1.04290
H          1.10150       -7.50150        0.22130
H          2.27550       -6.98050       -2.52270
H          2.29180       -5.21850       -2.45840
H          2.80350       -6.16540       -1.05350
H         -0.06250       -4.80350       -2.87130
H         -2.39560       -4.89410       -2.06520
H         -6.27910        0.87740        1.99580
H         -7.72790        1.83610        0.27040
H         -8.28800        1.17860       -2.52140
H         -7.73270        2.80350       -2.13490
H         -6.90270        1.85720       -3.37870
H         -5.04360        0.48480       -2.75390
H         -3.57040       -0.44450       -1.03390
H         -4.00710       -1.98460        3.70610
H         -4.07080       -1.25120        6.04290
H         -5.13790        1.04590        7.41830
H         -3.97660        2.33830        7.11010
H         -3.41740        0.73700        7.61750
H         -4.04180        2.82080        4.77520
H         -3.96370        2.09230        2.43130
H         -1.51060       -1.71100       -1.63980
H         -0.73260       -1.67340       -4.08360
H          0.93150       -1.11490       -4.33460
H         -0.64950        0.15660       -5.76830
H         -1.54000        0.68420       -4.33580
H          0.12270        1.22210       -4.58900
H          1.45440        1.33170        6.06690
H          0.16260        0.16580        6.40970
H         -1.54170        1.91960        5.89390
H         -0.24850        3.08640        5.60580
H         -0.48400        2.41320        7.22370
H          1.88340        1.92760        3.50490
H          5.38510       -2.26130       -0.55040
H          6.78930       -2.80750       -2.48740
H          8.17960       -0.98910       -4.55950
H          7.23350       -2.43420       -4.90420
H          6.80410       -0.88950       -5.65660
H          5.56710        0.80390       -4.39820
H          4.13510        1.33780       -2.48410
H          3.67880       -0.31020        2.36900
H          2.46630       -2.04520        3.60740
H          0.68540       -4.91210        1.96470
H          1.76150       -4.65020        3.34640
H          0.28710       -3.70280        3.19260
H          1.41400       -3.94040       -0.06320
H          2.63880       -2.21260       -1.30900
H          7.40280        4.63000        2.45160
H          9.33150        5.92650        3.21060
H          9.57190        9.65590        2.97460
H         10.59560        8.38590        2.30160
H         10.08480        8.29150        3.98040
H          7.46960        9.51860        1.85690
H          5.52410        8.22440        1.10140
H          4.32330        6.57750        3.48610
H          2.09190        7.53910        3.86530
H         -0.00120        8.31760        3.03690
H         -0.18970        8.53110        1.29050
H         -0.67930        7.02090        2.04820
H          1.09690        6.85340       -0.22630
H          3.34540        5.90990       -0.61180
H          8.55700        3.85470       -0.59170
H          5.90900        9.33550       -1.97180
H          9.82130       11.09490       -1.84280
H         10.79290        8.97540       -1.07290
