204

C         -7.13590       -2.30510       -4.43200
C         -7.29710       -2.62450       -5.76990
C         -6.37870       -2.18360       -6.82380
O         -5.35110       -1.54300       -6.70110
C         -7.03810       -2.56660       -8.09790
C         -6.59620       -2.36980       -9.38690
C         -7.40590       -2.83820      -10.41440
Br        -6.83400       -2.61740      -12.21560
C         -8.61590       -3.46560      -10.16410
C         -9.05450       -3.65250       -8.85980
C         -8.25880       -3.20490       -7.81940
C         -8.41870       -3.27920       -6.36810
C         -9.37010       -4.00990       -5.69270
C        -10.39910       -4.73010       -6.32260
N        -11.24870       -5.34180       -6.79690
C         -9.35020       -4.19770       -4.29880
N         -9.35800       -4.42280       -3.17130
C         -5.92510       -2.05950       -3.79730
C         -4.60380       -2.45600       -4.10730
N         -4.21220       -3.33510       -5.06620
C         -5.04610       -4.31730       -5.62140
C         -4.95760       -4.60280       -6.98290
C         -5.78940       -5.54980       -7.55030
C         -6.71750       -6.24170       -6.78330
C         -7.65670       -7.22940       -7.40010
C         -6.76230       -5.98500       -5.41490
C         -5.94570       -5.03610       -4.83730
C         -2.86730       -3.32160       -5.50750
C         -2.27700       -2.14040       -5.94330
C         -0.96300       -2.14740       -6.37170
C         -0.22020       -3.32180       -6.38200
C          1.19590       -3.33630       -6.86560
C         -0.82940       -4.49920       -5.95900
C         -2.13940       -4.50670       -5.52490
C         -3.69870       -1.89850       -3.17240
S         -1.98620       -1.99490       -2.99740
C         -2.07230       -1.10560       -1.48520
C         -3.35230       -0.66120       -1.19080
N         -3.66250        0.20940       -0.16600
C         -4.98790        0.38210        0.27610
C         -5.80230       -0.71090        0.55100
C         -7.09950       -0.52200        0.98770
C         -7.61700        0.75390        1.16780
C         -9.03260        0.94810        1.61570
C         -6.79270        1.84130        0.90180
C         -5.49700        1.66540        0.46000
C         -2.69490        1.10170        0.33190
C         -1.80050        1.75750       -0.50810
C         -0.83370        2.59250        0.01920
C         -0.75350        2.82270        1.38550
C          0.30780        3.70550        1.96910
C         -1.69030        2.21110        2.21270
C         -2.64420        1.35490        1.70000
C         -4.27570       -1.16340       -2.14510
S         -5.99380       -1.11140       -2.30030
C         -0.83480       -0.91440       -0.77760
C         -0.45590       -1.34970        0.47920
N         -1.24600       -2.10150        1.33270
C         -2.21930       -2.96590        0.80590
C         -3.46350       -3.07610        1.41890
C         -4.46250       -3.84220        0.84770
C         -4.24120       -4.48580       -0.36290
S         -5.50530       -5.35620       -1.23870
C         -7.02810       -4.52540       -0.69500
C         -2.96990       -4.45430       -0.92900
C         -1.96530       -3.71680       -0.34230
C         -1.02250       -2.07160        2.71470
C         -1.13050       -3.24000        3.47160
C         -0.86920       -3.21930        4.82270
C         -0.49020       -2.03570        5.45280
S         -0.14840       -2.12360        7.18470
C          0.80950       -0.60970        7.49290
C         -0.41360       -0.86580        4.71230
C         -0.67650       -0.88560        3.35610
C          0.89090       -0.98220        0.74750
S          1.95440       -1.15980        2.10090
C          3.24630       -0.35730        1.22990
C          2.85600        0.06440       -0.02530
N          3.61450        0.86040       -0.87500
C          3.47550        0.71480       -2.25710
C          3.24870       -0.54310       -2.81990
C          3.05680       -0.67540       -4.17680
C          3.10280        0.44100       -5.00790
S          2.81350        0.16150       -6.72860
C          3.17830        1.75980       -7.50500
C          3.35670        1.69040       -4.45850
C          3.53780        1.82440       -3.09660
C          4.44620        1.84990       -0.33000
C          4.03650        2.58000        0.78180
C          4.89940        3.45050        1.41640
C          6.19390        3.61360        0.94250
S          7.42130        4.60120        1.73800
C          6.61170        5.15790        3.26100
C          6.57860        2.95170       -0.22260
C          5.71840        2.08180       -0.85350
C          1.51850       -0.32460       -0.29600
S          0.48290       -0.15150       -1.66020
C          4.51150       -0.07210        1.88210
C          4.51360        0.48320        3.15630
C          5.71360        0.95100        3.66250
N          5.95630        1.65610        4.81490
C          4.97760        1.98460        5.81740
C          4.83030        0.86720        6.84870
C          7.28560        2.00540        4.83920
C          7.92520        1.49740        3.67560
C          6.91870        0.82160        2.92520
C          6.91410        0.17100        1.69490
C          5.71580       -0.26240        1.18180
C          9.28140        1.73870        3.47050
C          9.96570        2.48900        4.39420
C          9.31950        3.04840        5.52030
C          7.97230        2.76680        5.76280
C         10.10970        3.88350        6.37860
C          9.72110        4.92680        7.16180
C          8.39670        5.58960        7.19730
O          7.45980        5.44110        6.44430
C          8.46210        6.54430        8.32960
C          7.44190        7.30320        8.87590
Cl         5.89000        7.35210        8.16710
C          7.70580        8.02650       10.04640
Cl         6.48510        9.00170       10.74220
C          8.94850        7.91590       10.67090
Cl         9.21350        8.72580       12.15340
C          9.97870        7.14200       10.11400
Cl        11.41070        6.91080       11.02980
C          9.75230        6.51340        8.89460
C         10.60320        5.68800        8.04370
C         11.96570        5.77520        7.95140
C         12.78760        4.96960        7.13150
N         13.54000        4.35590        6.51850
C         12.75200        6.79820        8.52860
N         13.45280        7.64490        8.85760
H         -8.02350       -2.17980       -3.82300
H         -5.65580       -1.87820       -9.58250
H         -9.22100       -3.81000      -10.98880
H        -10.00240       -4.13400       -8.68190
H         -4.24330       -4.06860       -7.59150
H         -5.72050       -5.74570       -8.61070
H         -7.69700       -8.14180       -6.80850
H         -7.35290       -7.47720       -8.41390
H         -8.66560       -6.81630       -7.43580
H         -7.45260       -6.53510       -4.79220
H         -5.99380       -4.85990       -3.77450
H         -2.86610       -1.23640       -5.96340
H         -0.50610       -1.22850       -6.70750
H          1.61150       -2.33240       -6.88750
H          1.81350       -3.96600       -6.22820
H          1.23970       -3.74420       -7.87560
H         -0.26700       -5.42160       -5.96650
H         -2.60520       -5.42340       -5.19310
H         -5.40110       -1.70430        0.43680
H         -7.72010       -1.38190        1.19560
H         -9.31850        0.18640        2.33790
H         -9.16900        1.92940        2.06330
H         -9.70590        0.86790        0.76170
H         -7.17370        2.84360        1.03440
H         -4.87260        2.52190        0.25180
H         -1.86530        1.61480       -1.57640
H         -0.13440        3.07540       -0.64820
H          0.94730        3.13320        2.64220
H         -0.14090        4.51230        2.54720
H          0.92660        4.14010        1.18790
H         -1.66250        2.39800        3.27700
H         -3.35220        0.86980        2.35580
H         -3.65480       -2.54100        2.33750
H         -5.41790       -3.91940        1.34350
H         -6.86920       -3.45110       -0.69210
H         -7.32370       -4.88470        0.28640
H         -7.79060       -4.78040       -1.42660
H         -2.78250       -5.00290       -1.83940
H         -0.98110       -3.69890       -0.78580
H         -1.40410       -4.16600        2.98840
H         -0.93930       -4.12500        5.40510
H          1.23680       -0.72800        8.48370
H          0.16000        0.26100        7.47630
H          1.60010       -0.52730        6.75320
H         -0.15530        0.07170        5.17820
H         -0.62740        0.03070        2.78910
H          3.22820       -1.41730       -2.18650
H          2.87040       -1.64680       -4.60740
H          3.09990        1.58980       -8.57430
H          4.18840        2.06910       -7.25310
H          2.44760        2.50190       -7.19660
H          3.40030        2.57340       -5.07560
H          3.71790        2.80200       -2.67440
H          3.03550        2.44510        1.16370
H          4.55220        3.99010        2.28290
H          6.23740        4.30310        3.81370
H          5.81680        5.86030        3.02750
H          7.37860        5.65090        3.84920
H          7.57430        3.10900       -0.60730
H          6.03620        1.54960       -1.73760
H          3.58230        0.59490        3.69130
H          4.01960        2.16150        5.31940
H          5.28210        2.91380        6.30620
H          4.52850       -0.05740        6.36150
H          5.77680        0.69470        7.35540
H          4.08160        1.13600        7.58920
H          7.83210        0.03820        1.14440
H          5.68270       -0.74860        0.21900
H          9.77880        1.34530        2.59810
H         11.01430        2.69940        4.24680
H          7.49440        3.12620        6.65800
H         11.16610        3.64480        6.37340
