165

C          7.95400        0.95270        0.30580
C          9.05400        0.11880        0.35640
C          9.03150       -1.33570        0.48760
O          8.07070       -2.08540        0.47150
C         10.44110       -1.74450        0.68260
C         10.94890       -3.01330        0.85990
C         12.32300       -3.12970        1.02420
Br        13.08300       -4.85450        1.27400
C         13.15480       -2.01990        1.01010
C         12.63180       -0.74720        0.82690
C         11.26270       -0.60470        0.66250
C         10.42130        0.57050        0.43140
C         10.88580        1.85670        0.28760
C         10.10970        2.97130       -0.08200
N          9.56110        3.92510       -0.41660
C         12.23210        2.23260        0.46150
N         13.30730        2.60880        0.61080
C          6.59910        0.65610        0.22860
C          5.58080        1.64870        0.24750
N          5.75620        2.97740        0.51210
C          6.69220        3.45680        1.44660
C          6.96100        2.74450        2.61320
C          7.89530        3.21890        3.51150
C          8.56640        4.41560        3.28580
C          9.60190        4.91940        4.24250
C          8.26240        5.13670        2.13710
C          7.34230        4.66760        1.22110
C          4.90170        3.90380       -0.12190
C          4.31300        4.93830        0.59790
C          3.49520        5.84620       -0.04480
C          3.24570        5.74940       -1.40930
C          2.35460        6.73300       -2.09940
C          3.83540        4.70840       -2.11700
C          4.65630        3.79490       -1.48770
C          4.33050        1.07990       -0.04370
S          2.72230        1.71100       -0.16010
C          2.08150        0.09090       -0.44730
C          3.08970       -0.86870       -0.51090
N          2.94410       -2.21510       -0.78610
C          3.83340       -3.08440       -0.11750
C          3.97460       -2.98200        1.26330
C          4.90050       -3.76330        1.92390
C          5.69900       -4.66520        1.23110
C          6.75030       -5.45410        1.94630
C          5.52570       -4.78400       -0.14200
C          4.60710       -4.00460       -0.81610
C          2.19980       -2.68440       -1.87120
C          1.70250       -3.98800       -1.85330
C          0.96400       -4.46390       -2.91470
C          0.68360       -3.66060       -4.01610
C         -0.12690       -4.19530       -5.15630
C          1.18540       -2.36610       -4.02940
C          1.94030       -1.88060       -2.97890
C          4.35910       -0.29340       -0.24180
S          5.94050       -0.95980       -0.05080
C          0.66670       -0.02040       -0.49880
C         -0.20220        1.02750       -0.32560
C         -1.56330        0.66290       -0.35440
C         -2.68850        1.48890       -0.14980
C         -2.53660        2.91600        0.03750
C         -1.70280        3.75980       -0.64740
C         -1.79830        5.07810       -0.17760
S         -1.04610        6.57900       -0.58640
C         -1.95050        7.40670        0.66260
C         -1.72430        8.86210        0.88200
C         -0.31690        9.13180        1.41760
C         -2.77730        6.56970        1.34450
C         -2.69650        5.24500        0.86860
S         -3.45560        3.75070        1.27840
C         -3.92690        0.85780       -0.12580
C         -4.09340       -0.53550       -0.34640
C         -2.96830       -1.35960       -0.57310
C         -3.06560       -2.78380       -0.81380
S         -4.18060       -3.78780        0.10200
C         -3.63390       -5.20000       -0.72380
C         -3.96510       -6.56890       -0.68440
C         -3.23880       -7.29140       -1.57960
C         -3.27270       -8.76110       -1.81690
C         -2.01020       -9.44060       -1.28240
S         -2.12260       -6.29830       -2.48960
C         -2.64730       -4.88240       -1.64870
C         -2.31790       -3.51970       -1.69520
C         -1.72940       -0.72980       -0.55310
S         -0.18900       -1.53460       -0.69890
C         -5.45850       -0.90140       -0.33930
C         -6.30160        0.14750       -0.10260
S         -5.45580        1.65690        0.10720
C         -7.73280        0.17740        0.00450
C         -8.54470       -0.95720       -0.13340
C         -9.90800       -0.82140       -0.01310
C        -10.45690        0.44120        0.25960
C         -9.55090        1.51570        0.34620
N         -8.25640        1.38830        0.23580
C        -11.85760        0.70410        0.41520
C        -12.80860       -0.10410        0.95730
C        -12.56090       -1.32380        1.77100
O        -11.52050       -1.91180        1.95920
C        -13.86660       -1.65120        2.38710
C        -14.15370       -2.67430        3.26720
C        -15.46420       -2.78200        3.71150
Br       -15.92480       -4.17380        4.91910
C        -16.44910       -1.89520        3.29440
C        -16.14980       -0.86980        2.41130
C        -14.84640       -0.74430        1.94900
C        -14.22950        0.20520        1.02960
C        -14.89370        1.16000        0.30770
C        -16.28220        1.39640        0.40010
N        -17.40370        1.63810        0.43540
C        -14.30520        2.01540       -0.64910
N        -13.90850        2.73230       -1.45340
H          8.17240        2.01220        0.33750
H         10.29900       -3.87460        0.86460
H         14.21840       -2.14780        1.14070
H         13.29640        0.10090        0.81710
H          6.44270        1.81640        2.80600
H          8.10070        2.65160        4.40790
H          9.40100        5.95410        4.51460
H          9.62670        4.31660        5.14680
H         10.58710        4.88530        3.77720
H          8.77000        6.06960        1.94450
H          7.13560        5.22640        0.32220
H          4.50050        5.02370        1.65790
H          3.04060        6.64440        0.52340
H          1.32090        6.38860       -2.06250
H          2.39890        7.70470       -1.61380
H          2.63610        6.84550       -3.14360
H          3.65890        4.61880       -3.17890
H          5.12500        3.00100       -2.05090
H          3.36340       -2.27590        1.80760
H          5.01200       -3.66550        2.99410
H          6.41590       -5.74240        2.94060
H          7.64290       -4.83800        2.05710
H          7.01940       -6.34750        1.38820
H          6.13500       -5.48160       -0.69770
H          4.49940       -4.08830       -1.88750
H          1.89300       -4.61580       -0.99610
H          0.58120       -5.47330       -2.88630
H          0.49270       -4.83160       -5.78960
H         -0.95420       -4.79980       -4.78750
H         -0.52130       -3.38710       -5.76840
H          0.98840       -1.72500       -4.87690
H          2.32970       -0.87360       -3.01510
H          0.14110        2.03000       -0.14640
H         -1.08810        3.45410       -1.47380
H         -2.46800        9.22910        1.59190
H         -1.85630        9.39970       -0.06080
H          0.42810        8.77920        0.70780
H         -0.17140       10.19740        1.57540
H         -0.16640        8.61530        2.36300
H         -3.41830        6.88410        2.14740
H         -4.70460       -6.99360       -0.03070
H         -3.35720       -8.95720       -2.88890
H         -4.15300       -9.17600       -1.32190
H         -1.12900       -9.04630       -1.78340
H         -2.05850      -10.51250       -1.45530
H         -1.90870       -9.26400       -0.21400
H         -1.59160       -3.09940       -2.36570
H         -5.80370       -1.90380       -0.50950
H         -8.10600       -1.91830       -0.34600
H        -10.55220       -1.67210       -0.16270
H         -9.90890        2.51850        0.54330
H        -12.16220        1.69670        0.10340
H        -13.38290       -3.35750        3.58880
H        -17.45700       -2.00700        3.66360
H        -16.92770       -0.19000        2.10530
