222

C         -1.77540       -6.88320       -3.61310
C         -2.89440       -7.52910       -4.09730
C         -4.19330       -7.62660       -3.43250
O         -4.57750       -7.04410       -2.43470
C         -4.97140       -8.61650       -4.21090
C         -6.24630       -9.08350       -3.97320
C         -6.75120      -10.02690       -4.85860
Br        -8.50310      -10.71170       -4.58480
C         -6.00930      -10.48390       -5.93820
C         -4.72810      -10.00320       -6.16930
C         -4.20150       -9.06110       -5.29910
C         -2.91820       -8.35910       -5.27790
C         -1.95200       -8.45210       -6.25050
C         -0.79200       -7.65810       -6.32220
N          0.15640       -7.02720       -6.47760
C         -2.01540       -9.33600       -7.34560
N         -1.99480      -10.04670       -8.24760
C         -1.61820       -6.05480       -2.50510
C         -0.36390       -5.51020       -2.10730
N          0.84190       -5.84560       -2.66800
C          1.77610       -4.84000       -2.97340
C          1.34400       -3.56880       -3.34680
C          2.25960       -2.60620       -3.71580
C          3.62130       -2.88510       -3.75540
C          4.59850       -1.83560       -4.18520
C          4.04160       -4.15470       -3.38240
C          3.13970       -5.11600       -2.97300
C          1.12600       -7.18500       -2.99740
C          0.69940       -8.20720       -2.15240
C          0.94410       -9.52590       -2.47980
C          1.62830       -9.86120       -3.64230
C          1.89090      -11.28920       -4.00840
C          2.07430       -8.83250       -4.46480
C          1.82950       -7.50980       -4.15600
C         -0.53150       -4.55710       -1.08610
S          0.52050       -3.55380       -0.13440
C         -0.84750       -2.90660        0.75110
C         -2.05920       -3.44700        0.32200
N         -3.35470       -3.01780        0.64360
C         -4.04320       -3.55020        1.74030
C         -5.13600       -2.86520        2.26950
C         -5.81540       -3.38160        3.35160
C         -5.42320       -4.57820        3.94440
C         -6.16450       -5.11400        5.13100
C         -4.32360       -5.24320        3.42070
C         -3.63900       -4.74290        2.33010
C         -4.05830       -2.51690       -0.46720
C         -3.40460       -1.63920       -1.32860
C         -4.04280       -1.14900       -2.45010
C         -5.34950       -1.51330       -2.74220
C         -6.05750       -0.98270       -3.95070
C         -5.99660       -2.39240       -1.87840
C         -5.36600       -2.89690       -0.75990
C         -1.85880       -4.38050       -0.71770
S         -2.95590       -5.41730       -1.54980
C         -0.65300       -1.74920        1.57390
C          0.44930       -0.86680        1.32310
N          1.61240       -1.31470        0.85770
C          2.60340       -0.47620        0.63530
C          3.95880       -1.02020        0.50850
C          5.05940       -0.38150        1.09150
C          6.33970       -0.88600        0.98190
C          6.62620       -2.08320        0.30070
O          7.91810       -2.42360        0.25680
C          8.35630       -3.69340       -0.21790
C          8.06550       -4.81180        0.77390
C          5.51940       -2.73610       -0.25100
C          4.23320       -2.21770       -0.14880
F          3.25090       -2.90270       -0.72740
F          5.65790       -3.91200       -0.89460
F          7.35580       -0.22670        1.55660
F          4.88960        0.72810        1.82770
C          2.34560        0.93300        0.66210
C          3.23520        1.94920        0.10010
C          3.99440        1.74130       -1.04410
F          3.92100        0.56570       -1.69520
C          4.82600        2.71130       -1.58570
F          5.49900        2.37410       -2.70790
C          4.96570        3.96810       -0.98730
O          5.70970        5.00410       -1.36430
C          6.54510        4.96950       -2.51650
C          7.86720        4.26320       -2.24390
C          4.20340        4.16950        0.18180
F          4.33360        5.34780        0.80100
C          3.35560        3.21040        0.70000
F          2.68440        3.48440        1.81600
N          1.25950        1.36570        1.24770
C          0.34970        0.50180        1.69920
C         -0.69490        0.96490        2.53410
C         -1.54200        0.00550        3.04130
C         -1.52710       -1.31530        2.56610
F         -2.38360       -2.16430        3.14550
F         -2.46650        0.33260        3.95560
C         -0.83120        2.40810        2.69350
C         -1.15350        3.21640        1.62550
N         -1.55040        2.71190        0.37400
C         -0.58930        2.56460       -0.63800
C         -0.54520        1.39550       -1.39860
C          0.36020        1.26180       -2.42920
C          1.25050        2.28580       -2.73950
C          2.17240        2.16130       -3.91410
C          1.24090        3.42290       -1.94400
C          0.34420        3.56150       -0.90060
C         -2.86150        2.25100        0.21250
C         -3.66910        1.93810        1.30400
C         -4.96140        1.48500        1.11800
C         -5.50570        1.35160       -0.15030
C         -6.89780        0.83650       -0.35030
C         -4.71570        1.71570       -1.23450
C         -3.42120        2.15880       -1.06360
C         -1.09260        4.57440        1.99270
S         -1.31510        6.04720        1.13320
C         -0.86500        6.98210        2.56380
C         -0.65440        6.15350        3.68730
N         -0.33200        6.58050        4.93480
C         -0.78810        7.81490        5.43040
C          0.07060        8.64020        6.14950
C         -0.38370        9.84970        6.63720
C         -1.69350       10.26450        6.42460
C         -2.17030       11.59400        6.91690
C         -2.54760        9.42470        5.71730
C         -2.10800        8.21200        5.22660
C          0.48830        5.78860        5.76950
C          1.63130        5.17800        5.26050
C          2.42390        4.41560        6.09440
C          2.10800        4.25130        7.43930
C          2.99100        3.43160        8.32840
C          0.97180        4.87830        7.93530
C          0.16370        5.63990        7.11310
C         -0.73130        4.78640        3.31560
S         -0.48120        3.28620        4.14560
C         -0.64100        8.35790        2.42250
C         -0.28610        8.99630        1.25670
C         -0.52170       10.43720        1.08260
O         -0.84050       11.24020        1.93030
C         -0.34870       10.67690       -0.37760
C         -0.60010       11.82400       -1.10710
Cl        -1.04700       13.28340       -0.34210
C         -0.48720       11.76430       -2.50430
Cl        -0.77440       13.16550       -3.44280
C         -0.17550       10.56040       -3.13130
Cl        -0.12390       10.49140       -4.84030
C          0.08540        9.39990       -2.38590
Cl         0.33160        7.91840       -3.21620
C          0.04480        9.47530       -1.00280
C          0.30700        8.48700        0.04240
C          1.22270        7.46180        0.01570
C          1.60100        6.82140        1.21560
N          1.93920        6.32860        2.19530
C          2.00210        6.98020       -1.05050
N          2.70990        6.48180       -1.80710
H         -0.86470       -7.05040       -4.17390
H         -6.81930       -8.72460       -3.13240
H         -6.43390      -11.21900       -6.60460
H         -4.16910      -10.37150       -7.01360
H          0.28710       -3.34630       -3.36960
H          1.91310       -1.62370       -4.00100
H          5.60370       -2.24350       -4.25490
H          4.31950       -1.42950       -5.15630
H          4.60570       -1.01330       -3.47160
H          5.09340       -4.39770       -3.40150
H          3.49210       -6.08680       -2.65990
H          0.16930       -7.96190       -1.24360
H          0.60170      -10.30690       -1.81650
H          2.96160      -11.49090       -3.99960
H          1.52410      -11.49690       -5.01260
H          1.40560      -11.96740       -3.31130
H          2.60700       -9.07080       -5.37320
H          2.15980       -6.72830       -4.82100
H         -5.43350       -1.92380        1.83150
H         -6.66080       -2.84270        3.75460
H         -7.23880       -5.08890        4.95680
H         -5.86770       -6.13730        5.34630
H         -5.95560       -4.50380        6.00990
H         -3.99950       -6.17280        3.86630
H         -2.78960       -5.27730        1.93030
H         -2.38750       -1.34500       -1.11300
H         -3.51280       -0.47350       -3.10570
H         -6.93320       -0.40560       -3.65440
H         -5.40210       -0.34340       -4.53670
H         -6.40010       -1.80210       -4.58170
H         -7.00870       -2.70140       -2.09830
H         -5.87590       -3.60190       -0.12170
H          7.92940       -3.91390       -1.19960
H          9.43530       -3.55980       -0.32610
H          8.47020       -4.55540        1.75000
H          8.53370       -5.72820        0.42740
H          6.99730       -4.98600        0.87090
H          6.72260        6.02570       -2.73220
H          6.02320        4.52250       -3.36620
H          7.71730        3.20440       -2.05100
H          8.51550        4.36780       -3.10880
H          8.35370        4.71040       -1.38070
H         -1.23710        0.59660       -1.17390
H          0.37440        0.34890       -3.00780
H          2.86650        2.99680       -3.95200
H          1.59710        2.15490       -4.84010
H          2.73700        1.23140       -3.87160
H          1.93190        4.22880       -2.14880
H          0.36180        4.45800       -0.30170
H         -3.30260        2.06120        2.31030
H         -5.55520        1.23670        1.98630
H         -7.39130        1.36520       -1.16310
H         -6.86840       -0.22290       -0.60700
H         -7.48900        0.95300        0.55460
H         -5.12800        1.66350       -2.23150
H         -2.83710        2.45330       -1.92260
H          1.09270        8.33180        6.30970
H          0.29440       10.48770        7.18430
H         -3.21170       11.54340        7.22690
H         -2.09460       12.32830        6.11440
H         -1.56670       11.94120        7.75180
H         -3.57130        9.72530        5.54980
H         -2.78110        7.56580        4.68220
H          1.90180        5.31520        4.22530
H          3.30920        3.94520        5.69330
H          2.51500        3.24420        9.28740
H          3.93080        3.95400        8.50730
H          3.22620        2.47860        7.85870
H          0.71020        4.76650        8.97740
H         -0.72090        6.11880        7.50670
H         -0.80440        9.00460        3.27620
