
  xtb     02112214273D
 energy: -403.283652783935 gnorm: 0.000727496549 xtb: 6.4.1 (unknown)
239262  0     0  0            999 V2000
    3.4997   -8.8480   -0.4066 C   0  0  0  0  0  0  0  0  0  0  0  0
    4.4509   -9.4742   -1.1921 C   0  0  0  0  0  0  0  0  0  0  0  0
    4.8760   -9.0588   -2.5241 C   0  0  0  0  0  0  0  0  0  0  0  0
    4.4192   -8.1732   -3.2273 O   0  0  0  0  0  0  0  0  0  0  0  0
    6.0241   -9.9274   -2.8706 C   0  0  0  0  0  0  0  0  0  0  0  0
    6.7830   -9.9269   -4.0206 C   0  0  0  0  0  0  0  0  0  0  0  0
    7.8154  -10.8524   -4.0993 C   0  0  0  0  0  0  0  0  0  0  0  0
    8.9014  -10.8978   -5.6601 Br  0  0  0  0  0  0  0  0  0  0  0  0
    8.0746  -11.7439   -3.0695 C   0  0  0  0  0  0  0  0  0  0  0  0
    7.3008  -11.7360   -1.9167 C   0  0  0  0  0  0  0  0  0  0  0  0
    6.2670  -10.8187   -1.8119 C   0  0  0  0  0  0  0  0  0  0  0  0
    5.2825  -10.5666   -0.7573 C   0  0  0  0  0  0  0  0  0  0  0  0
    5.1953  -11.2704    0.4219 C   0  0  0  0  0  0  0  0  0  0  0  0
    4.1911  -11.1215    1.3965 C   0  0  0  0  0  0  0  0  0  0  0  0
    3.3933  -11.0953    2.2249 N   0  0  0  0  0  0  0  0  0  0  0  0
    6.1093  -12.2675    0.8132 C   0  0  0  0  0  0  0  0  0  0  0  0
    6.8298  -13.0736    1.2022 N   0  0  0  0  0  0  0  0  0  0  0  0
    2.6639   -7.7777   -0.6852 C   0  0  0  0  0  0  0  0  0  0  0  0
    1.8143   -7.1780    0.2896 C   0  0  0  0  0  0  0  0  0  0  0  0
    1.8983   -7.3682    1.6353 N   0  0  0  0  0  0  0  0  0  0  0  0
    3.1020   -7.6536    2.3129 C   0  0  0  0  0  0  0  0  0  0  0  0
    4.3129   -7.0980    1.9077 C   0  0  0  0  0  0  0  0  0  0  0  0
    5.4729   -7.4042    2.5902 C   0  0  0  0  0  0  0  0  0  0  0  0
    5.4557   -8.2454    3.6975 C   0  0  0  0  0  0  0  0  0  0  0  0
    6.7189   -8.6073    4.4147 C   0  0  0  0  0  0  0  0  0  0  0  0
    4.2350   -8.7594    4.1176 C   0  0  0  0  0  0  0  0  0  0  0  0
    3.0684   -8.4737    3.4365 C   0  0  0  0  0  0  0  0  0  0  0  0
    0.7868   -7.0287    2.4451 C   0  0  0  0  0  0  0  0  0  0  0  0
   -0.4294   -7.6776    2.2778 C   0  0  0  0  0  0  0  0  0  0  0  0
   -1.4983   -7.3510    3.0915 C   0  0  0  0  0  0  0  0  0  0  0  0
   -1.3891   -6.3573    4.0559 C   0  0  0  0  0  0  0  0  0  0  0  0
   -2.5532   -5.9689    4.9143 C   0  0  0  0  0  0  0  0  0  0  0  0
   -0.1649   -5.7142    4.2114 C   0  0  0  0  0  0  0  0  0  0  0  0
    0.9186   -6.0526    3.4283 C   0  0  0  0  0  0  0  0  0  0  0  0
    0.9216   -6.2814   -0.3153 C   0  0  0  0  0  0  0  0  0  0  0  0
   -0.3499   -5.2597    0.2813 S   0  0  0  0  0  0  0  0  0  0  0  0
   -0.4805   -4.4855   -1.2961 C   0  0  0  0  0  0  0  0  0  0  0  0
    0.3502   -5.0748   -2.2473 C   0  0  0  0  0  0  0  0  0  0  0  0
    0.4456   -4.6773   -3.5691 N   0  0  0  0  0  0  0  0  0  0  0  0
   -0.6833   -4.4402   -4.3539 C   0  0  0  0  0  0  0  0  0  0  0  0
   -0.6073   -3.5555   -5.4305 C   0  0  0  0  0  0  0  0  0  0  0  0
   -1.7192   -3.3021   -6.2050 C   0  0  0  0  0  0  0  0  0  0  0  0
   -2.9387   -3.9130   -5.9337 C   0  0  0  0  0  0  0  0  0  0  0  0
   -4.1365   -3.6445   -6.7927 C   0  0  0  0  0  0  0  0  0  0  0  0
   -3.0066   -4.7911   -4.8598 C   0  0  0  0  0  0  0  0  0  0  0  0
   -1.9008   -5.0578   -4.0768 C   0  0  0  0  0  0  0  0  0  0  0  0
    1.7338   -4.6925   -4.1409 C   0  0  0  0  0  0  0  0  0  0  0  0
    1.9683   -5.2808   -5.3784 C   0  0  0  0  0  0  0  0  0  0  0  0
    3.2547   -5.3439   -5.8777 C   0  0  0  0  0  0  0  0  0  0  0  0
    4.3299   -4.8367   -5.1591 C   0  0  0  0  0  0  0  0  0  0  0  0
    5.7307   -4.9610   -5.6714 C   0  0  0  0  0  0  0  0  0  0  0  0
    4.0815   -4.2308   -3.9335 C   0  0  0  0  0  0  0  0  0  0  0  0
    2.8001   -4.1500   -3.4299 C   0  0  0  0  0  0  0  0  0  0  0  0
    1.1423   -6.0950   -1.6764 C   0  0  0  0  0  0  0  0  0  0  0  0
    2.4337   -7.0648   -2.2877 S   0  0  0  0  0  0  0  0  0  0  0  0
   -1.1478   -3.2443   -1.3924 C   0  0  0  0  0  0  0  0  0  0  0  0
   -1.9697   -2.6831   -0.4164 C   0  0  0  0  0  0  0  0  0  0  0  0
   -2.6012   -3.4233    0.5718 N   0  0  0  0  0  0  0  0  0  0  0  0
   -2.7166   -2.8531    1.8448 C   0  0  0  0  0  0  0  0  0  0  0  0
   -3.8864   -2.9631    2.5960 C   0  0  0  0  0  0  0  0  0  0  0  0
   -3.9902   -2.3233    3.8114 C   0  0  0  0  0  0  0  0  0  0  0  0
   -2.9390   -1.5498    4.2963 C   0  0  0  0  0  0  0  0  0  0  0  0
   -3.1792   -0.7196    5.8375 S   0  0  0  0  0  0  0  0  0  0  0  0
   -2.0902    0.7256    5.6754 C   0  0  0  0  0  0  0  0  0  0  0  0
   -1.7588   -1.4670    3.5700 C   0  0  0  0  0  0  0  0  0  0  0  0
   -1.6500   -2.1174    2.3582 C   0  0  0  0  0  0  0  0  0  0  0  0
   -3.3265   -4.5653    0.2040 C   0  0  0  0  0  0  0  0  0  0  0  0
   -3.8630   -4.6934   -1.0741 C   0  0  0  0  0  0  0  0  0  0  0  0
   -4.5596   -5.8293   -1.4382 C   0  0  0  0  0  0  0  0  0  0  0  0
   -4.7407   -6.8593   -0.5269 C   0  0  0  0  0  0  0  0  0  0  0  0
   -5.6105   -8.3558   -0.8749 S   0  0  0  0  0  0  0  0  0  0  0  0
   -6.0502   -8.2088   -2.6298 C   0  0  0  0  0  0  0  0  0  0  0  0
   -4.2157   -6.7288    0.7576 C   0  0  0  0  0  0  0  0  0  0  0  0
   -3.5138   -5.6020    1.1187 C   0  0  0  0  0  0  0  0  0  0  0  0
   -2.0979   -1.2924   -0.6013 C   0  0  0  0  0  0  0  0  0  0  0  0
   -2.8036   -0.0076    0.3096 S   0  0  0  0  0  0  0  0  0  0  0  0
   -2.2319    1.1759   -0.8649 C   0  0  0  0  0  0  0  0  0  0  0  0
   -1.6041    0.5769   -1.9513 C   0  0  0  0  0  0  0  0  0  0  0  0
   -1.0765    1.2146   -3.0660 N   0  0  0  0  0  0  0  0  0  0  0  0
   -1.8726    1.9931   -3.9118 C   0  0  0  0  0  0  0  0  0  0  0  0
   -1.2635    2.8953   -4.7883 C   0  0  0  0  0  0  0  0  0  0  0  0
   -2.0174    3.5959   -5.7006 C   0  0  0  0  0  0  0  0  0  0  0  0
   -3.4014    3.4281   -5.7583 C   0  0  0  0  0  0  0  0  0  0  0  0
   -4.2456    4.2666   -7.0593 S   0  0  0  0  0  0  0  0  0  0  0  0
   -5.9991    3.9423   -6.7375 C   0  0  0  0  0  0  0  0  0  0  0  0
   -4.0177    2.5886   -4.8401 C   0  0  0  0  0  0  0  0  0  0  0  0
   -3.2604    1.8758   -3.9297 C   0  0  0  0  0  0  0  0  0  0  0  0
    0.1294    0.6760   -3.5636 C   0  0  0  0  0  0  0  0  0  0  0  0
    0.2531    0.2587   -4.8847 C   0  0  0  0  0  0  0  0  0  0  0  0
    1.4343   -0.2928   -5.3406 C   0  0  0  0  0  0  0  0  0  0  0  0
    2.5118   -0.4454   -4.4780 C   0  0  0  0  0  0  0  0  0  0  0  0
    4.0754   -1.1028   -4.9570 S   0  0  0  0  0  0  0  0  0  0  0  0
    3.7905   -1.7424   -6.6296 C   0  0  0  0  0  0  0  0  0  0  0  0
    2.3871   -0.0372   -3.1510 C   0  0  0  0  0  0  0  0  0  0  0  0
    1.2120    0.5191   -2.6984 C   0  0  0  0  0  0  0  0  0  0  0  0
   -1.4863   -0.8186   -1.7525 C   0  0  0  0  0  0  0  0  0  0  0  0
   -0.6969   -2.0811   -2.6322 S   0  0  0  0  0  0  0  0  0  0  0  0
   -2.2647    2.5447   -0.4732 C   0  0  0  0  0  0  0  0  0  0  0  0
   -2.2231    3.7003   -1.1991 C   0  0  0  0  0  0  0  0  0  0  0  0
   -2.1068    4.8663   -0.4027 C   0  0  0  0  0  0  0  0  0  0  0  0
   -2.0435    6.2006   -0.8344 C   0  0  0  0  0  0  0  0  0  0  0  0
   -2.2884    6.5780   -2.2329 C   0  0  0  0  0  0  0  0  0  0  0  0
   -1.4233    7.4261   -2.9157 C   0  0  0  0  0  0  0  0  0  0  0  0
   -1.7465    7.8432   -4.1908 C   0  0  0  0  0  0  0  0  0  0  0  0
   -0.8926    8.6762   -4.8178 F   0  0  0  0  0  0  0  0  0  0  0  0
   -2.9176    7.4745   -4.8470 C   0  0  0  0  0  0  0  0  0  0  0  0
   -3.2552    7.9937   -6.2136 C   0  0  0  0  0  0  0  0  0  0  0  0
   -2.3331    7.4178   -7.2894 C   0  0  0  0  0  0  0  0  0  0  0  0
   -3.7462    6.6172   -4.1327 C   0  0  0  0  0  0  0  0  0  0  0  0
   -4.9209    6.2358   -4.6766 F   0  0  0  0  0  0  0  0  0  0  0  0
   -3.4536    6.1569   -2.8646 C   0  0  0  0  0  0  0  0  0  0  0  0
   -1.8104    7.1639    0.1370 C   0  0  0  0  0  0  0  0  0  0  0  0
   -1.6852    6.8544    1.5183 C   0  0  0  0  0  0  0  0  0  0  0  0
   -1.8172    5.5226    1.9580 C   0  0  0  0  0  0  0  0  0  0  0  0
   -1.7232    5.1833    3.3839 C   0  0  0  0  0  0  0  0  0  0  0  0
   -0.8483    4.1909    3.8136 C   0  0  0  0  0  0  0  0  0  0  0  0
   -0.7507    3.9075    5.1609 C   0  0  0  0  0  0  0  0  0  0  0  0
   -1.5015    4.5557    6.1337 C   0  0  0  0  0  0  0  0  0  0  0  0
   -1.3435    4.2754    7.5985 C   0  0  0  0  0  0  0  0  0  0  0  0
   -0.3690    5.2757    8.2255 C   0  0  0  0  0  0  0  0  0  0  0  0
   -2.3751    5.5303    5.6611 C   0  0  0  0  0  0  0  0  0  0  0  0
   -2.4983    5.8538    4.3254 C   0  0  0  0  0  0  0  0  0  0  0  0
   -3.1457    6.1853    6.5509 F   0  0  0  0  0  0  0  0  0  0  0  0
    0.1189    2.9479    5.5468 F   0  0  0  0  0  0  0  0  0  0  0  0
   -2.0107    4.5643    0.9819 C   0  0  0  0  0  0  0  0  0  0  0  0
   -2.1845    2.8537    1.2592 S   0  0  0  0  0  0  0  0  0  0  0  0
   -1.4069    7.9919    2.3019 C   0  0  0  0  0  0  0  0  0  0  0  0
   -1.3423    9.1563    1.5804 C   0  0  0  0  0  0  0  0  0  0  0  0
   -1.6545    8.8730   -0.1341 S   0  0  0  0  0  0  0  0  0  0  0  0
   -1.0886   10.4956    1.9623 C   0  0  0  0  0  0  0  0  0  0  0  0
   -0.6292   11.0174    3.1356 C   0  0  0  0  0  0  0  0  0  0  0  0
   -0.1128   10.3118    4.3363 C   0  0  0  0  0  0  0  0  0  0  0  0
   -0.2329    9.1438    4.6456 O   0  0  0  0  0  0  0  0  0  0  0  0
    0.6123   11.3306    5.1159 C   0  0  0  0  0  0  0  0  0  0  0  0
    1.3586   11.1140    6.2726 C   0  0  0  0  0  0  0  0  0  0  0  0
    1.9483   12.2470    6.7779 C   0  0  0  0  0  0  0  0  0  0  0  0
    1.8133   13.5049    6.1732 C   0  0  0  0  0  0  0  0  0  0  0  0
    1.0766   13.7334    5.0359 C   0  0  0  0  0  0  0  0  0  0  0  0
    0.4594   12.5938    4.5112 C   0  0  0  0  0  0  0  0  0  0  0  0
   -0.3934   12.4417    3.3382 C   0  0  0  0  0  0  0  0  0  0  0  0
   -0.9415   13.4678    2.6165 C   0  0  0  0  0  0  0  0  0  0  0  0
   -1.8619   13.3252    1.5549 C   0  0  0  0  0  0  0  0  0  0  0  0
   -2.6324   13.3031    0.7038 N   0  0  0  0  0  0  0  0  0  0  0  0
   -0.7075   14.8350    2.8774 C   0  0  0  0  0  0  0  0  0  0  0  0
   -0.5589   15.9629    3.0309 N   0  0  0  0  0  0  0  0  0  0  0  0
    2.6754   14.1830    7.2079 C   0  0  0  0  0  0  0  0  0  0  0  0
    1.9658   15.0219    8.2991 C   0  0  0  0  0  0  0  0  0  0  0  0
    0.5812   14.4421    8.4511 C   0  0  0  0  0  0  0  0  0  0  0  0
    0.7015   13.2527    9.0255 C   0  0  0  0  0  0  0  0  0  0  0  0
    2.1695   13.0068    9.2728 C   0  0  0  0  0  0  0  0  0  0  0  0
    2.6414   14.4426    9.5523 C   0  0  0  0  0  0  0  0  0  0  0  0
    2.8202   12.7835    7.8849 C   0  0  0  0  0  0  0  0  0  0  0  0
    3.3936   -9.2418    0.5957 H   0  0  0  0  0  0  0  0  0  0  0  0
    6.5739   -9.2348   -4.8216 H   0  0  0  0  0  0  0  0  0  0  0  0
    8.8845  -12.4507   -3.1656 H   0  0  0  0  0  0  0  0  0  0  0  0
    7.5189  -12.4390   -1.1297 H   0  0  0  0  0  0  0  0  0  0  0  0
    4.3429   -6.4355    1.0550 H   0  0  0  0  0  0  0  0  0  0  0  0
    6.4078   -6.9742    2.2604 H   0  0  0  0  0  0  0  0  0  0  0  0
    7.5318   -7.9408    4.1377 H   0  0  0  0  0  0  0  0  0  0  0  0
    6.5761   -8.5629    5.4924 H   0  0  0  0  0  0  0  0  0  0  0  0
    7.0098   -9.6271    4.1607 H   0  0  0  0  0  0  0  0  0  0  0  0
    4.1985   -9.4091    4.9786 H   0  0  0  0  0  0  0  0  0  0  0  0
    2.1300   -8.8956    3.7606 H   0  0  0  0  0  0  0  0  0  0  0  0
   -0.5277   -8.4428    1.5223 H   0  0  0  0  0  0  0  0  0  0  0  0
   -2.4306   -7.8820    2.9724 H   0  0  0  0  0  0  0  0  0  0  0  0
   -3.4403   -6.5419    4.6567 H   0  0  0  0  0  0  0  0  0  0  0  0
   -2.7741   -4.9079    4.7946 H   0  0  0  0  0  0  0  0  0  0  0  0
   -2.3230   -6.1403    5.9649 H   0  0  0  0  0  0  0  0  0  0  0  0
   -0.0654   -4.9384    4.9562 H   0  0  0  0  0  0  0  0  0  0  0  0
    1.8696   -5.5579    3.5607 H   0  0  0  0  0  0  0  0  0  0  0  0
    0.3274   -3.0560   -5.6357 H   0  0  0  0  0  0  0  0  0  0  0  0
   -1.6442   -2.6093   -7.0309 H   0  0  0  0  0  0  0  0  0  0  0  0
   -5.0574   -3.8759   -6.2623 H   0  0  0  0  0  0  0  0  0  0  0  0
   -4.0990   -4.2622   -7.6910 H   0  0  0  0  0  0  0  0  0  0  0  0
   -4.1617   -2.6027   -7.1056 H   0  0  0  0  0  0  0  0  0  0  0  0
   -3.9430   -5.2822   -4.6364 H   0  0  0  0  0  0  0  0  0  0  0  0
   -1.9768   -5.7473   -3.2484 H   0  0  0  0  0  0  0  0  0  0  0  0
    1.1435   -5.7020   -5.9347 H   0  0  0  0  0  0  0  0  0  0  0  0
    3.4271   -5.8151   -6.8347 H   0  0  0  0  0  0  0  0  0  0  0  0
    6.2099   -5.8216   -5.2044 H   0  0  0  0  0  0  0  0  0  0  0  0
    6.3152   -4.0774   -5.4221 H   0  0  0  0  0  0  0  0  0  0  0  0
    5.7454   -5.1088   -6.7488 H   0  0  0  0  0  0  0  0  0  0  0  0
    4.9025   -3.8147   -3.3690 H   0  0  0  0  0  0  0  0  0  0  0  0
    2.6138   -3.6709   -2.4794 H   0  0  0  0  0  0  0  0  0  0  0  0
   -4.7224   -3.5268    2.2110 H   0  0  0  0  0  0  0  0  0  0  0  0
   -4.8996   -2.3941    4.3881 H   0  0  0  0  0  0  0  0  0  0  0  0
   -2.4277    1.4353    6.4242 H   0  0  0  0  0  0  0  0  0  0  0  0
   -1.0567    0.4537    5.8684 H   0  0  0  0  0  0  0  0  0  0  0  0
   -2.2050    1.1501    4.6824 H   0  0  0  0  0  0  0  0  0  0  0  0
   -0.9206   -0.8995    3.9414 H   0  0  0  0  0  0  0  0  0  0  0  0
   -0.7290   -2.0581    1.7972 H   0  0  0  0  0  0  0  0  0  0  0  0
   -3.7417   -3.8991   -1.7959 H   0  0  0  0  0  0  0  0  0  0  0  0
   -4.9654   -5.8892   -2.4348 H   0  0  0  0  0  0  0  0  0  0  0  0
   -5.1511   -8.0977   -3.2291 H   0  0  0  0  0  0  0  0  0  0  0  0
   -6.5493   -9.1387   -2.8840 H   0  0  0  0  0  0  0  0  0  0  0  0
   -6.7313   -7.3751   -2.7759 H   0  0  0  0  0  0  0  0  0  0  0  0
   -4.3651   -7.5311    1.4633 H   0  0  0  0  0  0  0  0  0  0  0  0
   -3.0911   -5.5156    2.1058 H   0  0  0  0  0  0  0  0  0  0  0  0
   -0.1924    3.0247   -4.7566 H   0  0  0  0  0  0  0  0  0  0  0  0
   -1.5383    4.2728   -6.3909 H   0  0  0  0  0  0  0  0  0  0  0  0
   -6.2671    4.3315   -5.7605 H   0  0  0  0  0  0  0  0  0  0  0  0
   -6.2052    2.8789   -6.8191 H   0  0  0  0  0  0  0  0  0  0  0  0
   -6.5391    4.4820   -7.5092 H   0  0  0  0  0  0  0  0  0  0  0  0
   -5.0878    2.4593   -4.8368 H   0  0  0  0  0  0  0  0  0  0  0  0
   -3.7506    1.2026   -3.2422 H   0  0  0  0  0  0  0  0  0  0  0  0
   -0.5848    0.3600   -5.5582 H   0  0  0  0  0  0  0  0  0  0  0  0
    1.4981   -0.6035   -6.3709 H   0  0  0  0  0  0  0  0  0  0  0  0
    2.9975   -2.4840   -6.6074 H   0  0  0  0  0  0  0  0  0  0  0  0
    4.7223   -2.2149   -6.9229 H   0  0  0  0  0  0  0  0  0  0  0  0
    3.5621   -0.9273   -7.3102 H   0  0  0  0  0  0  0  0  0  0  0  0
    3.2275   -0.1575   -2.4849 H   0  0  0  0  0  0  0  0  0  0  0  0
    1.1180    0.8344   -1.6696 H   0  0  0  0  0  0  0  0  0  0  0  0
   -2.2680    3.7311   -2.2711 H   0  0  0  0  0  0  0  0  0  0  0  0
   -0.5031    7.7646   -2.4674 H   0  0  0  0  0  0  0  0  0  0  0  0
   -4.2891    7.7414   -6.4501 H   0  0  0  0  0  0  0  0  0  0  0  0
   -3.1545    9.0819   -6.2061 H   0  0  0  0  0  0  0  0  0  0  0  0
   -2.5870    7.8450   -8.2559 H   0  0  0  0  0  0  0  0  0  0  0  0
   -1.2940    7.6501   -7.0722 H   0  0  0  0  0  0  0  0  0  0  0  0
   -2.4516    6.3391   -7.3502 H   0  0  0  0  0  0  0  0  0  0  0  0
   -4.1554    5.5120   -2.3595 H   0  0  0  0  0  0  0  0  0  0  0  0
   -0.2227    3.6588    3.1152 H   0  0  0  0  0  0  0  0  0  0  0  0
   -0.9645    3.2620    7.7392 H   0  0  0  0  0  0  0  0  0  0  0  0
   -2.3142    4.3610    8.0905 H   0  0  0  0  0  0  0  0  0  0  0  0
   -0.7360    6.2914    8.0990 H   0  0  0  0  0  0  0  0  0  0  0  0
   -0.2601    5.0740    9.2880 H   0  0  0  0  0  0  0  0  0  0  0  0
    0.6080    5.1982    7.7537 H   0  0  0  0  0  0  0  0  0  0  0  0
   -3.2042    6.6122    4.0269 H   0  0  0  0  0  0  0  0  0  0  0  0
   -1.2371    7.9568    3.3615 H   0  0  0  0  0  0  0  0  0  0  0  0
   -1.2527   11.2012    1.1556 H   0  0  0  0  0  0  0  0  0  0  0  0
    1.4433   10.1270    6.6997 H   0  0  0  0  0  0  0  0  0  0  0  0
    0.9885   14.7046    4.5787 H   0  0  0  0  0  0  0  0  0  0  0  0
    3.5771   14.6642    6.8343 H   0  0  0  0  0  0  0  0  0  0  0  0
    2.0225   16.0966    8.1499 H   0  0  0  0  0  0  0  0  0  0  0  0
   -0.3098   14.9170    8.0844 H   0  0  0  0  0  0  0  0  0  0  0  0
   -0.0695   12.5344    9.2346 H   0  0  0  0  0  0  0  0  0  0  0  0
    2.4114   12.2473   10.0117 H   0  0  0  0  0  0  0  0  0  0  0  0
    3.7251   14.5515    9.5508 H   0  0  0  0  0  0  0  0  0  0  0  0
    2.2322   14.8479   10.4764 H   0  0  0  0  0  0  0  0  0  0  0  0
    3.8169   12.3527    7.9590 H   0  0  0  0  0  0  0  0  0  0  0  0
  1  2  2  0  0  0  0
  2  3  1  0  0  0  0
  3  4  2  0  0  0  0
  3  5  1  0  0  0  0
  5  6  2  0  0  0  0
  6  7  1  0  0  0  0
  7  8  1  0  0  0  0
  7  9  2  0  0  0  0
  9 10  1  0  0  0  0
 10 11  2  0  0  0  0
 11 12  1  0  0  0  0
 12 13  2  0  0  0  0
 13 14  1  0  0  0  0
 14 15  3  0  0  0  0
 13 16  1  0  0  0  0
 16 17  3  0  0  0  0
  1 18  1  0  0  0  0
 18 19  2  0  0  0  0
 19 20  1  0  0  0  0
 20 21  1  0  0  0  0
 21 22  2  0  0  0  0
 22 23  1  0  0  0  0
 23 24  2  0  0  0  0
 24 25  1  0  0  0  0
 24 26  1  0  0  0  0
 26 27  2  0  0  0  0
 20 28  1  0  0  0  0
 28 29  2  0  0  0  0
 29 30  1  0  0  0  0
 30 31  2  0  0  0  0
 31 32  1  0  0  0  0
 31 33  1  0  0  0  0
 33 34  2  0  0  0  0
 19 35  1  0  0  0  0
 35 36  1  0  0  0  0
 36 37  1  0  0  0  0
 37 38  2  0  0  0  0
 38 39  1  0  0  0  0
 39 40  1  0  0  0  0
 40 41  2  0  0  0  0
 41 42  1  0  0  0  0
 42 43  2  0  0  0  0
 43 44  1  0  0  0  0
 43 45  1  0  0  0  0
 45 46  2  0  0  0  0
 39 47  1  0  0  0  0
 47 48  2  0  0  0  0
 48 49  1  0  0  0  0
 49 50  2  0  0  0  0
 50 51  1  0  0  0  0
 50 52  1  0  0  0  0
 52 53  2  0  0  0  0
 38 54  1  0  0  0  0
 54 55  1  0  0  0  0
 37 56  1  0  0  0  0
 56 57  2  0  0  0  0
 57 58  1  0  0  0  0
 58 59  1  0  0  0  0
 59 60  2  0  0  0  0
 60 61  1  0  0  0  0
 61 62  2  0  0  0  0
 62 63  1  0  0  0  0
 63 64  1  0  0  0  0
 62 65  1  0  0  0  0
 65 66  2  0  0  0  0
 58 67  1  0  0  0  0
 67 68  2  0  0  0  0
 68 69  1  0  0  0  0
 69 70  2  0  0  0  0
 70 71  1  0  0  0  0
 71 72  1  0  0  0  0
 70 73  1  0  0  0  0
 73 74  2  0  0  0  0
 57 75  1  0  0  0  0
 75 76  1  0  0  0  0
 76 77  1  0  0  0  0
 77 78  2  0  0  0  0
 78 79  1  0  0  0  0
 79 80  1  0  0  0  0
 80 81  2  0  0  0  0
 81 82  1  0  0  0  0
 82 83  2  0  0  0  0
 83 84  1  0  0  0  0
 84 85  1  0  0  0  0
 83 86  1  0  0  0  0
 86 87  2  0  0  0  0
 79 88  1  0  0  0  0
 88 89  2  0  0  0  0
 89 90  1  0  0  0  0
 90 91  2  0  0  0  0
 91 92  1  0  0  0  0
 92 93  1  0  0  0  0
 91 94  1  0  0  0  0
 94 95  2  0  0  0  0
 78 96  1  0  0  0  0
 96 97  1  0  0  0  0
 77 98  1  0  0  0  0
 98 99  2  0  0  0  0
 99100  1  0  0  0  0
100101  2  0  0  0  0
101102  1  0  0  0  0
102103  2  0  0  0  0
103104  1  0  0  0  0
104105  1  0  0  0  0
104106  2  0  0  0  0
106107  1  0  0  0  0
107108  1  0  0  0  0
106109  1  0  0  0  0
109110  1  0  0  0  0
109111  2  0  0  0  0
101112  1  0  0  0  0
112113  2  0  0  0  0
113114  1  0  0  0  0
114115  1  0  0  0  0
115116  2  0  0  0  0
116117  1  0  0  0  0
117118  2  0  0  0  0
118119  1  0  0  0  0
119120  1  0  0  0  0
118121  1  0  0  0  0
121122  2  0  0  0  0
121123  1  0  0  0  0
117124  1  0  0  0  0
114125  2  0  0  0  0
125126  1  0  0  0  0
113127  1  0  0  0  0
127128  2  0  0  0  0
128129  1  0  0  0  0
128130  1  0  0  0  0
130131  2  0  0  0  0
131132  1  0  0  0  0
132133  2  0  0  0  0
132134  1  0  0  0  0
134135  2  0  0  0  0
135136  1  0  0  0  0
136137  2  0  0  0  0
137138  1  0  0  0  0
138139  2  0  0  0  0
139140  1  0  0  0  0
140141  2  0  0  0  0
141142  1  0  0  0  0
142143  3  0  0  0  0
141144  1  0  0  0  0
144145  3  0  0  0  0
137146  1  0  0  0  0
146147  1  0  0  0  0
147148  1  0  0  0  0
148149  2  0  0  0  0
149150  1  0  0  0  0
150151  1  0  0  0  0
150152  1  0  0  0  0
 12  2  1  0  0  0  0
 55 18  1  0  0  0  0
 97 56  1  0  0  0  0
126 98  1  0  0  0  0
140131  1  0  0  0  0
152146  1  0  0  0  0
 11  5  1  0  0  0  0
 27 21  1  0  0  0  0
 34 28  1  0  0  0  0
 54 35  2  0  0  0  0
 66 59  1  0  0  0  0
 74 67  1  0  0  0  0
 96 75  2  0  0  0  0
125100  1  0  0  0  0
139134  1  0  0  0  0
151147  1  0  0  0  0
 46 40  1  0  0  0  0
 53 47  1  0  0  0  0
 87 80  1  0  0  0  0
 95 88  1  0  0  0  0
111102  1  0  0  0  0
129112  1  0  0  0  0
152136  1  0  0  0  0
122115  1  0  0  0  0
  1153  1  0  0  0  0
  6154  1  0  0  0  0
  9155  1  0  0  0  0
 10156  1  0  0  0  0
 22157  1  0  0  0  0
 23158  1  0  0  0  0
 25159  1  0  0  0  0
 25160  1  0  0  0  0
 25161  1  0  0  0  0
 26162  1  0  0  0  0
 27163  1  0  0  0  0
 29164  1  0  0  0  0
 30165  1  0  0  0  0
 32166  1  0  0  0  0
 32167  1  0  0  0  0
 32168  1  0  0  0  0
 33169  1  0  0  0  0
 34170  1  0  0  0  0
 41171  1  0  0  0  0
 42172  1  0  0  0  0
 44173  1  0  0  0  0
 44174  1  0  0  0  0
 44175  1  0  0  0  0
 45176  1  0  0  0  0
 46177  1  0  0  0  0
 48178  1  0  0  0  0
 49179  1  0  0  0  0
 51180  1  0  0  0  0
 51181  1  0  0  0  0
 51182  1  0  0  0  0
 52183  1  0  0  0  0
 53184  1  0  0  0  0
 60185  1  0  0  0  0
 61186  1  0  0  0  0
 64187  1  0  0  0  0
 64188  1  0  0  0  0
 64189  1  0  0  0  0
 65190  1  0  0  0  0
 66191  1  0  0  0  0
 68192  1  0  0  0  0
 69193  1  0  0  0  0
 72194  1  0  0  0  0
 72195  1  0  0  0  0
 72196  1  0  0  0  0
 73197  1  0  0  0  0
 74198  1  0  0  0  0
 81199  1  0  0  0  0
 82200  1  0  0  0  0
 85201  1  0  0  0  0
 85202  1  0  0  0  0
 85203  1  0  0  0  0
 86204  1  0  0  0  0
 87205  1  0  0  0  0
 89206  1  0  0  0  0
 90207  1  0  0  0  0
 93208  1  0  0  0  0
 93209  1  0  0  0  0
 93210  1  0  0  0  0
 94211  1  0  0  0  0
 95212  1  0  0  0  0
 99213  1  0  0  0  0
103214  1  0  0  0  0
107215  1  0  0  0  0
107216  1  0  0  0  0
108217  1  0  0  0  0
108218  1  0  0  0  0
108219  1  0  0  0  0
111220  1  0  0  0  0
116221  1  0  0  0  0
119222  1  0  0  0  0
119223  1  0  0  0  0
120224  1  0  0  0  0
120225  1  0  0  0  0
120226  1  0  0  0  0
122227  1  0  0  0  0
127228  1  0  0  0  0
130229  1  0  0  0  0
135230  1  0  0  0  0
138231  1  0  0  0  0
146232  1  0  0  0  0
147233  1  0  0  0  0
148234  1  0  0  0  0
149235  1  0  0  0  0
150236  1  0  0  0  0
151237  1  0  0  0  0
151238  1  0  0  0  0
152239  1  0  0  0  0
M  END
