200

C          7.62850        2.92610        4.85090
C          8.17980        2.99920        6.11740
C          7.45260        2.93420        7.38110
O          6.26550        2.72730        7.56690
C          8.45430        3.20910        8.43720
C          8.27040        3.25880        9.80190
C          9.38430        3.53840       10.58270
Br         9.19320        3.62080       12.47310
C         10.63240        3.75740       10.01950
C         10.80560        3.70130        8.64320
C          9.70840        3.42640        7.84210
C          9.56560        3.28000        6.39210
C         10.59770        3.37440        5.48700
C         10.50910        3.10560        4.10850
N         10.54160        2.87100        2.98290
C         11.91600        3.73220        5.82920
N         13.00430        4.03670        6.03630
C          6.33300        2.63760        4.44710
C          5.92240        2.63760        3.08370
N          6.64360        3.13090        2.03570
C          6.39860        2.61090        0.74620
C          6.39150        1.23410        0.54030
C          6.11730        0.72660       -0.71310
C          5.84950        1.57020       -1.78580
C          5.51360        1.00080       -3.12830
C          5.88700        2.94260       -1.57400
C          6.15870        3.46430       -0.32450
C          7.49300        4.24940        2.14230
C          8.65250        4.30670        1.37370
C          9.48540        5.40390        1.46340
C          9.19380        6.45990        2.31880
C         10.12960        7.62340        2.42950
C          8.02350        6.40060        3.06710
C          7.17340        5.31660        2.97780
C          4.64560        2.06880        2.95170
S          3.61480        1.72370        1.60170
C          2.36650        1.12600        2.68620
C          2.75370        1.15270        4.02340
N          2.04900        0.66930        5.10540
C          2.28250        1.30420        6.34560
C          2.19510        2.68960        6.43880
C          2.49950        3.32290        7.62690
C          2.89100        2.59600        8.74450
C          3.29000        3.29780       10.00450
C          2.94180        1.21100        8.65010
C          2.64320        0.56540        7.46690
C          1.23390       -0.46010        5.05060
C          1.43680       -1.46470        4.10610
C          0.59310       -2.55660        4.05690
C         -0.46040       -2.69530        4.95180
C         -1.38330       -3.87070        4.86710
C         -0.63960       -1.70470        5.91050
C          0.18920       -0.60310        5.96360
C          4.05020        1.71290        4.15660
S          5.04990        2.06630        5.52040
C          1.16290        0.67280        2.08250
S          1.19560        0.00780        0.47350
C         -0.53070       -0.24590        0.44730
C         -1.08140        0.16230        1.65070
C         -0.13420        0.69350        2.55540
O         -0.47590        1.26310        3.74290
C         -1.87190        1.42440        3.90040
C         -2.62130        0.21210        3.35250
O         -2.40300        0.09440        1.96080
C         -1.11470       -0.70660       -0.76360
C         -2.42930       -0.99500       -1.11200
N         -3.56670       -0.96800       -0.30380
C         -4.59930       -0.14410       -0.79720
C         -4.28410        1.15070       -1.19790
C         -5.26240        1.98160       -1.70800
C         -6.57620        1.54960       -1.82920
C         -7.64980        2.45120       -2.35110
C         -6.87690        0.24410       -1.45160
C         -5.90680       -0.59900       -0.94880
C         -3.78180       -1.91770        0.68520
C         -2.99910       -3.06850        0.76010
C         -3.26350       -4.03550        1.71130
C         -4.30410       -3.88980        2.61890
C         -4.63670       -4.96130        3.61410
C         -5.05300       -2.71810        2.56810
C         -4.80040       -1.74560        1.62500
C         -2.53120       -1.28880       -2.49000
S         -3.87220       -1.66620       -3.50370
C         -2.80430       -1.78410       -4.90580
C         -1.46320       -1.52970       -4.56860
N         -0.42770       -1.49020       -5.46040
C          0.87370       -1.78880       -5.02110
C          1.95950       -1.03720       -5.45970
C          3.23510       -1.35120       -5.03410
C          3.46180       -2.40800       -4.16050
C          4.84090       -2.73230       -3.67550
C          2.37160       -3.15660       -3.73250
C          1.09310       -2.86110       -4.15910
C         -0.61330       -1.07120       -6.79610
C          0.05130       -1.73140       -7.82430
C         -0.12820       -1.32820       -9.13270
C         -0.96980       -0.26770       -9.44650
C         -1.19120        0.13380      -10.87180
C         -1.61580        0.39330       -8.40800
C         -1.43880        0.00860       -7.09410
C         -1.33440       -1.26210       -3.18910
S         -0.02050       -0.86640       -2.13420
C         -3.26780       -2.23670       -6.14940
C         -4.55280       -2.34360       -6.60380
C         -4.86310       -3.27670       -7.71100
O         -4.06790       -3.82790       -8.44280
C         -6.33360       -3.42360       -7.69980
C         -7.10390       -4.28290       -8.47870
C         -8.45200       -4.22020       -8.21730
C         -8.99790       -3.36940       -7.24790
C         -8.25130       -2.50710       -6.47970
C         -6.87990       -2.55110       -6.73570
C         -5.79200       -1.76030       -6.15960
C         -5.94220       -0.53200       -5.56050
C         -4.87010        0.35340       -5.33660
N         -4.03300        1.13130       -5.21450
C         -7.18470        0.03730       -5.23530
N         -8.17280        0.54900       -4.94660
C        -10.40490       -3.84830       -7.50440
C        -11.02640       -4.84280       -6.49280
C         -9.87690       -5.58950       -5.86330
C         -9.36220       -6.39240       -6.78500
C        -10.15420       -6.20240       -8.05480
C        -11.54440       -5.91360       -7.46620
C         -9.79750       -4.79310       -8.58870
H          8.31310        3.12060        4.03550
H          7.29900        3.08200       10.23700
H         11.47640        3.97140       10.65710
H         11.78450        3.87240        8.22670
H          6.60260        0.57190        1.36700
H          6.10940       -0.34290       -0.86280
H          5.49930        1.77740       -3.88860
H          6.23930        0.24140       -3.41370
H          4.53060        0.53080       -3.09580
H          5.68910        3.61530       -2.39550
H          6.17370        4.53280       -0.16810
H          8.90080        3.48520        0.72060
H         10.38810        5.43160        0.87220
H          9.69780        8.41770        3.03310
H         10.36550        8.01970        1.44340
H         11.06480        7.30740        2.89140
H          7.76720        7.21910        3.72430
H          6.26330        5.28930        3.55900
H          1.89830        3.25900        5.56970
H          2.44230        4.40020        7.68590
H          2.66950        4.17450       10.17860
H          3.21920        2.63530       10.86360
H          4.32390        3.63060        9.91220
H          3.24010        0.62870        9.50970
H          2.70490       -0.51080        7.39760
H          2.26650       -1.39980        3.41860
H          0.76040       -3.32050        3.31110
H         -1.96330       -3.97740        5.78040
H         -2.07370       -3.73960        4.03370
H         -0.82330       -4.78820        4.69720
H         -1.44730       -1.79340        6.62370
H          0.02520        0.16420        6.70510
H         -2.20200        2.32580        3.36610
H         -2.04360        1.54600        4.97050
H         -2.27060       -0.69480        3.86370
H         -3.69780        0.31850        3.48200
H         -3.26680        1.50130       -1.10070
H         -4.99880        2.98350       -2.01380
H         -8.10210        2.01690       -3.24200
H         -7.24840        3.42890       -2.60440
H         -8.43530        2.57610       -1.60660
H         -7.88830       -0.11790       -1.56720
H         -6.15380       -1.61550       -0.67970
H         -2.19310       -3.21610        0.05610
H         -2.65710       -4.93060        1.73260
H         -5.57360       -5.44690        3.34020
H         -4.76190       -4.53960        4.61010
H         -3.85810       -5.71920        3.64930
H         -5.85350       -2.57090        3.27970
H         -5.39190       -0.84310        1.60530
H          1.79640       -0.20850       -6.13230
H          4.06860       -0.76120       -5.38660
H          5.59540       -2.29900       -4.32690
H          4.98310       -2.33360       -2.67080
H          4.99050       -3.80900       -3.63050
H          2.52810       -3.99030       -3.06390
H          0.25870       -3.46790       -3.83920
H          0.69880       -2.56450       -7.59270
H          0.38580       -1.85350       -9.92420
H         -0.28240        0.00860      -11.45650
H         -1.51710        1.16890      -10.93880
H         -1.96430       -0.49460      -11.31520
H         -2.26460        1.22860       -8.62680
H         -1.94880        0.53650       -6.30220
H         -2.51920       -2.66160       -6.81070
H         -6.64580       -4.92560       -9.21430
H         -8.67910       -1.85900       -5.73240
H        -11.11480       -3.08980       -7.82880
H        -11.74420       -4.39980       -5.80740
H         -9.52890       -5.41950       -4.86120
H         -8.49880       -7.02680       -6.70640
H        -10.07810       -6.99770       -8.79180
H        -11.97340       -6.77500       -6.95620
H        -12.25350       -5.52830       -8.19770
H        -10.11010       -4.64900       -9.62130
