78

C          5.75800        3.33480        1.29940
C          6.74090        2.88030        2.10430
C          7.60980        3.87680        2.81170
O          7.69240        5.05460        2.57360
C          8.27910        3.10560        3.87820
C          9.08440        3.57240        4.89750
C          9.57600        2.63850        5.79990
Br        10.69160        3.21880        7.22030
C          9.26630        1.28710        5.69160
C          8.46270        0.82560        4.66140
C          7.96830        1.73910        3.74070
C          7.13780        1.55520        2.55550
C          6.96600        0.37800        1.88340
C          7.47830       -0.86150        2.32770
N          7.87480       -1.88920        2.64670
C          6.32330        0.26880        0.63330
N          5.82300        0.13730       -0.39100
C          4.61610        2.63750        0.75790
C          4.10180        3.00160       -0.49320
F          4.69840        3.98570       -1.17200
C          3.01600        2.35700       -1.05480
F          2.56930        2.77750       -2.24330
C          2.34180        1.32280       -0.38650
C          2.80870        1.01480        0.90040
F          2.19310        0.06670        1.61740
C          3.91530        1.63750        1.44430
F          4.30700        1.28800        2.67880
C          1.23440        0.62230       -0.98410
S         -0.08330        0.02540       -0.01920
C         -0.93640       -0.58100       -1.40540
C         -0.19440       -0.39090       -2.56300
C         -0.29640       -0.78980       -3.92390
C          0.77520       -0.41670       -4.66300
C          0.99780       -0.62630       -6.11820
C          0.86460        0.69180       -6.88480
S          1.98540        0.45370       -3.73850
C          1.02550        0.30350       -2.31050
C         -2.24370       -1.17030       -1.25650
C         -3.24550       -1.01740       -2.22810
F         -3.00970       -0.27260       -3.31480
C         -4.49870       -1.58510       -2.08540
F         -5.37840       -1.45830       -3.08350
C         -4.83820       -2.33840       -0.95650
C         -3.84000       -2.50480        0.00900
F         -4.11830       -3.22210        1.10340
C         -2.59320       -1.92190       -0.12310
F         -1.68760       -2.11160        0.84490
C         -6.13660       -2.96560       -0.80180
C         -7.30880       -2.34120       -1.04430
C         -7.44840       -0.85730       -1.18100
O         -6.57030       -0.03010       -1.13920
C         -8.90200       -0.61250       -1.25360
C         -9.55130        0.59880       -1.38120
C        -10.93890        0.57740       -1.41960
Br       -11.88900        2.20850       -1.60540
C        -11.65040       -0.61370       -1.32290
C        -10.99030       -1.82440       -1.19090
C         -9.60110       -1.83020       -1.15900
C         -8.64510       -2.92480       -1.04960
C         -8.94350       -4.25800       -1.04120
C         -7.98660       -5.29750       -1.02310
N         -7.26360       -6.18800       -1.02970
C        -10.25750       -4.77580       -1.07900
N        -11.30050       -5.25260       -1.10450
H          5.81480        4.39070        1.05000
H          9.31690        4.62270        4.98090
H          9.65730        0.59230        6.41900
H          8.22480       -0.22370        4.59930
H         -1.12110       -1.34240       -4.33200
H          1.99830       -1.03480       -6.27950
H          0.26580       -1.34560       -6.48970
H          1.59670        1.41270       -6.52820
H          1.02860        0.52500       -7.94600
H         -0.12980        1.10960       -6.74670
H         -6.11850       -3.98850       -0.44790
H         -8.99180        1.51860       -1.45320
H        -12.72900       -0.59210       -1.35110
H        -11.56240       -2.73420       -1.11280
