192

C         -8.54800       -6.04710        0.52380
C         -8.67770       -7.29480        0.01540
C         -9.61290       -8.25290        0.67390
O        -10.44380       -7.99660        1.51120
C         -9.25630       -9.57790        0.12190
C         -9.74580      -10.81750        0.48030
C         -9.22720      -11.92240       -0.18100
Br        -9.86370      -13.65520        0.26640
C         -8.24980      -11.79410       -1.16030
C         -7.76860      -10.54480       -1.51880
C         -8.27780       -9.42430       -0.87780
C         -8.00270       -8.00220       -1.05880
C         -7.40900       -7.44490       -2.15740
C         -7.37010       -6.05940       -2.41700
N         -7.34610       -4.94650       -2.69590
C         -6.83480       -8.19270       -3.20740
N         -6.34740       -8.75050       -4.08360
C         -7.51110       -5.06880        0.31900
C         -6.16290       -5.40430        0.14360
F         -5.80070       -6.70850        0.14390
C         -5.16620       -4.46280        0.06730
C         -5.48650       -3.10730        0.15860
C         -6.83510       -2.74430        0.26350
C         -7.81290       -3.70190        0.37090
C         -4.43480       -2.11780        0.19170
C         -4.33350       -1.00000        1.00940
N         -5.20480       -0.68680        2.04100
C         -5.55280        0.64800        2.28980
C         -5.61440        1.58030        1.25440
C         -6.03030        2.86860        1.50590
C         -6.41340        3.25270        2.78880
S         -7.01300        4.90230        2.97050
C         -7.36120        5.05380        4.74480
C         -6.32630        2.33620        3.82830
C         -5.88640        1.05190        3.58010
C         -5.86590       -1.72370        2.72000
C         -7.22270       -1.62700        3.03290
C         -7.89510       -2.71180        3.54790
C         -7.23520       -3.92050        3.75720
S         -8.22440       -5.28730        4.27420
C         -7.17210       -6.72660        3.93400
C         -5.86540       -3.99180        3.53970
C         -5.18950       -2.90000        3.03360
C         -3.14270       -0.28010        0.73080
S         -2.42120        1.18090        1.32650
C         -1.02040        0.94550        0.28620
C         -1.15790       -0.18010       -0.51900
N         -0.26020       -0.58350       -1.51090
C          0.14170        0.34300       -2.47340
C          1.42290        0.31040       -3.02510
C          1.85370        1.31610       -3.86610
C          1.00780        2.36670       -4.19230
S          1.51440        3.75270       -5.16880
C          2.87370        3.08050       -6.16940
C         -0.29250        2.37360       -3.69570
C         -0.71860        1.37910       -2.84250
C          0.21160       -1.89830       -1.45000
C          0.55930       -2.60860       -2.59540
C          0.99820       -3.91520       -2.50860
C          1.07590       -4.54770       -1.27530
S          1.59020       -6.22220       -1.05460
C          2.47760       -6.59300       -2.59210
C          0.70940       -3.84810       -0.12890
C          0.29980       -2.53740       -0.21160
C         -2.35380       -0.87190       -0.24310
S         -3.03660       -2.33580       -0.84420
C          0.13670        1.77970        0.29270
C          0.28790        3.14860        0.46550
N         -0.71360        4.06940        0.75360
C         -1.45600        3.97720        1.92850
C         -0.98160        3.23650        3.01080
C         -1.71740        3.13820        4.17500
C         -2.93570        3.79020        4.28120
S         -3.92630        3.73240        5.74560
C         -3.46130        2.13680        6.47750
C         -3.40430        4.55010        3.21420
C         -2.68430        4.63030        2.04500
C         -0.72150        5.22450       -0.04940
C         -0.50940        5.08290       -1.41810
C         -0.45300        6.18340       -2.24910
C         -0.62120        7.45550       -1.71950
S         -0.57240        8.93690       -2.67430
C         -0.14390        8.36440       -4.34310
C         -0.84140        7.60210       -0.35010
C         -0.88350        6.50420        0.47980
C          1.61780        3.55080        0.19440
S          2.38370        5.08740        0.10410
C          3.90500        4.33220       -0.38900
C          3.76130        2.93600       -0.56390
N          4.66140        2.11830       -1.20480
C          5.45940        2.61740       -2.25060
C          5.00390        3.63510       -3.08600
C          5.83730        4.19490       -4.03180
C          7.13770        3.72440       -4.18290
S          8.30580        4.45760       -5.27410
C          7.66570        6.14800       -5.46410
C          7.55320        2.62380       -3.43630
C          6.73150        2.08480       -2.47120
C          4.58850        0.71830       -1.04780
C          4.43980        0.14080        0.20960
C          4.36380       -1.23220        0.34930
C          4.43580       -2.05360       -0.76780
S          4.34470       -3.80720       -0.72750
C          4.04800       -4.19910        1.01510
C          4.60500       -1.47760       -2.02660
C          4.68280       -0.11220       -2.16560
C          2.47730        2.51950       -0.15680
S          1.67650        0.99470       -0.06170
C          4.97970        5.20120       -0.58640
C          6.33310        4.95520       -0.69240
C          7.17320        5.88270       -1.47330
O          6.83310        6.91670       -2.01090
C          8.49470        5.22160       -1.57710
C          9.61510        5.64060       -2.26090
C         10.72780        4.81020       -2.22890
Br        12.28860        5.32120       -3.18250
C         10.72630        3.61740       -1.52110
C          9.59580        3.21020       -0.82660
C          8.46520        4.00920       -0.86740
C          7.14140        3.85370       -0.26370
C          6.80510        2.91590        0.69070
C          5.66910        3.02040        1.50660
N          4.77060        3.08030        2.22170
C          7.57680        1.77980        0.98740
N          8.13010        0.80020        1.22280
H         -9.30620       -5.76780        1.25060
H        -10.50230      -10.91330        1.24370
H         -7.86400      -12.67730       -1.64610
H         -7.00510      -10.46420       -2.27520
H         -4.13970       -4.78280       -0.02590
H         -7.10480       -1.70030        0.26050
H         -8.84580       -3.40810        0.47400
H         -5.36220        1.28370        0.24720
H         -6.08950        3.58720        0.70320
H         -7.70160        6.07470        4.88690
H         -8.14820        4.36090        5.02790
H         -6.45280        4.88240        5.31560
H         -6.59490        2.60930        4.83500
H         -5.82280        0.34210        4.39200
H         -7.75560       -0.71000        2.83150
H         -8.95090       -2.64780        3.76030
H         -6.37560       -6.79750        4.66910
H         -7.82560       -7.58970        4.01630
H         -6.77240       -6.66000        2.92670
H         -5.31570       -4.89440        3.75310
H         -4.12750       -2.97010        2.85020
H          2.10250       -0.48180       -2.75170
H          2.86230        1.28330       -4.24690
H          3.04690        3.80480       -6.95930
H          3.77300        2.97020       -5.56890
H          2.56710        2.13120       -6.59760
H         -0.96450        3.16670       -3.98620
H         -1.72510        1.40410       -2.45200
H          0.46940       -2.14070       -3.56410
H          1.25900       -4.43730       -3.41500
H          3.20790       -5.81080       -2.77650
H          1.77870       -6.69310       -3.41750
H          2.98050       -7.53980       -2.42200
H          0.75540       -4.34730        0.82750
H          0.04860       -1.99530        0.68830
H         -0.02120        2.74670        2.94740
H         -1.31940        2.56490        4.99720
H         -4.23080        1.90280        7.20650
H         -2.49920        2.21400        6.97570
H         -3.44170        1.38350        5.69570
H         -4.34010        5.07630        3.30530
H         -3.07360        5.19580        1.21290
H         -0.37610        4.09550       -1.83510
H         -0.27520        6.02790       -3.30090
H          0.80170        7.83090       -4.32050
H         -0.04750        9.26370       -4.94340
H         -0.93900        7.74030       -4.74050
H         -0.96210        8.59430        0.05660
H         -1.02490        6.63500        1.54160
H          3.99390        4.00410       -2.98630
H          5.46570        5.00000       -4.64470
H          8.48850        6.72840       -5.86990
H          7.37370        6.53770       -4.49280
H          6.83270        6.16190       -6.16110
H          8.54330        2.22490       -3.59240
H          7.07980        1.26080       -1.86580
H          4.39620        0.76560        1.08810
H          4.25850       -1.64420        1.33900
H          4.91700       -3.93080        1.60870
H          3.15520       -3.68300        1.35410
H          3.88820       -5.27250        1.04920
H          4.66960       -2.11840       -2.89280
H          4.81280        0.31880       -3.14660
H          4.70360        6.24050       -0.74180
H          9.62230        6.57620       -2.79830
H         11.61150        2.99990       -1.51450
H          9.61090        2.27810       -0.28500
