196

C         -9.54170       -2.58260        6.65910
C        -10.60890       -1.78260        6.93020
C        -11.40180       -1.99870        8.16820
O        -11.39640       -2.97410        8.88120
C        -12.14680       -0.73250        8.36510
C        -12.94000       -0.35770        9.42970
C        -13.51260        0.90650        9.38330
Br       -14.61240        1.47970       10.82270
C        -13.30000        1.76670        8.31370
C        -12.50950        1.37840        7.24280
C        -11.92900        0.11940        7.26590
C        -11.10260       -0.58280        6.28850
C        -11.04530       -0.30360        4.94850
C        -10.53550       -1.21020        3.99370
N        -10.20220       -1.94810        3.18000
C        -11.56820        0.86720        4.36600
N        -11.94660        1.81970        3.84860
C         -8.43270       -2.33070        5.81600
C         -7.53800       -3.27100        5.36720
C         -6.50830       -2.74120        4.56670
C         -5.45230       -3.43320        3.94240
C         -5.32450       -4.87980        4.01740
S         -5.13740       -5.73870        5.51480
C         -5.01380       -7.26670        4.70880
C         -4.87150       -8.53490        5.47500
C         -6.23980       -9.07590        5.89710
C         -5.13070       -7.10600        3.35980
Cl        -5.06860       -8.39450        2.22900
C         -5.30320       -5.75260        2.96670
Cl        -5.55480       -5.27180        1.34800
C         -4.54740       -2.67690        3.21960
C         -4.66780       -1.27240        3.04920
C         -5.73300       -0.57490        3.65770
C         -5.90620        0.85900        3.53340
C         -7.07530        1.54910        3.37130
C         -6.90280        2.94640        3.35310
C         -5.60760        3.33470        3.51160
C         -5.06180        4.71700        3.62810
C         -5.01790        5.16160        5.09250
S         -4.56300        1.96070        3.66970
C         -6.61730       -1.33550        4.41070
S         -7.97630       -0.71400        5.30000
C         -3.63750       -0.76400        2.23900
C         -2.72170       -1.70460        1.83300
S         -3.12410       -3.29970        2.42840
C         -1.54480       -1.40790        1.10040
C         -0.48180       -2.20490        0.68320
N         -0.38400       -3.58140        0.76210
C          0.92830       -4.09750        0.84930
C          1.77700       -3.66000        1.86590
C          3.09400       -4.06320        1.89080
C          3.59030       -4.91230        0.90320
S          5.30660       -5.30490        0.98070
C          5.60780       -6.22700       -0.55440
C          2.73310       -5.39160       -0.07880
C          1.41420       -4.98570       -0.10470
C         -1.40020       -4.43730        0.31530
C         -2.34950       -4.03180       -0.61810
C         -3.28790       -4.92310       -1.10080
C         -3.29290       -6.23960       -0.65950
S         -4.40000       -7.47790       -1.24780
C         -5.62770       -6.54880       -2.20660
C         -2.36000       -6.64180        0.29640
C         -1.42920       -5.75380        0.78120
C          0.55250       -1.40560        0.13020
S          2.12460       -1.74680       -0.49430
C          2.38590       -0.04520       -0.85760
C          1.30440        0.74560       -0.49020
N          1.18800        2.12030       -0.60760
C          2.16390        3.00750       -0.14230
C          2.14230        4.33230       -0.57550
C          3.03410        5.25650       -0.07160
C          3.99090        4.86520        0.85640
S          5.17160        5.95990        1.57720
C          5.07330        7.44310        0.53540
C          4.03990        3.53390        1.26360
C          3.13710        2.61540        0.77610
C         -0.12540        2.58350       -0.84100
C         -0.75490        3.47240        0.02420
C         -2.07600        3.82330       -0.17350
C         -2.78820        3.28660       -1.23870
S         -4.48920        3.62810       -1.55730
C         -5.08520        4.30910        0.01600
C         -2.14760        2.42730       -2.12940
C         -0.83060        2.07870       -1.93330
C          0.27240       -0.05270        0.06460
S         -1.28400        0.29800        0.72340
C          3.60960        0.26700       -1.51090
C          3.95930        1.33040       -2.29800
C          5.22050        1.17260       -2.91870
C          5.82220        2.00520       -3.87780
C          5.23010        3.28850       -4.22960
S          4.65230        3.66940       -5.81940
C          4.18160        5.26620       -5.34270
C          3.51650        6.19170       -6.30140
C          2.01230        5.91870       -6.37630
C          4.45980        5.47030       -4.02400
Cl         4.13240        6.93480       -3.19680
C          5.06260        4.35220       -3.39130
Cl         5.60370        4.34350       -1.76390
C          7.01400        1.57990       -4.44150
C          7.66260        0.37630       -4.04910
C          7.06890       -0.46750       -3.07620
C          7.68860       -1.70540       -2.65940
C          8.34560       -2.63790       -3.41670
C          8.83420       -3.72120       -2.66330
C          8.56160       -3.62260       -1.33120
C          8.98560       -4.52570       -0.22560
C         10.19900       -3.95330        0.51150
S          7.66770       -2.18380       -0.98320
C          5.85960       -0.04040       -2.55050
S          4.87300       -0.94660       -1.43950
C          8.88710        0.22900       -4.70960
C          9.17510        1.24290       -5.61130
S          7.91140        2.45820       -5.64320
C         10.35200        1.22450       -6.38040
C         10.81250        2.09510       -7.33330
C         10.15270        3.33660       -7.76530
O          9.09810        3.79970       -7.38060
C         11.04440        3.93280       -8.78340
C         10.87080        5.10650       -9.48760
C         11.84910        5.47550      -10.40300
Cl        11.69680        6.92480      -11.31610
C         12.96570        4.65470      -10.57780
F         13.90520        5.01620      -11.45970
C         13.14500        3.47400       -9.87370
C         12.16720        3.10690       -8.96190
C         12.04740        1.94710       -8.08020
C         12.94820        0.91510       -8.01210
C         12.84130       -0.22790       -7.19240
N         12.83420       -1.19200       -6.56740
C         14.13000        0.84740       -8.78070
N         15.10630        0.72840       -9.37250
H         -9.49300       -3.50440        7.23070
H        -13.10410       -1.02730       10.25970
H        -13.75650        2.74460        8.31780
H        -12.35010        2.05750        6.42070
H         -7.64200       -4.31880        5.58490
H         -4.26080       -8.35820        6.36200
H         -4.36880       -9.26850        4.84220
H         -6.74800       -8.36030        6.53900
H         -6.11990      -10.00860        6.44130
H         -6.85780       -9.25990        5.02210
H         -8.02760        1.07010        3.22980
H         -7.71550        3.63930        3.22650
H         -5.69620        5.40020        3.05880
H         -4.05160        4.75320        3.21460
H         -4.62620        6.17280        5.16760
H         -6.01600        5.14060        5.52320
H         -4.37860        4.49670        5.66880
H         -3.55360        0.26870        1.95330
H          1.39900       -2.98440        2.61900
H          3.75850       -3.71250        2.66520
H          5.34940       -5.60800       -1.40870
H          5.04580       -7.15620       -0.54970
H          6.67100       -6.44400       -0.56560
H          3.08120       -6.06450       -0.84500
H          0.76010       -5.33950       -0.88770
H         -2.34450       -3.01620       -0.98630
H         -4.00140       -4.57830       -1.83180
H         -5.17280       -6.13450       -3.10190
H         -6.39010       -7.27070       -2.48280
H         -6.06320       -5.77130       -1.58590
H         -2.37920       -7.66050        0.65160
H         -0.70980       -6.06980        1.52140
H          1.40750        4.64270       -1.30420
H          2.97860        6.27520       -0.41860
H          4.13000        7.95700        0.69690
H          5.19900        7.16400       -0.50610
H          5.89560        8.07770        0.85110
H          4.79020        3.23110        1.97780
H          3.17430        1.59380        1.12230
H         -0.21130        3.87210        0.86720
H         -2.54390        4.50450        0.51870
H         -4.69040        5.30910        0.17110
H         -4.80830        3.64240        0.82680
H         -6.16620        4.35160       -0.07230
H         -2.70110        2.03060       -2.96630
H         -0.33910        1.39650       -2.61160
H          3.31610        2.17260       -2.47660
H          3.95840        6.06290       -7.29070
H          3.68610        7.21960       -5.97470
H          1.54400        6.60040       -7.08100
H          1.83080        4.89790       -6.70380
H          1.55330        6.05760       -5.40040
H          8.43600       -2.57230       -4.48620
H          9.37270       -4.54600       -3.09560
H          9.24130       -5.50270       -0.64250
H          8.16510       -4.64900        0.48500
H          9.95420       -2.98430        0.93990
H         10.50050       -4.62210        1.31340
H         11.03520       -3.82880       -0.17270
H          9.56970       -0.58280       -4.53340
H         10.97540        0.36430       -6.16840
H          9.99720        5.71820       -9.32870
H         14.03100        2.88900      -10.05830
