
  xtb     02102222443D
 energy: -357.480575447034 gnorm: 0.000385691398 xtb: 6.4.1 (unknown)
196215  0     0  0            999 V2000
   -9.5417   -2.5826    6.6591 C   0  0  0  0  0  0  0  0  0  0  0  0
  -10.6089   -1.7826    6.9302 C   0  0  0  0  0  0  0  0  0  0  0  0
  -11.4018   -1.9987    8.1682 C   0  0  0  0  0  0  0  0  0  0  0  0
  -11.3964   -2.9741    8.8812 O   0  0  0  0  0  0  0  0  0  0  0  0
  -12.1468   -0.7325    8.3651 C   0  0  0  0  0  0  0  0  0  0  0  0
  -12.9400   -0.3577    9.4297 C   0  0  0  0  0  0  0  0  0  0  0  0
  -13.5126    0.9065    9.3833 C   0  0  0  0  0  0  0  0  0  0  0  0
  -14.6124    1.4797   10.8227 Br  0  0  0  0  0  0  0  0  0  0  0  0
  -13.3000    1.7667    8.3137 C   0  0  0  0  0  0  0  0  0  0  0  0
  -12.5095    1.3784    7.2428 C   0  0  0  0  0  0  0  0  0  0  0  0
  -11.9290    0.1194    7.2659 C   0  0  0  0  0  0  0  0  0  0  0  0
  -11.1026   -0.5828    6.2885 C   0  0  0  0  0  0  0  0  0  0  0  0
  -11.0453   -0.3036    4.9485 C   0  0  0  0  0  0  0  0  0  0  0  0
  -10.5355   -1.2102    3.9937 C   0  0  0  0  0  0  0  0  0  0  0  0
  -10.2022   -1.9481    3.1800 N   0  0  0  0  0  0  0  0  0  0  0  0
  -11.5682    0.8672    4.3660 C   0  0  0  0  0  0  0  0  0  0  0  0
  -11.9466    1.8197    3.8486 N   0  0  0  0  0  0  0  0  0  0  0  0
   -8.4327   -2.3307    5.8160 C   0  0  0  0  0  0  0  0  0  0  0  0
   -7.5380   -3.2710    5.3672 C   0  0  0  0  0  0  0  0  0  0  0  0
   -6.5083   -2.7412    4.5667 C   0  0  0  0  0  0  0  0  0  0  0  0
   -5.4523   -3.4332    3.9424 C   0  0  0  0  0  0  0  0  0  0  0  0
   -5.3245   -4.8798    4.0174 C   0  0  0  0  0  0  0  0  0  0  0  0
   -5.1374   -5.7387    5.5148 S   0  0  0  0  0  0  0  0  0  0  0  0
   -5.0138   -7.2667    4.7088 C   0  0  0  0  0  0  0  0  0  0  0  0
   -4.8715   -8.5349    5.4750 C   0  0  0  0  0  0  0  0  0  0  0  0
   -6.2398   -9.0759    5.8971 C   0  0  0  0  0  0  0  0  0  0  0  0
   -5.1307   -7.1060    3.3598 C   0  0  0  0  0  0  0  0  0  0  0  0
   -5.0686   -8.3945    2.2290 Cl  0  0  0  0  0  0  0  0  0  0  0  0
   -5.3032   -5.7526    2.9667 C   0  0  0  0  0  0  0  0  0  0  0  0
   -5.5548   -5.2718    1.3480 Cl  0  0  0  0  0  0  0  0  0  0  0  0
   -4.5474   -2.6769    3.2196 C   0  0  0  0  0  0  0  0  0  0  0  0
   -4.6678   -1.2724    3.0492 C   0  0  0  0  0  0  0  0  0  0  0  0
   -5.7330   -0.5749    3.6577 C   0  0  0  0  0  0  0  0  0  0  0  0
   -5.9062    0.8590    3.5334 C   0  0  0  0  0  0  0  0  0  0  0  0
   -7.0753    1.5491    3.3713 C   0  0  0  0  0  0  0  0  0  0  0  0
   -6.9028    2.9464    3.3531 C   0  0  0  0  0  0  0  0  0  0  0  0
   -5.6076    3.3347    3.5116 C   0  0  0  0  0  0  0  0  0  0  0  0
   -5.0618    4.7170    3.6281 C   0  0  0  0  0  0  0  0  0  0  0  0
   -5.0179    5.1616    5.0925 C   0  0  0  0  0  0  0  0  0  0  0  0
   -4.5630    1.9607    3.6697 S   0  0  0  0  0  0  0  0  0  0  0  0
   -6.6173   -1.3355    4.4107 C   0  0  0  0  0  0  0  0  0  0  0  0
   -7.9763   -0.7140    5.3000 S   0  0  0  0  0  0  0  0  0  0  0  0
   -3.6375   -0.7640    2.2390 C   0  0  0  0  0  0  0  0  0  0  0  0
   -2.7217   -1.7046    1.8330 C   0  0  0  0  0  0  0  0  0  0  0  0
   -3.1241   -3.2997    2.4284 S   0  0  0  0  0  0  0  0  0  0  0  0
   -1.5448   -1.4079    1.1004 C   0  0  0  0  0  0  0  0  0  0  0  0
   -0.4818   -2.2049    0.6832 C   0  0  0  0  0  0  0  0  0  0  0  0
   -0.3840   -3.5814    0.7621 N   0  0  0  0  0  0  0  0  0  0  0  0
    0.9283   -4.0975    0.8493 C   0  0  0  0  0  0  0  0  0  0  0  0
    1.7770   -3.6600    1.8659 C   0  0  0  0  0  0  0  0  0  0  0  0
    3.0940   -4.0632    1.8908 C   0  0  0  0  0  0  0  0  0  0  0  0
    3.5903   -4.9123    0.9032 C   0  0  0  0  0  0  0  0  0  0  0  0
    5.3066   -5.3049    0.9807 S   0  0  0  0  0  0  0  0  0  0  0  0
    5.6078   -6.2270   -0.5544 C   0  0  0  0  0  0  0  0  0  0  0  0
    2.7331   -5.3916   -0.0788 C   0  0  0  0  0  0  0  0  0  0  0  0
    1.4142   -4.9857   -0.1047 C   0  0  0  0  0  0  0  0  0  0  0  0
   -1.4002   -4.4373    0.3153 C   0  0  0  0  0  0  0  0  0  0  0  0
   -2.3495   -4.0318   -0.6181 C   0  0  0  0  0  0  0  0  0  0  0  0
   -3.2879   -4.9231   -1.1008 C   0  0  0  0  0  0  0  0  0  0  0  0
   -3.2929   -6.2396   -0.6595 C   0  0  0  0  0  0  0  0  0  0  0  0
   -4.4000   -7.4779   -1.2478 S   0  0  0  0  0  0  0  0  0  0  0  0
   -5.6277   -6.5488   -2.2066 C   0  0  0  0  0  0  0  0  0  0  0  0
   -2.3600   -6.6418    0.2964 C   0  0  0  0  0  0  0  0  0  0  0  0
   -1.4292   -5.7538    0.7812 C   0  0  0  0  0  0  0  0  0  0  0  0
    0.5525   -1.4056    0.1302 C   0  0  0  0  0  0  0  0  0  0  0  0
    2.1246   -1.7468   -0.4943 S   0  0  0  0  0  0  0  0  0  0  0  0
    2.3859   -0.0452   -0.8576 C   0  0  0  0  0  0  0  0  0  0  0  0
    1.3044    0.7456   -0.4902 C   0  0  0  0  0  0  0  0  0  0  0  0
    1.1880    2.1203   -0.6076 N   0  0  0  0  0  0  0  0  0  0  0  0
    2.1639    3.0075   -0.1423 C   0  0  0  0  0  0  0  0  0  0  0  0
    2.1423    4.3323   -0.5755 C   0  0  0  0  0  0  0  0  0  0  0  0
    3.0341    5.2565   -0.0716 C   0  0  0  0  0  0  0  0  0  0  0  0
    3.9909    4.8652    0.8564 C   0  0  0  0  0  0  0  0  0  0  0  0
    5.1716    5.9599    1.5772 S   0  0  0  0  0  0  0  0  0  0  0  0
    5.0733    7.4431    0.5354 C   0  0  0  0  0  0  0  0  0  0  0  0
    4.0399    3.5339    1.2636 C   0  0  0  0  0  0  0  0  0  0  0  0
    3.1371    2.6154    0.7761 C   0  0  0  0  0  0  0  0  0  0  0  0
   -0.1254    2.5835   -0.8410 C   0  0  0  0  0  0  0  0  0  0  0  0
   -0.7549    3.4724    0.0242 C   0  0  0  0  0  0  0  0  0  0  0  0
   -2.0760    3.8233   -0.1735 C   0  0  0  0  0  0  0  0  0  0  0  0
   -2.7882    3.2866   -1.2387 C   0  0  0  0  0  0  0  0  0  0  0  0
   -4.4892    3.6281   -1.5573 S   0  0  0  0  0  0  0  0  0  0  0  0
   -5.0852    4.3091    0.0160 C   0  0  0  0  0  0  0  0  0  0  0  0
   -2.1476    2.4273   -2.1294 C   0  0  0  0  0  0  0  0  0  0  0  0
   -0.8306    2.0787   -1.9333 C   0  0  0  0  0  0  0  0  0  0  0  0
    0.2724   -0.0527    0.0646 C   0  0  0  0  0  0  0  0  0  0  0  0
   -1.2840    0.2980    0.7234 S   0  0  0  0  0  0  0  0  0  0  0  0
    3.6096    0.2670   -1.5109 C   0  0  0  0  0  0  0  0  0  0  0  0
    3.9593    1.3304   -2.2980 C   0  0  0  0  0  0  0  0  0  0  0  0
    5.2205    1.1726   -2.9187 C   0  0  0  0  0  0  0  0  0  0  0  0
    5.8222    2.0052   -3.8778 C   0  0  0  0  0  0  0  0  0  0  0  0
    5.2301    3.2885   -4.2296 C   0  0  0  0  0  0  0  0  0  0  0  0
    4.6523    3.6694   -5.8194 S   0  0  0  0  0  0  0  0  0  0  0  0
    4.1816    5.2662   -5.3427 C   0  0  0  0  0  0  0  0  0  0  0  0
    3.5165    6.1917   -6.3014 C   0  0  0  0  0  0  0  0  0  0  0  0
    2.0123    5.9187   -6.3763 C   0  0  0  0  0  0  0  0  0  0  0  0
    4.4598    5.4703   -4.0240 C   0  0  0  0  0  0  0  0  0  0  0  0
    4.1324    6.9348   -3.1968 Cl  0  0  0  0  0  0  0  0  0  0  0  0
    5.0626    4.3522   -3.3913 C   0  0  0  0  0  0  0  0  0  0  0  0
    5.6037    4.3435   -1.7639 Cl  0  0  0  0  0  0  0  0  0  0  0  0
    7.0140    1.5799   -4.4415 C   0  0  0  0  0  0  0  0  0  0  0  0
    7.6626    0.3763   -4.0491 C   0  0  0  0  0  0  0  0  0  0  0  0
    7.0689   -0.4675   -3.0762 C   0  0  0  0  0  0  0  0  0  0  0  0
    7.6886   -1.7054   -2.6594 C   0  0  0  0  0  0  0  0  0  0  0  0
    8.3456   -2.6379   -3.4167 C   0  0  0  0  0  0  0  0  0  0  0  0
    8.8342   -3.7212   -2.6633 C   0  0  0  0  0  0  0  0  0  0  0  0
    8.5616   -3.6226   -1.3312 C   0  0  0  0  0  0  0  0  0  0  0  0
    8.9856   -4.5257   -0.2256 C   0  0  0  0  0  0  0  0  0  0  0  0
   10.1990   -3.9533    0.5115 C   0  0  0  0  0  0  0  0  0  0  0  0
    7.6677   -2.1838   -0.9832 S   0  0  0  0  0  0  0  0  0  0  0  0
    5.8596   -0.0404   -2.5505 C   0  0  0  0  0  0  0  0  0  0  0  0
    4.8730   -0.9466   -1.4395 S   0  0  0  0  0  0  0  0  0  0  0  0
    8.8871    0.2290   -4.7096 C   0  0  0  0  0  0  0  0  0  0  0  0
    9.1751    1.2429   -5.6113 C   0  0  0  0  0  0  0  0  0  0  0  0
    7.9114    2.4582   -5.6432 S   0  0  0  0  0  0  0  0  0  0  0  0
   10.3520    1.2245   -6.3804 C   0  0  0  0  0  0  0  0  0  0  0  0
   10.8125    2.0951   -7.3333 C   0  0  0  0  0  0  0  0  0  0  0  0
   10.1527    3.3366   -7.7653 C   0  0  0  0  0  0  0  0  0  0  0  0
    9.0981    3.7997   -7.3806 O   0  0  0  0  0  0  0  0  0  0  0  0
   11.0444    3.9328   -8.7834 C   0  0  0  0  0  0  0  0  0  0  0  0
   10.8708    5.1065   -9.4876 C   0  0  0  0  0  0  0  0  0  0  0  0
   11.8491    5.4755  -10.4030 C   0  0  0  0  0  0  0  0  0  0  0  0
   11.6968    6.9248  -11.3161 Cl  0  0  0  0  0  0  0  0  0  0  0  0
   12.9657    4.6547  -10.5778 C   0  0  0  0  0  0  0  0  0  0  0  0
   13.9052    5.0162  -11.4597 F   0  0  0  0  0  0  0  0  0  0  0  0
   13.1450    3.4740   -9.8737 C   0  0  0  0  0  0  0  0  0  0  0  0
   12.1672    3.1069   -8.9619 C   0  0  0  0  0  0  0  0  0  0  0  0
   12.0474    1.9471   -8.0802 C   0  0  0  0  0  0  0  0  0  0  0  0
   12.9482    0.9151   -8.0121 C   0  0  0  0  0  0  0  0  0  0  0  0
   12.8413   -0.2279   -7.1924 C   0  0  0  0  0  0  0  0  0  0  0  0
   12.8342   -1.1920   -6.5674 N   0  0  0  0  0  0  0  0  0  0  0  0
   14.1300    0.8474   -8.7807 C   0  0  0  0  0  0  0  0  0  0  0  0
   15.1063    0.7284   -9.3725 N   0  0  0  0  0  0  0  0  0  0  0  0
   -9.4930   -3.5044    7.2307 H   0  0  0  0  0  0  0  0  0  0  0  0
  -13.1041   -1.0273   10.2597 H   0  0  0  0  0  0  0  0  0  0  0  0
  -13.7565    2.7446    8.3178 H   0  0  0  0  0  0  0  0  0  0  0  0
  -12.3501    2.0575    6.4207 H   0  0  0  0  0  0  0  0  0  0  0  0
   -7.6420   -4.3188    5.5849 H   0  0  0  0  0  0  0  0  0  0  0  0
   -4.2608   -8.3582    6.3620 H   0  0  0  0  0  0  0  0  0  0  0  0
   -4.3688   -9.2685    4.8422 H   0  0  0  0  0  0  0  0  0  0  0  0
   -6.7480   -8.3603    6.5390 H   0  0  0  0  0  0  0  0  0  0  0  0
   -6.1199  -10.0086    6.4413 H   0  0  0  0  0  0  0  0  0  0  0  0
   -6.8578   -9.2599    5.0221 H   0  0  0  0  0  0  0  0  0  0  0  0
   -8.0276    1.0701    3.2298 H   0  0  0  0  0  0  0  0  0  0  0  0
   -7.7155    3.6393    3.2265 H   0  0  0  0  0  0  0  0  0  0  0  0
   -5.6962    5.4002    3.0588 H   0  0  0  0  0  0  0  0  0  0  0  0
   -4.0516    4.7532    3.2146 H   0  0  0  0  0  0  0  0  0  0  0  0
   -4.6262    6.1728    5.1676 H   0  0  0  0  0  0  0  0  0  0  0  0
   -6.0160    5.1406    5.5232 H   0  0  0  0  0  0  0  0  0  0  0  0
   -4.3786    4.4967    5.6688 H   0  0  0  0  0  0  0  0  0  0  0  0
   -3.5536    0.2687    1.9533 H   0  0  0  0  0  0  0  0  0  0  0  0
    1.3990   -2.9844    2.6190 H   0  0  0  0  0  0  0  0  0  0  0  0
    3.7585   -3.7125    2.6652 H   0  0  0  0  0  0  0  0  0  0  0  0
    5.3494   -5.6080   -1.4087 H   0  0  0  0  0  0  0  0  0  0  0  0
    5.0458   -7.1562   -0.5497 H   0  0  0  0  0  0  0  0  0  0  0  0
    6.6710   -6.4440   -0.5656 H   0  0  0  0  0  0  0  0  0  0  0  0
    3.0812   -6.0645   -0.8450 H   0  0  0  0  0  0  0  0  0  0  0  0
    0.7601   -5.3395   -0.8877 H   0  0  0  0  0  0  0  0  0  0  0  0
   -2.3445   -3.0162   -0.9863 H   0  0  0  0  0  0  0  0  0  0  0  0
   -4.0014   -4.5783   -1.8318 H   0  0  0  0  0  0  0  0  0  0  0  0
   -5.1728   -6.1345   -3.1019 H   0  0  0  0  0  0  0  0  0  0  0  0
   -6.3901   -7.2707   -2.4828 H   0  0  0  0  0  0  0  0  0  0  0  0
   -6.0632   -5.7713   -1.5859 H   0  0  0  0  0  0  0  0  0  0  0  0
   -2.3792   -7.6605    0.6516 H   0  0  0  0  0  0  0  0  0  0  0  0
   -0.7098   -6.0698    1.5214 H   0  0  0  0  0  0  0  0  0  0  0  0
    1.4075    4.6427   -1.3042 H   0  0  0  0  0  0  0  0  0  0  0  0
    2.9786    6.2752   -0.4186 H   0  0  0  0  0  0  0  0  0  0  0  0
    4.1300    7.9570    0.6969 H   0  0  0  0  0  0  0  0  0  0  0  0
    5.1990    7.1640   -0.5061 H   0  0  0  0  0  0  0  0  0  0  0  0
    5.8956    8.0777    0.8511 H   0  0  0  0  0  0  0  0  0  0  0  0
    4.7902    3.2311    1.9778 H   0  0  0  0  0  0  0  0  0  0  0  0
    3.1743    1.5938    1.1223 H   0  0  0  0  0  0  0  0  0  0  0  0
   -0.2113    3.8721    0.8672 H   0  0  0  0  0  0  0  0  0  0  0  0
   -2.5439    4.5045    0.5187 H   0  0  0  0  0  0  0  0  0  0  0  0
   -4.6904    5.3091    0.1711 H   0  0  0  0  0  0  0  0  0  0  0  0
   -4.8083    3.6424    0.8268 H   0  0  0  0  0  0  0  0  0  0  0  0
   -6.1662    4.3516   -0.0723 H   0  0  0  0  0  0  0  0  0  0  0  0
   -2.7011    2.0306   -2.9663 H   0  0  0  0  0  0  0  0  0  0  0  0
   -0.3391    1.3965   -2.6116 H   0  0  0  0  0  0  0  0  0  0  0  0
    3.3161    2.1726   -2.4766 H   0  0  0  0  0  0  0  0  0  0  0  0
    3.9584    6.0629   -7.2907 H   0  0  0  0  0  0  0  0  0  0  0  0
    3.6861    7.2196   -5.9747 H   0  0  0  0  0  0  0  0  0  0  0  0
    1.5440    6.6004   -7.0810 H   0  0  0  0  0  0  0  0  0  0  0  0
    1.8308    4.8979   -6.7038 H   0  0  0  0  0  0  0  0  0  0  0  0
    1.5533    6.0576   -5.4004 H   0  0  0  0  0  0  0  0  0  0  0  0
    8.4360   -2.5723   -4.4862 H   0  0  0  0  0  0  0  0  0  0  0  0
    9.3727   -4.5460   -3.0956 H   0  0  0  0  0  0  0  0  0  0  0  0
    9.2413   -5.5027   -0.6425 H   0  0  0  0  0  0  0  0  0  0  0  0
    8.1651   -4.6490    0.4850 H   0  0  0  0  0  0  0  0  0  0  0  0
    9.9542   -2.9843    0.9399 H   0  0  0  0  0  0  0  0  0  0  0  0
   10.5005   -4.6221    1.3134 H   0  0  0  0  0  0  0  0  0  0  0  0
   11.0352   -3.8288   -0.1727 H   0  0  0  0  0  0  0  0  0  0  0  0
    9.5697   -0.5828   -4.5334 H   0  0  0  0  0  0  0  0  0  0  0  0
   10.9754    0.3643   -6.1684 H   0  0  0  0  0  0  0  0  0  0  0  0
    9.9972    5.7182   -9.3287 H   0  0  0  0  0  0  0  0  0  0  0  0
   14.0310    2.8890  -10.0583 H   0  0  0  0  0  0  0  0  0  0  0  0
  1  2  2  0  0  0  0
  2  3  1  0  0  0  0
  3  4  2  0  0  0  0
  3  5  1  0  0  0  0
  5  6  2  0  0  0  0
  6  7  1  0  0  0  0
  7  8  1  0  0  0  0
  7  9  2  0  0  0  0
  9 10  1  0  0  0  0
 10 11  2  0  0  0  0
 11 12  1  0  0  0  0
 12 13  2  0  0  0  0
 13 14  1  0  0  0  0
 14 15  3  0  0  0  0
 13 16  1  0  0  0  0
 16 17  3  0  0  0  0
  1 18  1  0  0  0  0
 18 19  2  0  0  0  0
 19 20  1  0  0  0  0
 20 21  2  0  0  0  0
 21 22  1  0  0  0  0
 22 23  1  0  0  0  0
 23 24  1  0  0  0  0
 24 25  1  0  0  0  0
 25 26  1  0  0  0  0
 24 27  2  0  0  0  0
 27 28  1  0  0  0  0
 27 29  1  0  0  0  0
 29 30  1  0  0  0  0
 21 31  1  0  0  0  0
 31 32  2  0  0  0  0
 32 33  1  0  0  0  0
 33 34  1  0  0  0  0
 34 35  2  0  0  0  0
 35 36  1  0  0  0  0
 36 37  2  0  0  0  0
 37 38  1  0  0  0  0
 38 39  1  0  0  0  0
 37 40  1  0  0  0  0
 33 41  2  0  0  0  0
 41 42  1  0  0  0  0
 32 43  1  0  0  0  0
 43 44  2  0  0  0  0
 44 45  1  0  0  0  0
 44 46  1  0  0  0  0
 46 47  2  0  0  0  0
 47 48  1  0  0  0  0
 48 49  1  0  0  0  0
 49 50  2  0  0  0  0
 50 51  1  0  0  0  0
 51 52  2  0  0  0  0
 52 53  1  0  0  0  0
 53 54  1  0  0  0  0
 52 55  1  0  0  0  0
 55 56  2  0  0  0  0
 48 57  1  0  0  0  0
 57 58  2  0  0  0  0
 58 59  1  0  0  0  0
 59 60  2  0  0  0  0
 60 61  1  0  0  0  0
 61 62  1  0  0  0  0
 60 63  1  0  0  0  0
 63 64  2  0  0  0  0
 47 65  1  0  0  0  0
 65 66  1  0  0  0  0
 66 67  1  0  0  0  0
 67 68  2  0  0  0  0
 68 69  1  0  0  0  0
 69 70  1  0  0  0  0
 70 71  2  0  0  0  0
 71 72  1  0  0  0  0
 72 73  2  0  0  0  0
 73 74  1  0  0  0  0
 74 75  1  0  0  0  0
 73 76  1  0  0  0  0
 76 77  2  0  0  0  0
 69 78  1  0  0  0  0
 78 79  2  0  0  0  0
 79 80  1  0  0  0  0
 80 81  2  0  0  0  0
 81 82  1  0  0  0  0
 82 83  1  0  0  0  0
 81 84  1  0  0  0  0
 84 85  2  0  0  0  0
 68 86  1  0  0  0  0
 86 87  1  0  0  0  0
 67 88  1  0  0  0  0
 88 89  2  0  0  0  0
 89 90  1  0  0  0  0
 90 91  2  0  0  0  0
 91 92  1  0  0  0  0
 92 93  1  0  0  0  0
 93 94  1  0  0  0  0
 94 95  1  0  0  0  0
 95 96  1  0  0  0  0
 94 97  2  0  0  0  0
 97 98  1  0  0  0  0
 97 99  1  0  0  0  0
 99100  1  0  0  0  0
 91101  1  0  0  0  0
101102  2  0  0  0  0
102103  1  0  0  0  0
103104  1  0  0  0  0
104105  2  0  0  0  0
105106  1  0  0  0  0
106107  2  0  0  0  0
107108  1  0  0  0  0
108109  1  0  0  0  0
107110  1  0  0  0  0
103111  2  0  0  0  0
111112  1  0  0  0  0
102113  1  0  0  0  0
113114  2  0  0  0  0
114115  1  0  0  0  0
114116  1  0  0  0  0
116117  2  0  0  0  0
117118  1  0  0  0  0
118119  2  0  0  0  0
118120  1  0  0  0  0
120121  2  0  0  0  0
121122  1  0  0  0  0
122123  1  0  0  0  0
122124  2  0  0  0  0
124125  1  0  0  0  0
124126  1  0  0  0  0
126127  2  0  0  0  0
127128  1  0  0  0  0
128129  2  0  0  0  0
129130  1  0  0  0  0
130131  3  0  0  0  0
129132  1  0  0  0  0
132133  3  0  0  0  0
 12  2  1  0  0  0  0
 42 18  1  0  0  0  0
 87 46  1  0  0  0  0
112 88  1  0  0  0  0
128117  1  0  0  0  0
 11  5  1  0  0  0  0
 41 20  1  0  0  0  0
 56 49  1  0  0  0  0
 64 57  1  0  0  0  0
 86 65  2  0  0  0  0
111 90  1  0  0  0  0
127120  1  0  0  0  0
 29 22  2  0  0  0  0
 45 31  1  0  0  0  0
 77 70  1  0  0  0  0
 85 78  1  0  0  0  0
 99 92  2  0  0  0  0
115101  1  0  0  0  0
 40 34  1  0  0  0  0
110104  1  0  0  0  0
  1134  1  0  0  0  0
  6135  1  0  0  0  0
  9136  1  0  0  0  0
 10137  1  0  0  0  0
 19138  1  0  0  0  0
 25139  1  0  0  0  0
 25140  1  0  0  0  0
 26141  1  0  0  0  0
 26142  1  0  0  0  0
 26143  1  0  0  0  0
 35144  1  0  0  0  0
 36145  1  0  0  0  0
 38146  1  0  0  0  0
 38147  1  0  0  0  0
 39148  1  0  0  0  0
 39149  1  0  0  0  0
 39150  1  0  0  0  0
 43151  1  0  0  0  0
 50152  1  0  0  0  0
 51153  1  0  0  0  0
 54154  1  0  0  0  0
 54155  1  0  0  0  0
 54156  1  0  0  0  0
 55157  1  0  0  0  0
 56158  1  0  0  0  0
 58159  1  0  0  0  0
 59160  1  0  0  0  0
 62161  1  0  0  0  0
 62162  1  0  0  0  0
 62163  1  0  0  0  0
 63164  1  0  0  0  0
 64165  1  0  0  0  0
 71166  1  0  0  0  0
 72167  1  0  0  0  0
 75168  1  0  0  0  0
 75169  1  0  0  0  0
 75170  1  0  0  0  0
 76171  1  0  0  0  0
 77172  1  0  0  0  0
 79173  1  0  0  0  0
 80174  1  0  0  0  0
 83175  1  0  0  0  0
 83176  1  0  0  0  0
 83177  1  0  0  0  0
 84178  1  0  0  0  0
 85179  1  0  0  0  0
 89180  1  0  0  0  0
 95181  1  0  0  0  0
 95182  1  0  0  0  0
 96183  1  0  0  0  0
 96184  1  0  0  0  0
 96185  1  0  0  0  0
105186  1  0  0  0  0
106187  1  0  0  0  0
108188  1  0  0  0  0
108189  1  0  0  0  0
109190  1  0  0  0  0
109191  1  0  0  0  0
109192  1  0  0  0  0
113193  1  0  0  0  0
116194  1  0  0  0  0
121195  1  0  0  0  0
126196  1  0  0  0  0
M  END
