
  xtb     02072209453D
 energy: -378.904601677530 gnorm: 0.000768696290 xtb: 6.4.1 (unknown)
230248  0     0  0            999 V2000
    3.6601    5.1421   -2.6447 C   0  0  0  0  0  0  0  0  0  0  0  0
    2.6827    5.7807   -3.6212 C   0  0  0  0  0  0  0  0  0  0  0  0
    1.3059    5.7392   -3.1558 N   0  0  0  0  0  0  0  0  0  0  0  0
    0.4153    4.7718   -3.4859 C   0  0  0  0  0  0  0  0  0  0  0  0
    0.6594    3.5733   -4.1109 C   0  0  0  0  0  0  0  0  0  0  0  0
    1.9124    3.0131   -4.4097 C   0  0  0  0  0  0  0  0  0  0  0  0
    2.8917    2.4610   -4.6451 N   0  0  0  0  0  0  0  0  0  0  0  0
   -0.4230    2.7488   -4.4598 C   0  0  0  0  0  0  0  0  0  0  0  0
   -1.3011    2.0756   -4.7682 N   0  0  0  0  0  0  0  0  0  0  0  0
   -1.2105    5.2001   -3.0029 S   0  0  0  0  0  0  0  0  0  0  0  0
   -0.6321    6.6714   -2.2221 C   0  0  0  0  0  0  0  0  0  0  0  0
    0.8046    6.8120   -2.4239 C   0  0  0  0  0  0  0  0  0  0  0  0
    1.5057    7.7280   -2.0531 O   0  0  0  0  0  0  0  0  0  0  0  0
   -1.4400    7.4599   -1.4678 C   0  0  0  0  0  0  0  0  0  0  0  0
   -2.8707    7.2608   -1.4327 C   0  0  0  0  0  0  0  0  0  0  0  0
   -3.5537    7.4843   -0.3087 C   0  0  0  0  0  0  0  0  0  0  0  0
   -2.7879    7.7550    0.9563 C   0  0  0  0  0  0  0  0  0  0  0  0
   -1.7348    8.8340    0.6559 C   0  0  0  0  0  0  0  0  0  0  0  0
   -0.9169    8.5885   -0.6303 C   0  0  0  0  0  0  0  0  0  0  0  0
   -2.1887    6.4460    1.3957 C   0  0  0  0  0  0  0  0  0  0  0  0
   -2.8284    5.3695    1.9622 C   0  0  0  0  0  0  0  0  0  0  0  0
   -4.1477    5.3669    2.4349 N   0  0  0  0  0  0  0  0  0  0  0  0
   -4.3555    4.9576    3.7536 C   0  0  0  0  0  0  0  0  0  0  0  0
   -3.3971    5.2434    4.7238 C   0  0  0  0  0  0  0  0  0  0  0  0
   -3.5768    4.8558    6.0377 C   0  0  0  0  0  0  0  0  0  0  0  0
   -4.7277    4.1781    6.4106 C   0  0  0  0  0  0  0  0  0  0  0  0
   -5.0852    3.6483    8.0589 S   0  0  0  0  0  0  0  0  0  0  0  0
   -3.6262    4.1608    9.0102 C   0  0  0  0  0  0  0  0  0  0  0  0
   -5.6863    3.8822    5.4436 C   0  0  0  0  0  0  0  0  0  0  0  0
   -5.5030    4.2585    4.1327 C   0  0  0  0  0  0  0  0  0  0  0  0
   -5.1999    5.4443    1.5135 C   0  0  0  0  0  0  0  0  0  0  0  0
   -6.3771    6.1194    1.8409 C   0  0  0  0  0  0  0  0  0  0  0  0
   -7.3994    6.2150    0.9236 C   0  0  0  0  0  0  0  0  0  0  0  0
   -7.2683    5.6486   -0.3444 C   0  0  0  0  0  0  0  0  0  0  0  0
   -8.6362    5.8390   -1.4440 S   0  0  0  0  0  0  0  0  0  0  0  0
   -8.1463    4.8995   -2.9165 C   0  0  0  0  0  0  0  0  0  0  0  0
   -6.0966    4.9840   -0.6765 C   0  0  0  0  0  0  0  0  0  0  0  0
   -5.0757    4.8778    0.2486 C   0  0  0  0  0  0  0  0  0  0  0  0
   -1.9793    4.2310    2.0250 C   0  0  0  0  0  0  0  0  0  0  0  0
   -2.2216    2.5542    2.3712 S   0  0  0  0  0  0  0  0  0  0  0  0
   -0.6140    2.1716    1.7624 C   0  0  0  0  0  0  0  0  0  0  0  0
    0.0670    3.2969    1.3301 C   0  0  0  0  0  0  0  0  0  0  0  0
    1.3183    3.3668    0.7170 N   0  0  0  0  0  0  0  0  0  0  0  0
    2.2902    4.1794    1.3732 C   0  0  0  0  0  0  0  0  0  0  0  0
    2.9269    3.7078    2.5130 C   0  0  0  0  0  0  0  0  0  0  0  0
    3.9065    4.4607    3.1317 C   0  0  0  0  0  0  0  0  0  0  0  0
    4.2519    5.7031    2.6153 C   0  0  0  0  0  0  0  0  0  0  0  0
    5.5011    6.7370    3.3052 S   0  0  0  0  0  0  0  0  0  0  0  0
    6.3251    5.6673    4.5186 C   0  0  0  0  0  0  0  0  0  0  0  0
    3.5879    6.1918    1.4913 C   0  0  0  0  0  0  0  0  0  0  0  0
    2.6163    5.4341    0.8725 C   0  0  0  0  0  0  0  0  0  0  0  0
    1.7131    2.5103   -0.2940 C   0  0  0  0  0  0  0  0  0  0  0  0
    0.7740    1.8019   -1.0502 C   0  0  0  0  0  0  0  0  0  0  0  0
    1.1840    0.8257   -1.9312 C   0  0  0  0  0  0  0  0  0  0  0  0
    2.5376    0.5630   -2.1132 C   0  0  0  0  0  0  0  0  0  0  0  0
    2.9882   -0.8362   -3.0941 S   0  0  0  0  0  0  0  0  0  0  0  0
    4.6754   -1.1799   -2.5137 C   0  0  0  0  0  0  0  0  0  0  0  0
    3.4734    1.3867   -1.5052 C   0  0  0  0  0  0  0  0  0  0  0  0
    3.0647    2.3471   -0.6014 C   0  0  0  0  0  0  0  0  0  0  0  0
   -0.7182    4.4563    1.5089 C   0  0  0  0  0  0  0  0  0  0  0  0
   -0.5283    6.0862    0.9907 S   0  0  0  0  0  0  0  0  0  0  0  0
   -0.1736    0.8150    1.6608 C   0  0  0  0  0  0  0  0  0  0  0  0
   -0.8876   -0.2965    1.2578 C   0  0  0  0  0  0  0  0  0  0  0  0
   -2.2767   -0.3977    1.1374 N   0  0  0  0  0  0  0  0  0  0  0  0
   -2.9586    0.3114    0.1343 C   0  0  0  0  0  0  0  0  0  0  0  0
   -4.2193    0.8530    0.3801 C   0  0  0  0  0  0  0  0  0  0  0  0
   -4.8888    1.5232   -0.6220 C   0  0  0  0  0  0  0  0  0  0  0  0
   -4.3087    1.6700   -1.8803 C   0  0  0  0  0  0  0  0  0  0  0  0
   -5.2308    2.5277   -3.1247 S   0  0  0  0  0  0  0  0  0  0  0  0
   -4.5665    1.8598   -4.6748 C   0  0  0  0  0  0  0  0  0  0  0  0
   -3.0484    1.1445   -2.1255 C   0  0  0  0  0  0  0  0  0  0  0  0
   -2.3875    0.4610   -1.1241 C   0  0  0  0  0  0  0  0  0  0  0  0
   -2.8330   -1.5574    1.6948 C   0  0  0  0  0  0  0  0  0  0  0  0
   -3.8577   -2.2597    1.0687 C   0  0  0  0  0  0  0  0  0  0  0  0
   -4.3228   -3.4487    1.5986 C   0  0  0  0  0  0  0  0  0  0  0  0
   -3.7592   -3.9655    2.7555 C   0  0  0  0  0  0  0  0  0  0  0  0
   -4.2329   -5.5022    3.4894 S   0  0  0  0  0  0  0  0  0  0  0  0
   -5.2219   -6.3073    2.1963 C   0  0  0  0  0  0  0  0  0  0  0  0
   -2.7626   -3.2463    3.4096 C   0  0  0  0  0  0  0  0  0  0  0  0
   -2.3145   -2.0531    2.8939 C   0  0  0  0  0  0  0  0  0  0  0  0
   -0.0254   -1.3973    1.0328 C   0  0  0  0  0  0  0  0  0  0  0  0
   -0.2870   -2.9230    0.2823 S   0  0  0  0  0  0  0  0  0  0  0  0
    1.4168   -3.2694    0.4105 C   0  0  0  0  0  0  0  0  0  0  0  0
    2.1335   -2.2937    1.0885 C   0  0  0  0  0  0  0  0  0  0  0  0
    3.4230   -2.5362    1.5412 N   0  0  0  0  0  0  0  0  0  0  0  0
    4.2583   -1.5179    1.9980 C   0  0  0  0  0  0  0  0  0  0  0  0
    4.3101   -0.2903    1.3384 C   0  0  0  0  0  0  0  0  0  0  0  0
    5.0942    0.7307    1.8273 C   0  0  0  0  0  0  0  0  0  0  0  0
    5.8575    0.5481    2.9758 C   0  0  0  0  0  0  0  0  0  0  0  0
    6.7754    1.9506    3.5385 S   0  0  0  0  0  0  0  0  0  0  0  0
    7.6805    1.3377    4.9885 C   0  0  0  0  0  0  0  0  0  0  0  0
    5.8525   -0.6872    3.6078 C   0  0  0  0  0  0  0  0  0  0  0  0
    5.0600   -1.7088    3.1222 C   0  0  0  0  0  0  0  0  0  0  0  0
    3.7112   -3.8826    1.8911 C   0  0  0  0  0  0  0  0  0  0  0  0
    4.8156   -4.5254    1.3459 C   0  0  0  0  0  0  0  0  0  0  0  0
    5.0217   -5.8752    1.5667 C   0  0  0  0  0  0  0  0  0  0  0  0
    4.1346   -6.5920    2.3583 C   0  0  0  0  0  0  0  0  0  0  0  0
    4.2473   -8.3254    2.6627 S   0  0  0  0  0  0  0  0  0  0  0  0
    5.4801   -8.9106    1.4667 C   0  0  0  0  0  0  0  0  0  0  0  0
    3.0742   -5.9281    2.9739 C   0  0  0  0  0  0  0  0  0  0  0  0
    2.8618   -4.5884    2.7417 C   0  0  0  0  0  0  0  0  0  0  0  0
    1.3002   -1.1848    1.3778 C   0  0  0  0  0  0  0  0  0  0  0  0
    1.5238    0.4342    1.9454 S   0  0  0  0  0  0  0  0  0  0  0  0
    1.9740   -4.4384   -0.2080 C   0  0  0  0  0  0  0  0  0  0  0  0
    3.2240   -4.2539   -1.4084 S   0  0  0  0  0  0  0  0  0  0  0  0
    3.3676   -5.9657   -1.5984 C   0  0  0  0  0  0  0  0  0  0  0  0
    2.5021   -6.6408   -0.7711 C   0  0  0  0  0  0  0  0  0  0  0  0
    2.4975   -8.0945   -0.5797 C   0  0  0  0  0  0  0  0  0  0  0  0
    3.2514   -8.8420   -1.1906 O   0  0  0  0  0  0  0  0  0  0  0  0
    1.5493   -8.5547    0.4333 C   0  0  0  0  0  0  0  0  0  0  0  0
    1.3921   -9.8675    0.8051 C   0  0  0  0  0  0  0  0  0  0  0  0
    2.0874  -11.0775    0.2950 C   0  0  0  0  0  0  0  0  0  0  0  0
    1.3855  -11.6172   -0.9548 C   0  0  0  0  0  0  0  0  0  0  0  0
    0.1453  -10.0315    1.9918 S   0  0  0  0  0  0  0  0  0  0  0  0
   -0.1715   -8.3303    2.0060 C   0  0  0  0  0  0  0  0  0  0  0  0
   -1.2308   -7.7746    2.8875 C   0  0  0  0  0  0  0  0  0  0  0  0
   -0.6480   -7.1998    4.1811 C   0  0  0  0  0  0  0  0  0  0  0  0
    0.6678   -7.6719    1.1429 C   0  0  0  0  0  0  0  0  0  0  0  0
    0.6822   -6.2220    0.9692 C   0  0  0  0  0  0  0  0  0  0  0  0
   -0.0482   -5.4583    1.5809 O   0  0  0  0  0  0  0  0  0  0  0  0
    1.6783   -5.7635   -0.0023 C   0  0  0  0  0  0  0  0  0  0  0  0
    4.2870   -6.5395   -2.6294 C   0  0  0  0  0  0  0  0  0  0  0  0
    5.3726   -5.5819   -3.0061 C   0  0  0  0  0  0  0  0  0  0  0  0
    5.2175   -4.7085   -4.0073 C   0  0  0  0  0  0  0  0  0  0  0  0
    3.9744   -4.5691   -4.7243 C   0  0  0  0  0  0  0  0  0  0  0  0
    3.7180   -3.4489   -5.4478 C   0  0  0  0  0  0  0  0  0  0  0  0
    4.8558   -2.1286   -5.6719 S   0  0  0  0  0  0  0  0  0  0  0  0
    3.6058   -1.1051   -6.3461 C   0  0  0  0  0  0  0  0  0  0  0  0
    3.8827    0.2030   -6.6439 C   0  0  0  0  0  0  0  0  0  0  0  0
    5.1549    0.7191   -6.3199 C   0  0  0  0  0  0  0  0  0  0  0  0
    6.1902    1.1306   -6.0462 N   0  0  0  0  0  0  0  0  0  0  0  0
    3.0163    1.1339   -7.2419 C   0  0  0  0  0  0  0  0  0  0  0  0
    2.3702    1.9327   -7.7562 N   0  0  0  0  0  0  0  0  0  0  0  0
    2.4466   -1.7919   -6.5107 N   0  0  0  0  0  0  0  0  0  0  0  0
    1.2000   -1.1992   -6.9593 C   0  0  0  0  0  0  0  0  0  0  0  0
    0.5143   -0.4607   -5.8177 C   0  0  0  0  0  0  0  0  0  0  0  0
    2.4289   -3.0962   -6.0400 C   0  0  0  0  0  0  0  0  0  0  0  0
    1.4510   -3.8075   -6.1158 O   0  0  0  0  0  0  0  0  0  0  0  0
    2.9364   -5.6396   -4.5650 C   0  0  0  0  0  0  0  0  0  0  0  0
    3.4962   -6.8920   -3.9022 C   0  0  0  0  0  0  0  0  0  0  0  0
    3.3786    4.1149   -2.4258 H   0  0  0  0  0  0  0  0  0  0  0  0
    3.6973    5.7080   -1.7178 H   0  0  0  0  0  0  0  0  0  0  0  0
    4.6502    5.1370   -3.0907 H   0  0  0  0  0  0  0  0  0  0  0  0
    2.7329    5.2862   -4.5937 H   0  0  0  0  0  0  0  0  0  0  0  0
    2.9278    6.8402   -3.7409 H   0  0  0  0  0  0  0  0  0  0  0  0
   -3.3582    6.9290   -2.3387 H   0  0  0  0  0  0  0  0  0  0  0  0
   -4.6262    7.4031   -0.2665 H   0  0  0  0  0  0  0  0  0  0  0  0
   -3.4646    8.1082    1.7411 H   0  0  0  0  0  0  0  0  0  0  0  0
   -1.0511    8.9077    1.5020 H   0  0  0  0  0  0  0  0  0  0  0  0
   -2.2642    9.7841    0.5723 H   0  0  0  0  0  0  0  0  0  0  0  0
   -0.9408    9.4890   -1.2502 H   0  0  0  0  0  0  0  0  0  0  0  0
    0.1326    8.4095   -0.3958 H   0  0  0  0  0  0  0  0  0  0  0  0
   -2.5005    5.7797    4.4487 H   0  0  0  0  0  0  0  0  0  0  0  0
   -2.8114    5.0980    6.7575 H   0  0  0  0  0  0  0  0  0  0  0  0
   -2.7386    3.6705    8.6212 H   0  0  0  0  0  0  0  0  0  0  0  0
   -3.8124    3.8332   10.0283 H   0  0  0  0  0  0  0  0  0  0  0  0
   -3.5250    5.2420    8.9842 H   0  0  0  0  0  0  0  0  0  0  0  0
   -6.5746    3.3427    5.7346 H   0  0  0  0  0  0  0  0  0  0  0  0
   -6.2457    4.0039    3.3924 H   0  0  0  0  0  0  0  0  0  0  0  0
   -6.4804    6.5653    2.8188 H   0  0  0  0  0  0  0  0  0  0  0  0
   -8.3112    6.7350    1.1745 H   0  0  0  0  0  0  0  0  0  0  0  0
   -8.9967    4.9504   -3.5894 H   0  0  0  0  0  0  0  0  0  0  0  0
   -7.2786    5.3575   -3.3815 H   0  0  0  0  0  0  0  0  0  0  0  0
   -7.9422    3.8669   -2.6509 H   0  0  0  0  0  0  0  0  0  0  0  0
   -5.9643    4.5325   -1.6449 H   0  0  0  0  0  0  0  0  0  0  0  0
   -4.1729    4.3479   -0.0176 H   0  0  0  0  0  0  0  0  0  0  0  0
    2.6673    2.7348    2.9033 H   0  0  0  0  0  0  0  0  0  0  0  0
    4.3977    4.0614    4.0031 H   0  0  0  0  0  0  0  0  0  0  0  0
    5.6632    5.4722    5.3575 H   0  0  0  0  0  0  0  0  0  0  0  0
    6.6390    4.7450    4.0383 H   0  0  0  0  0  0  0  0  0  0  0  0
    7.1920    6.2260    4.8575 H   0  0  0  0  0  0  0  0  0  0  0  0
    3.8491    7.1650    1.1052 H   0  0  0  0  0  0  0  0  0  0  0  0
    2.1094    5.8119   -0.0019 H   0  0  0  0  0  0  0  0  0  0  0  0
   -0.2789    2.0029   -0.9191 H   0  0  0  0  0  0  0  0  0  0  0  0
    0.4598    0.2493   -2.4874 H   0  0  0  0  0  0  0  0  0  0  0  0
    4.7103   -1.0855   -1.4328 H   0  0  0  0  0  0  0  0  0  0  0  0
    4.8913   -2.2054   -2.7968 H   0  0  0  0  0  0  0  0  0  0  0  0
    5.3793   -0.5052   -2.9937 H   0  0  0  0  0  0  0  0  0  0  0  0
    4.5256    1.2808   -1.7143 H   0  0  0  0  0  0  0  0  0  0  0  0
    3.8026    2.9587   -0.1062 H   0  0  0  0  0  0  0  0  0  0  0  0
   -4.6690    0.7321    1.3538 H   0  0  0  0  0  0  0  0  0  0  0  0
   -5.8676    1.9387   -0.4378 H   0  0  0  0  0  0  0  0  0  0  0  0
   -5.2361    2.2085   -5.4551 H   0  0  0  0  0  0  0  0  0  0  0  0
   -4.5793    0.7752   -4.6273 H   0  0  0  0  0  0  0  0  0  0  0  0
   -3.5617    2.2311   -4.8520 H   0  0  0  0  0  0  0  0  0  0  0  0
   -2.5769    1.2498   -3.0894 H   0  0  0  0  0  0  0  0  0  0  0  0
   -1.4289    0.0073   -1.3222 H   0  0  0  0  0  0  0  0  0  0  0  0
   -4.2810   -1.8859    0.1483 H   0  0  0  0  0  0  0  0  0  0  0  0
   -5.1137   -3.9697    1.0826 H   0  0  0  0  0  0  0  0  0  0  0  0
   -6.1689   -5.7906    2.0689 H   0  0  0  0  0  0  0  0  0  0  0  0
   -5.4016   -7.3182    2.5485 H   0  0  0  0  0  0  0  0  0  0  0  0
   -4.6578   -6.3308    1.2685 H   0  0  0  0  0  0  0  0  0  0  0  0
   -2.3423   -3.6401    4.3220 H   0  0  0  0  0  0  0  0  0  0  0  0
   -1.5426   -1.5018    3.4103 H   0  0  0  0  0  0  0  0  0  0  0  0
    3.7317   -0.1377    0.4416 H   0  0  0  0  0  0  0  0  0  0  0  0
    5.1213    1.6841    1.3243 H   0  0  0  0  0  0  0  0  0  0  0  0
    8.2678    2.1779    5.3464 H   0  0  0  0  0  0  0  0  0  0  0  0
    6.9813    1.0224    5.7578 H   0  0  0  0  0  0  0  0  0  0  0  0
    8.3401    0.5257    4.6964 H   0  0  0  0  0  0  0  0  0  0  0  0
    6.4469   -0.8684    4.4889 H   0  0  0  0  0  0  0  0  0  0  0  0
    5.0477   -2.6603    3.6331 H   0  0  0  0  0  0  0  0  0  0  0  0
    5.4983   -3.9691    0.7202 H   0  0  0  0  0  0  0  0  0  0  0  0
    5.8672   -6.3581    1.1036 H   0  0  0  0  0  0  0  0  0  0  0  0
    5.1500   -8.6841    0.4571 H   0  0  0  0  0  0  0  0  0  0  0  0
    5.5269   -9.9863    1.6052 H   0  0  0  0  0  0  0  0  0  0  0  0
    6.4507   -8.4729    1.6795 H   0  0  0  0  0  0  0  0  0  0  0  0
    2.4144   -6.4834    3.6223 H   0  0  0  0  0  0  0  0  0  0  0  0
    2.0152   -4.0892    3.1884 H   0  0  0  0  0  0  0  0  0  0  0  0
    2.0964  -11.8452    1.0712 H   0  0  0  0  0  0  0  0  0  0  0  0
    3.1136  -10.8142    0.0354 H   0  0  0  0  0  0  0  0  0  0  0  0
    1.8826  -12.5202   -1.2984 H   0  0  0  0  0  0  0  0  0  0  0  0
    0.3448  -11.8502   -0.7390 H   0  0  0  0  0  0  0  0  0  0  0  0
    1.4244  -10.8762   -1.7491 H   0  0  0  0  0  0  0  0  0  0  0  0
   -1.7414   -6.9663    2.3604 H   0  0  0  0  0  0  0  0  0  0  0  0
   -1.9504   -8.5591    3.1289 H   0  0  0  0  0  0  0  0  0  0  0  0
   -1.4583   -6.8633    4.8217 H   0  0  0  0  0  0  0  0  0  0  0  0
   -0.0640   -7.9504    4.7100 H   0  0  0  0  0  0  0  0  0  0  0  0
   -0.0155   -6.3477    3.9486 H   0  0  0  0  0  0  0  0  0  0  0  0
    4.7093   -7.4632   -2.2188 H   0  0  0  0  0  0  0  0  0  0  0  0
    6.2885   -5.6075   -2.4348 H   0  0  0  0  0  0  0  0  0  0  0  0
    6.0121   -4.0210   -4.2657 H   0  0  0  0  0  0  0  0  0  0  0  0
    0.5761   -2.0314   -7.2963 H   0  0  0  0  0  0  0  0  0  0  0  0
    1.3987   -0.5309   -7.7979 H   0  0  0  0  0  0  0  0  0  0  0  0
    0.2858   -1.1535   -5.0111 H   0  0  0  0  0  0  0  0  0  0  0  0
    1.1554    0.3266   -5.4272 H   0  0  0  0  0  0  0  0  0  0  0  0
   -0.4079   -0.0079   -6.1687 H   0  0  0  0  0  0  0  0  0  0  0  0
    2.5194   -5.8881   -5.5426 H   0  0  0  0  0  0  0  0  0  0  0  0
    2.1052   -5.2323   -3.9814 H   0  0  0  0  0  0  0  0  0  0  0  0
    2.6878   -7.5797   -3.6549 H   0  0  0  0  0  0  0  0  0  0  0  0
    4.1764   -7.3991   -4.5891 H   0  0  0  0  0  0  0  0  0  0  0  0
  1  2  1  0  0  0  0
  2  3  1  0  0  0  0
  3  4  1  0  0  0  0
  4  5  2  0  0  0  0
  5  6  1  0  0  0  0
  6  7  3  0  0  0  0
  5  8  1  0  0  0  0
  8  9  3  0  0  0  0
  4 10  1  0  0  0  0
 10 11  1  0  0  0  0
 11 12  1  0  0  0  0
 12 13  2  0  0  0  0
 11 14  2  0  0  0  0
 14 15  1  0  0  0  0
 15 16  2  0  0  0  0
 16 17  1  0  0  0  0
 17 18  1  0  0  0  0
 18 19  1  0  0  0  0
 17 20  1  0  0  0  0
 20 21  2  0  0  0  0
 21 22  1  0  0  0  0
 22 23  1  0  0  0  0
 23 24  2  0  0  0  0
 24 25  1  0  0  0  0
 25 26  2  0  0  0  0
 26 27  1  0  0  0  0
 27 28  1  0  0  0  0
 26 29  1  0  0  0  0
 29 30  2  0  0  0  0
 22 31  1  0  0  0  0
 31 32  2  0  0  0  0
 32 33  1  0  0  0  0
 33 34  2  0  0  0  0
 34 35  1  0  0  0  0
 35 36  1  0  0  0  0
 34 37  1  0  0  0  0
 37 38  2  0  0  0  0
 21 39  1  0  0  0  0
 39 40  1  0  0  0  0
 40 41  1  0  0  0  0
 41 42  2  0  0  0  0
 42 43  1  0  0  0  0
 43 44  1  0  0  0  0
 44 45  2  0  0  0  0
 45 46  1  0  0  0  0
 46 47  2  0  0  0  0
 47 48  1  0  0  0  0
 48 49  1  0  0  0  0
 47 50  1  0  0  0  0
 50 51  2  0  0  0  0
 43 52  1  0  0  0  0
 52 53  2  0  0  0  0
 53 54  1  0  0  0  0
 54 55  2  0  0  0  0
 55 56  1  0  0  0  0
 56 57  1  0  0  0  0
 55 58  1  0  0  0  0
 58 59  2  0  0  0  0
 42 60  1  0  0  0  0
 60 61  1  0  0  0  0
 41 62  1  0  0  0  0
 62 63  2  0  0  0  0
 63 64  1  0  0  0  0
 64 65  1  0  0  0  0
 65 66  2  0  0  0  0
 66 67  1  0  0  0  0
 67 68  2  0  0  0  0
 68 69  1  0  0  0  0
 69 70  1  0  0  0  0
 68 71  1  0  0  0  0
 71 72  2  0  0  0  0
 64 73  1  0  0  0  0
 73 74  2  0  0  0  0
 74 75  1  0  0  0  0
 75 76  2  0  0  0  0
 76 77  1  0  0  0  0
 77 78  1  0  0  0  0
 76 79  1  0  0  0  0
 79 80  2  0  0  0  0
 63 81  1  0  0  0  0
 81 82  1  0  0  0  0
 82 83  1  0  0  0  0
 83 84  2  0  0  0  0
 84 85  1  0  0  0  0
 85 86  1  0  0  0  0
 86 87  2  0  0  0  0
 87 88  1  0  0  0  0
 88 89  2  0  0  0  0
 89 90  1  0  0  0  0
 90 91  1  0  0  0  0
 89 92  1  0  0  0  0
 92 93  2  0  0  0  0
 85 94  1  0  0  0  0
 94 95  2  0  0  0  0
 95 96  1  0  0  0  0
 96 97  2  0  0  0  0
 97 98  1  0  0  0  0
 98 99  1  0  0  0  0
 97100  1  0  0  0  0
100101  2  0  0  0  0
 84102  1  0  0  0  0
102103  1  0  0  0  0
 83104  1  0  0  0  0
104105  1  0  0  0  0
105106  1  0  0  0  0
106107  2  0  0  0  0
107108  1  0  0  0  0
108109  2  0  0  0  0
108110  1  0  0  0  0
110111  2  0  0  0  0
111112  1  0  0  0  0
112113  1  0  0  0  0
111114  1  0  0  0  0
114115  1  0  0  0  0
115116  1  0  0  0  0
116117  1  0  0  0  0
115118  2  0  0  0  0
118119  1  0  0  0  0
119120  2  0  0  0  0
119121  1  0  0  0  0
106122  1  0  0  0  0
122123  1  0  0  0  0
123124  2  0  0  0  0
124125  1  0  0  0  0
125126  2  0  0  0  0
126127  1  0  0  0  0
127128  1  0  0  0  0
128129  2  0  0  0  0
129130  1  0  0  0  0
130131  3  0  0  0  0
129132  1  0  0  0  0
132133  3  0  0  0  0
128134  1  0  0  0  0
134135  1  0  0  0  0
135136  1  0  0  0  0
134137  1  0  0  0  0
137138  2  0  0  0  0
125139  1  0  0  0  0
139140  1  0  0  0  0
 12  3  1  0  0  0  0
 19 14  1  0  0  0  0
 61 20  1  0  0  0  0
103 62  1  0  0  0  0
121104  2  0  0  0  0
140122  1  0  0  0  0
 30 23  1  0  0  0  0
 38 31  1  0  0  0  0
 60 39  2  0  0  0  0
 72 65  1  0  0  0  0
 80 73  1  0  0  0  0
102 81  2  0  0  0  0
121107  1  0  0  0  0
137126  1  0  0  0  0
 51 44  1  0  0  0  0
 59 52  1  0  0  0  0
 93 86  1  0  0  0  0
101 94  1  0  0  0  0
118110  1  0  0  0  0
  1141  1  0  0  0  0
  1142  1  0  0  0  0
  1143  1  0  0  0  0
  2144  1  0  0  0  0
  2145  1  0  0  0  0
 15146  1  0  0  0  0
 16147  1  0  0  0  0
 17148  1  0  0  0  0
 18149  1  0  0  0  0
 18150  1  0  0  0  0
 19151  1  0  0  0  0
 19152  1  0  0  0  0
 24153  1  0  0  0  0
 25154  1  0  0  0  0
 28155  1  0  0  0  0
 28156  1  0  0  0  0
 28157  1  0  0  0  0
 29158  1  0  0  0  0
 30159  1  0  0  0  0
 32160  1  0  0  0  0
 33161  1  0  0  0  0
 36162  1  0  0  0  0
 36163  1  0  0  0  0
 36164  1  0  0  0  0
 37165  1  0  0  0  0
 38166  1  0  0  0  0
 45167  1  0  0  0  0
 46168  1  0  0  0  0
 49169  1  0  0  0  0
 49170  1  0  0  0  0
 49171  1  0  0  0  0
 50172  1  0  0  0  0
 51173  1  0  0  0  0
 53174  1  0  0  0  0
 54175  1  0  0  0  0
 57176  1  0  0  0  0
 57177  1  0  0  0  0
 57178  1  0  0  0  0
 58179  1  0  0  0  0
 59180  1  0  0  0  0
 66181  1  0  0  0  0
 67182  1  0  0  0  0
 70183  1  0  0  0  0
 70184  1  0  0  0  0
 70185  1  0  0  0  0
 71186  1  0  0  0  0
 72187  1  0  0  0  0
 74188  1  0  0  0  0
 75189  1  0  0  0  0
 78190  1  0  0  0  0
 78191  1  0  0  0  0
 78192  1  0  0  0  0
 79193  1  0  0  0  0
 80194  1  0  0  0  0
 87195  1  0  0  0  0
 88196  1  0  0  0  0
 91197  1  0  0  0  0
 91198  1  0  0  0  0
 91199  1  0  0  0  0
 92200  1  0  0  0  0
 93201  1  0  0  0  0
 95202  1  0  0  0  0
 96203  1  0  0  0  0
 99204  1  0  0  0  0
 99205  1  0  0  0  0
 99206  1  0  0  0  0
100207  1  0  0  0  0
101208  1  0  0  0  0
112209  1  0  0  0  0
112210  1  0  0  0  0
113211  1  0  0  0  0
113212  1  0  0  0  0
113213  1  0  0  0  0
116214  1  0  0  0  0
116215  1  0  0  0  0
117216  1  0  0  0  0
117217  1  0  0  0  0
117218  1  0  0  0  0
122219  1  0  0  0  0
123220  1  0  0  0  0
124221  1  0  0  0  0
135222  1  0  0  0  0
135223  1  0  0  0  0
136224  1  0  0  0  0
136225  1  0  0  0  0
136226  1  0  0  0  0
139227  1  0  0  0  0
139228  1  0  0  0  0
140229  1  0  0  0  0
140230  1  0  0  0  0
M  END
