
  xtb     02062216183D
 energy: -367.067019920836 gnorm: 0.000246131123 xtb: 6.4.1 (unknown)
220237  0     0  0            999 V2000
    2.0936    1.6714    9.5597 C   0  0  0  0  0  0  0  0  0  0  0  0
    3.3551    2.4539    9.8962 C   0  0  0  0  0  0  0  0  0  0  0  0
    4.0631    2.8893    8.7045 N   0  0  0  0  0  0  0  0  0  0  0  0
    3.7955    4.0226    8.0103 C   0  0  0  0  0  0  0  0  0  0  0  0
    2.8038    4.9509    8.2117 C   0  0  0  0  0  0  0  0  0  0  0  0
    2.6877    6.0118    7.2911 C   0  0  0  0  0  0  0  0  0  0  0  0
    2.5870    6.8513    6.5147 N   0  0  0  0  0  0  0  0  0  0  0  0
    1.8485    4.9552    9.2420 C   0  0  0  0  0  0  0  0  0  0  0  0
    1.0456    5.0229   10.0602 N   0  0  0  0  0  0  0  0  0  0  0  0
    4.9297    4.2545    6.6985 S   0  0  0  0  0  0  0  0  0  0  0  0
    5.6987    2.7095    7.0389 C   0  0  0  0  0  0  0  0  0  0  0  0
    5.0741    2.0765    8.1945 C   0  0  0  0  0  0  0  0  0  0  0  0
    5.3770    1.0218    8.7042 O   0  0  0  0  0  0  0  0  0  0  0  0
    6.7250    2.2501    6.2781 C   0  0  0  0  0  0  0  0  0  0  0  0
    7.2474    0.9128    6.4045 C   0  0  0  0  0  0  0  0  0  0  0  0
    7.7699    0.2987    5.3364 C   0  0  0  0  0  0  0  0  0  0  0  0
    7.8306    1.0193    4.0177 C   0  0  0  0  0  0  0  0  0  0  0  0
    8.3169    2.4391    4.3403 C   0  0  0  0  0  0  0  0  0  0  0  0
    7.2932    3.1457    5.2172 C   0  0  0  0  0  0  0  0  0  0  0  0
    6.4687    0.9721    3.3745 C   0  0  0  0  0  0  0  0  0  0  0  0
    5.9140    1.7517    2.3883 C   0  0  0  0  0  0  0  0  0  0  0  0
    6.4671    2.8904    1.7967 N   0  0  0  0  0  0  0  0  0  0  0  0
    5.6681    4.0441    1.7770 C   0  0  0  0  0  0  0  0  0  0  0  0
    5.7471    4.9754    0.7407 C   0  0  0  0  0  0  0  0  0  0  0  0
    4.9804    6.1186    0.7722 C   0  0  0  0  0  0  0  0  0  0  0  0
    4.1021    6.3640    1.8275 C   0  0  0  0  0  0  0  0  0  0  0  0
    3.2037    7.8795    1.7838 S   0  0  0  0  0  0  0  0  0  0  0  0
    2.1415    7.8078    3.2536 C   0  0  0  0  0  0  0  0  0  0  0  0
    3.9821    5.4196    2.8368 C   0  0  0  0  0  0  0  0  0  0  0  0
    4.7546    4.2757    2.8048 C   0  0  0  0  0  0  0  0  0  0  0  0
    7.7133    2.8156    1.1757 C   0  0  0  0  0  0  0  0  0  0  0  0
    8.1599    1.6061    0.6478 C   0  0  0  0  0  0  0  0  0  0  0  0
    9.4070    1.5020    0.0620 C   0  0  0  0  0  0  0  0  0  0  0  0
   10.2346    2.6125   -0.0152 C   0  0  0  0  0  0  0  0  0  0  0  0
   11.8474    2.6051   -0.7364 S   0  0  0  0  0  0  0  0  0  0  0  0
   11.9691    0.9688   -1.5132 C   0  0  0  0  0  0  0  0  0  0  0  0
    9.7976    3.8246    0.5170 C   0  0  0  0  0  0  0  0  0  0  0  0
    8.5602    3.9270    1.1100 C   0  0  0  0  0  0  0  0  0  0  0  0
    4.6046    1.3064    2.0563 C   0  0  0  0  0  0  0  0  0  0  0  0
    3.4238    1.8035    0.9030 S   0  0  0  0  0  0  0  0  0  0  0  0
    2.3375    0.5449    1.4456 C   0  0  0  0  0  0  0  0  0  0  0  0
    2.8641   -0.2086    2.4710 C   0  0  0  0  0  0  0  0  0  0  0  0
    2.2201   -1.2698    3.1373 N   0  0  0  0  0  0  0  0  0  0  0  0
    1.5614   -0.9763    4.3266 C   0  0  0  0  0  0  0  0  0  0  0  0
    0.6298   -1.8514    4.8825 C   0  0  0  0  0  0  0  0  0  0  0  0
   -0.0522   -1.5325    6.0399 C   0  0  0  0  0  0  0  0  0  0  0  0
    0.1586   -0.3138    6.6663 C   0  0  0  0  0  0  0  0  0  0  0  0
   -0.7226    0.2209    8.1060 S   0  0  0  0  0  0  0  0  0  0  0  0
   -1.5184   -1.2983    8.7010 C   0  0  0  0  0  0  0  0  0  0  0  0
    1.0727    0.5755    6.1109 C   0  0  0  0  0  0  0  0  0  0  0  0
    1.7681    0.2491    4.9685 C   0  0  0  0  0  0  0  0  0  0  0  0
    2.3744   -2.5589    2.6148 C   0  0  0  0  0  0  0  0  0  0  0  0
    2.4191   -2.7586    1.2368 C   0  0  0  0  0  0  0  0  0  0  0  0
    2.5438   -4.0258    0.6986 C   0  0  0  0  0  0  0  0  0  0  0  0
    2.6337   -5.1309    1.5315 C   0  0  0  0  0  0  0  0  0  0  0  0
    2.7318   -6.7991    0.9595 S   0  0  0  0  0  0  0  0  0  0  0  0
    2.8349   -6.6380   -0.8448 C   0  0  0  0  0  0  0  0  0  0  0  0
    2.6490   -4.9347    2.9119 C   0  0  0  0  0  0  0  0  0  0  0  0
    2.5353   -3.6709    3.4466 C   0  0  0  0  0  0  0  0  0  0  0  0
    4.1739    0.2184    2.7914 C   0  0  0  0  0  0  0  0  0  0  0  0
    5.3927   -0.3131    3.8946 S   0  0  0  0  0  0  0  0  0  0  0  0
    1.0931    0.3043    0.7378 C   0  0  0  0  0  0  0  0  0  0  0  0
   -0.1323    0.0325    1.3796 C   0  0  0  0  0  0  0  0  0  0  0  0
   -0.4696    0.0768    2.6748 N   0  0  0  0  0  0  0  0  0  0  0  0
   -1.7350   -0.2174    2.6908 N   0  0  0  0  0  0  0  0  0  0  0  0
   -2.4820   -0.2540    3.9155 C   0  0  0  0  0  0  0  0  0  0  0  0
   -2.4028    1.0886    4.6291 C   0  0  0  0  0  0  0  0  0  0  0  0
   -2.3010   -0.4617    1.5442 N   0  0  0  0  0  0  0  0  0  0  0  0
   -1.3123   -0.3156    0.6504 C   0  0  0  0  0  0  0  0  0  0  0  0
   -1.3037   -0.4380   -0.7487 C   0  0  0  0  0  0  0  0  0  0  0  0
   -0.1059   -0.1241   -1.3552 C   0  0  0  0  0  0  0  0  0  0  0  0
    1.0470    0.2485   -0.6434 C   0  0  0  0  0  0  0  0  0  0  0  0
    2.1606    0.4766   -1.3638 F   0  0  0  0  0  0  0  0  0  0  0  0
   -0.0030   -0.2216   -2.6934 F   0  0  0  0  0  0  0  0  0  0  0  0
   -2.4093   -0.9266   -1.5733 C   0  0  0  0  0  0  0  0  0  0  0  0
   -2.6361   -2.2475   -1.8732 C   0  0  0  0  0  0  0  0  0  0  0  0
   -1.9772   -3.3127   -1.2553 N   0  0  0  0  0  0  0  0  0  0  0  0
   -2.0710   -3.4403    0.1330 C   0  0  0  0  0  0  0  0  0  0  0  0
   -0.9815   -3.8725    0.8882 C   0  0  0  0  0  0  0  0  0  0  0  0
   -1.0940   -4.0173    2.2527 C   0  0  0  0  0  0  0  0  0  0  0  0
   -2.2910   -3.7153    2.8949 C   0  0  0  0  0  0  0  0  0  0  0  0
   -2.3383   -3.8989    4.6558 S   0  0  0  0  0  0  0  0  0  0  0  0
   -4.1121   -4.0807    5.0087 C   0  0  0  0  0  0  0  0  0  0  0  0
   -3.3724   -3.2637    2.1527 C   0  0  0  0  0  0  0  0  0  0  0  0
   -3.2641   -3.1346    0.7832 C   0  0  0  0  0  0  0  0  0  0  0  0
   -1.2573   -4.2162   -2.0379 C   0  0  0  0  0  0  0  0  0  0  0  0
   -0.6822   -3.8057   -3.2382 C   0  0  0  0  0  0  0  0  0  0  0  0
    0.0371   -4.6917   -4.0185 C   0  0  0  0  0  0  0  0  0  0  0  0
    0.1977   -6.0072   -3.6095 C   0  0  0  0  0  0  0  0  0  0  0  0
    1.1288   -7.2243   -4.4921 S   0  0  0  0  0  0  0  0  0  0  0  0
    1.7416   -6.3350   -5.9504 C   0  0  0  0  0  0  0  0  0  0  0  0
   -0.3945   -6.4284   -2.4191 C   0  0  0  0  0  0  0  0  0  0  0  0
   -1.1168   -5.5493   -1.6453 C   0  0  0  0  0  0  0  0  0  0  0  0
   -3.6061   -2.3749   -2.8986 C   0  0  0  0  0  0  0  0  0  0  0  0
   -4.2980   -3.6877   -3.7771 S   0  0  0  0  0  0  0  0  0  0  0  0
   -5.2578   -2.5868   -4.7411 C   0  0  0  0  0  0  0  0  0  0  0  0
   -5.0696   -1.2739   -4.3781 C   0  0  0  0  0  0  0  0  0  0  0  0
   -5.6649   -0.1272   -4.9432 N   0  0  0  0  0  0  0  0  0  0  0  0
   -6.9840    0.1857   -4.6551 C   0  0  0  0  0  0  0  0  0  0  0  0
   -7.6893    1.1217   -5.4175 C   0  0  0  0  0  0  0  0  0  0  0  0
   -9.0270    1.3553   -5.1850 C   0  0  0  0  0  0  0  0  0  0  0  0
   -9.7035    0.6455   -4.2058 C   0  0  0  0  0  0  0  0  0  0  0  0
  -11.4596    0.8769   -4.0099 S   0  0  0  0  0  0  0  0  0  0  0  0
  -11.9991   -0.6974   -4.7541 C   0  0  0  0  0  0  0  0  0  0  0  0
   -9.0093   -0.2488   -3.4073 C   0  0  0  0  0  0  0  0  0  0  0  0
   -7.6636   -0.4703   -3.6215 C   0  0  0  0  0  0  0  0  0  0  0  0
   -4.7828    0.7880   -5.5507 C   0  0  0  0  0  0  0  0  0  0  0  0
   -3.7216    0.3094   -6.3183 C   0  0  0  0  0  0  0  0  0  0  0  0
   -2.8926    1.1808   -6.9882 C   0  0  0  0  0  0  0  0  0  0  0  0
   -3.1019    2.5555   -6.9142 C   0  0  0  0  0  0  0  0  0  0  0  0
   -2.0267    3.5840   -7.8563 S   0  0  0  0  0  0  0  0  0  0  0  0
   -2.9275    5.1569   -7.9506 C   0  0  0  0  0  0  0  0  0  0  0  0
   -4.1087    3.0398   -6.0891 C   0  0  0  0  0  0  0  0  0  0  0  0
   -4.9266    2.1651   -5.4017 C   0  0  0  0  0  0  0  0  0  0  0  0
   -4.1119   -1.1640   -3.3340 C   0  0  0  0  0  0  0  0  0  0  0  0
   -3.4074    0.1700   -2.4920 S   0  0  0  0  0  0  0  0  0  0  0  0
   -6.0140   -3.1778   -5.9041 C   0  0  0  0  0  0  0  0  0  0  0  0
   -5.3866   -2.5833   -7.1300 C   0  0  0  0  0  0  0  0  0  0  0  0
   -6.0245   -1.7486   -7.9505 C   0  0  0  0  0  0  0  0  0  0  0  0
   -7.4406   -1.5200   -7.8055 C   0  0  0  0  0  0  0  0  0  0  0  0
   -8.0058   -0.3524   -8.1890 C   0  0  0  0  0  0  0  0  0  0  0  0
   -7.0374    0.9883   -8.8031 S   0  0  0  0  0  0  0  0  0  0  0  0
   -8.4291    2.0462   -8.7777 C   0  0  0  0  0  0  0  0  0  0  0  0
   -8.2689    3.3858   -9.0300 C   0  0  0  0  0  0  0  0  0  0  0  0
   -6.9670    3.8983   -9.1977 C   0  0  0  0  0  0  0  0  0  0  0  0
   -5.9098    4.3350   -9.2907 N   0  0  0  0  0  0  0  0  0  0  0  0
   -9.2798    4.3596   -9.1069 C   0  0  0  0  0  0  0  0  0  0  0  0
  -10.0526    5.2038   -9.2000 N   0  0  0  0  0  0  0  0  0  0  0  0
   -9.5629    1.3757   -8.4454 N   0  0  0  0  0  0  0  0  0  0  0  0
  -10.8919    1.9601   -8.4231 C   0  0  0  0  0  0  0  0  0  0  0  0
  -11.4973    2.0204   -9.8196 C   0  0  0  0  0  0  0  0  0  0  0  0
   -9.4047    0.0453   -8.0825 C   0  0  0  0  0  0  0  0  0  0  0  0
  -10.3348   -0.6437   -7.7198 O   0  0  0  0  0  0  0  0  0  0  0  0
   -8.1745   -2.6590   -7.1748 C   0  0  0  0  0  0  0  0  0  0  0  0
   -7.5352   -2.9619   -5.8171 C   0  0  0  0  0  0  0  0  0  0  0  0
    1.3663    2.2921    9.0428 H   0  0  0  0  0  0  0  0  0  0  0  0
    2.3372    0.8138    8.9373 H   0  0  0  0  0  0  0  0  0  0  0  0
    1.6362    1.3163   10.4778 H   0  0  0  0  0  0  0  0  0  0  0  0
    3.1229    3.3264   10.5092 H   0  0  0  0  0  0  0  0  0  0  0  0
    4.0542    1.8072   10.4343 H   0  0  0  0  0  0  0  0  0  0  0  0
    7.1209    0.4062    7.3480 H   0  0  0  0  0  0  0  0  0  0  0  0
    8.1176   -0.7205    5.3921 H   0  0  0  0  0  0  0  0  0  0  0  0
    8.5530    0.5350    3.3481 H   0  0  0  0  0  0  0  0  0  0  0  0
    8.5026    3.0157    3.4376 H   0  0  0  0  0  0  0  0  0  0  0  0
    9.2644    2.3449    4.8758 H   0  0  0  0  0  0  0  0  0  0  0  0
    7.7500    4.0119    5.7055 H   0  0  0  0  0  0  0  0  0  0  0  0
    6.4788    3.5370    4.6026 H   0  0  0  0  0  0  0  0  0  0  0  0
    6.4064    4.7947   -0.0943 H   0  0  0  0  0  0  0  0  0  0  0  0
    5.0497    6.8386   -0.0285 H   0  0  0  0  0  0  0  0  0  0  0  0
    1.4573    6.9682    3.1727 H   0  0  0  0  0  0  0  0  0  0  0  0
    2.7391    7.7421    4.1577 H   0  0  0  0  0  0  0  0  0  0  0  0
    1.5820    8.7381    3.2502 H   0  0  0  0  0  0  0  0  0  0  0  0
    3.3033    5.5638    3.6616 H   0  0  0  0  0  0  0  0  0  0  0  0
    4.6307    3.5498    3.5962 H   0  0  0  0  0  0  0  0  0  0  0  0
    7.5178    0.7384    0.6863 H   0  0  0  0  0  0  0  0  0  0  0  0
    9.7146    0.5480   -0.3353 H   0  0  0  0  0  0  0  0  0  0  0  0
   12.9147    0.9690   -2.0463 H   0  0  0  0  0  0  0  0  0  0  0  0
   11.9761    0.1913   -0.7546 H   0  0  0  0  0  0  0  0  0  0  0  0
   11.1501    0.8320   -2.2131 H   0  0  0  0  0  0  0  0  0  0  0  0
   10.4479    4.6841    0.4656 H   0  0  0  0  0  0  0  0  0  0  0  0
    8.2436    4.8688    1.5326 H   0  0  0  0  0  0  0  0  0  0  0  0
    0.4000   -2.7842    4.3947 H   0  0  0  0  0  0  0  0  0  0  0  0
   -0.7591   -2.2482    6.4276 H   0  0  0  0  0  0  0  0  0  0  0  0
   -1.9579   -1.0422    9.6599 H   0  0  0  0  0  0  0  0  0  0  0  0
   -0.7712   -2.0755    8.8297 H   0  0  0  0  0  0  0  0  0  0  0  0
   -2.2968   -1.6132    8.0118 H   0  0  0  0  0  0  0  0  0  0  0  0
    1.2263    1.5354    6.5808 H   0  0  0  0  0  0  0  0  0  0  0  0
    2.4655    0.9654    4.5636 H   0  0  0  0  0  0  0  0  0  0  0  0
    2.3485   -1.9189    0.5649 H   0  0  0  0  0  0  0  0  0  0  0  0
    2.5610   -4.1314   -0.3749 H   0  0  0  0  0  0  0  0  0  0  0  0
    2.9321   -7.6500   -1.2253 H   0  0  0  0  0  0  0  0  0  0  0  0
    1.9256   -6.1893   -1.2354 H   0  0  0  0  0  0  0  0  0  0  0  0
    3.7124   -6.0573   -1.1141 H   0  0  0  0  0  0  0  0  0  0  0  0
    2.7602   -5.7903    3.5604 H   0  0  0  0  0  0  0  0  0  0  0  0
    2.5830   -3.5372    4.5162 H   0  0  0  0  0  0  0  0  0  0  0  0
   -3.5072   -0.5084    3.6430 H   0  0  0  0  0  0  0  0  0  0  0  0
   -2.0538   -1.0366    4.5490 H   0  0  0  0  0  0  0  0  0  0  0  0
   -1.3623    1.3397    4.8157 H   0  0  0  0  0  0  0  0  0  0  0  0
   -2.8552    1.8722    4.0261 H   0  0  0  0  0  0  0  0  0  0  0  0
   -2.9233    1.0338    5.5805 H   0  0  0  0  0  0  0  0  0  0  0  0
   -0.0448   -4.0965    0.4025 H   0  0  0  0  0  0  0  0  0  0  0  0
   -0.2502   -4.3717    2.8243 H   0  0  0  0  0  0  0  0  0  0  0  0
   -4.1759   -4.4435    6.0298 H   0  0  0  0  0  0  0  0  0  0  0  0
   -4.5410   -4.8100    4.3288 H   0  0  0  0  0  0  0  0  0  0  0  0
   -4.6180   -3.1227    4.9279 H   0  0  0  0  0  0  0  0  0  0  0  0
   -4.3079   -3.0153    2.6278 H   0  0  0  0  0  0  0  0  0  0  0  0
   -4.1118   -2.7887    0.2120 H   0  0  0  0  0  0  0  0  0  0  0  0
   -0.7828   -2.7799   -3.5605 H   0  0  0  0  0  0  0  0  0  0  0  0
    0.4742   -4.3338   -4.9365 H   0  0  0  0  0  0  0  0  0  0  0  0
    2.3241   -7.0600   -6.5102 H   0  0  0  0  0  0  0  0  0  0  0  0
    0.9069   -5.9887   -6.5528 H   0  0  0  0  0  0  0  0  0  0  0  0
    2.3773   -5.5096   -5.6433 H   0  0  0  0  0  0  0  0  0  0  0  0
   -0.2863   -7.4584   -2.1147 H   0  0  0  0  0  0  0  0  0  0  0  0
   -1.5781   -5.8907   -0.7313 H   0  0  0  0  0  0  0  0  0  0  0  0
   -7.1787    1.6623   -6.1977 H   0  0  0  0  0  0  0  0  0  0  0  0
   -9.5639    2.0905   -5.7651 H   0  0  0  0  0  0  0  0  0  0  0  0
  -11.6712   -1.5259   -4.1330 H   0  0  0  0  0  0  0  0  0  0  0  0
  -11.5850   -0.7815   -5.7552 H   0  0  0  0  0  0  0  0  0  0  0  0
  -13.0826   -0.6648   -4.7939 H   0  0  0  0  0  0  0  0  0  0  0  0
   -9.5225   -0.7717   -2.6144 H   0  0  0  0  0  0  0  0  0  0  0  0
   -7.1285   -1.1588   -2.9834 H   0  0  0  0  0  0  0  0  0  0  0  0
   -3.5552   -0.7534   -6.3954 H   0  0  0  0  0  0  0  0  0  0  0  0
   -2.0803    0.8053   -7.5910 H   0  0  0  0  0  0  0  0  0  0  0  0
   -2.9106    5.6603   -6.9880 H   0  0  0  0  0  0  0  0  0  0  0  0
   -3.9418    4.9691   -8.2908 H   0  0  0  0  0  0  0  0  0  0  0  0
   -2.3943    5.7541   -8.6836 H   0  0  0  0  0  0  0  0  0  0  0  0
   -4.2600    4.0998   -5.9650 H   0  0  0  0  0  0  0  0  0  0  0  0
   -5.6790    2.5605   -4.7358 H   0  0  0  0  0  0  0  0  0  0  0  0
   -5.7993   -4.2535   -5.9048 H   0  0  0  0  0  0  0  0  0  0  0  0
   -4.3370   -2.8014   -7.2657 H   0  0  0  0  0  0  0  0  0  0  0  0
   -5.4991   -1.2269   -8.7386 H   0  0  0  0  0  0  0  0  0  0  0  0
  -11.4947    1.3096   -7.7834 H   0  0  0  0  0  0  0  0  0  0  0  0
  -10.8437    2.9559   -7.9788 H   0  0  0  0  0  0  0  0  0  0  0  0
  -11.5556    1.0225  -10.2487 H   0  0  0  0  0  0  0  0  0  0  0  0
  -10.9067    2.6560  -10.4753 H   0  0  0  0  0  0  0  0  0  0  0  0
  -12.4994    2.4336   -9.7572 H   0  0  0  0  0  0  0  0  0  0  0  0
   -8.0818   -3.5305   -7.8286 H   0  0  0  0  0  0  0  0  0  0  0  0
   -9.2296   -2.4279   -7.0461 H   0  0  0  0  0  0  0  0  0  0  0  0
   -8.0032   -3.8514   -5.3939 H   0  0  0  0  0  0  0  0  0  0  0  0
   -7.7495   -2.1285   -5.1500 H   0  0  0  0  0  0  0  0  0  0  0  0
  1  2  1  0  0  0  0
  2  3  1  0  0  0  0
  3  4  1  0  0  0  0
  4  5  2  0  0  0  0
  5  6  1  0  0  0  0
  6  7  3  0  0  0  0
  5  8  1  0  0  0  0
  8  9  3  0  0  0  0
  4 10  1  0  0  0  0
 10 11  1  0  0  0  0
 11 12  1  0  0  0  0
 12 13  2  0  0  0  0
 11 14  2  0  0  0  0
 14 15  1  0  0  0  0
 15 16  2  0  0  0  0
 16 17  1  0  0  0  0
 17 18  1  0  0  0  0
 18 19  1  0  0  0  0
 17 20  1  0  0  0  0
 20 21  2  0  0  0  0
 21 22  1  0  0  0  0
 22 23  1  0  0  0  0
 23 24  2  0  0  0  0
 24 25  1  0  0  0  0
 25 26  2  0  0  0  0
 26 27  1  0  0  0  0
 27 28  1  0  0  0  0
 26 29  1  0  0  0  0
 29 30  2  0  0  0  0
 22 31  1  0  0  0  0
 31 32  2  0  0  0  0
 32 33  1  0  0  0  0
 33 34  2  0  0  0  0
 34 35  1  0  0  0  0
 35 36  1  0  0  0  0
 34 37  1  0  0  0  0
 37 38  2  0  0  0  0
 21 39  1  0  0  0  0
 39 40  1  0  0  0  0
 40 41  1  0  0  0  0
 41 42  2  0  0  0  0
 42 43  1  0  0  0  0
 43 44  1  0  0  0  0
 44 45  2  0  0  0  0
 45 46  1  0  0  0  0
 46 47  2  0  0  0  0
 47 48  1  0  0  0  0
 48 49  1  0  0  0  0
 47 50  1  0  0  0  0
 50 51  2  0  0  0  0
 43 52  1  0  0  0  0
 52 53  2  0  0  0  0
 53 54  1  0  0  0  0
 54 55  2  0  0  0  0
 55 56  1  0  0  0  0
 56 57  1  0  0  0  0
 55 58  1  0  0  0  0
 58 59  2  0  0  0  0
 42 60  1  0  0  0  0
 60 61  1  0  0  0  0
 41 62  1  0  0  0  0
 62 63  1  0  0  0  0
 63 64  2  0  0  0  0
 64 65  1  0  0  0  0
 65 66  1  0  0  0  0
 66 67  1  0  0  0  0
 65 68  1  0  0  0  0
 68 69  2  0  0  0  0
 69 70  1  0  0  0  0
 70 71  2  0  0  0  0
 71 72  1  0  0  0  0
 72 73  1  0  0  0  0
 71 74  1  0  0  0  0
 70 75  1  0  0  0  0
 75 76  2  0  0  0  0
 76 77  1  0  0  0  0
 77 78  1  0  0  0  0
 78 79  2  0  0  0  0
 79 80  1  0  0  0  0
 80 81  2  0  0  0  0
 81 82  1  0  0  0  0
 82 83  1  0  0  0  0
 81 84  1  0  0  0  0
 84 85  2  0  0  0  0
 77 86  1  0  0  0  0
 86 87  2  0  0  0  0
 87 88  1  0  0  0  0
 88 89  2  0  0  0  0
 89 90  1  0  0  0  0
 90 91  1  0  0  0  0
 89 92  1  0  0  0  0
 92 93  2  0  0  0  0
 76 94  1  0  0  0  0
 94 95  1  0  0  0  0
 95 96  1  0  0  0  0
 96 97  2  0  0  0  0
 97 98  1  0  0  0  0
 98 99  1  0  0  0  0
 99100  2  0  0  0  0
100101  1  0  0  0  0
101102  2  0  0  0  0
102103  1  0  0  0  0
103104  1  0  0  0  0
102105  1  0  0  0  0
105106  2  0  0  0  0
 98107  1  0  0  0  0
107108  2  0  0  0  0
108109  1  0  0  0  0
109110  2  0  0  0  0
110111  1  0  0  0  0
111112  1  0  0  0  0
110113  1  0  0  0  0
113114  2  0  0  0  0
 97115  1  0  0  0  0
115116  1  0  0  0  0
 96117  1  0  0  0  0
117118  1  0  0  0  0
118119  2  0  0  0  0
119120  1  0  0  0  0
120121  2  0  0  0  0
121122  1  0  0  0  0
122123  1  0  0  0  0
123124  2  0  0  0  0
124125  1  0  0  0  0
125126  3  0  0  0  0
124127  1  0  0  0  0
127128  3  0  0  0  0
123129  1  0  0  0  0
129130  1  0  0  0  0
130131  1  0  0  0  0
129132  1  0  0  0  0
132133  2  0  0  0  0
120134  1  0  0  0  0
134135  1  0  0  0  0
 12  3  1  0  0  0  0
 19 14  1  0  0  0  0
 61 20  1  0  0  0  0
 72 62  2  0  0  0  0
116 75  1  0  0  0  0
135117  1  0  0  0  0
 30 23  1  0  0  0  0
 38 31  1  0  0  0  0
 60 39  2  0  0  0  0
 69 63  1  0  0  0  0
 85 78  1  0  0  0  0
 93 86  1  0  0  0  0
115 94  2  0  0  0  0
132121  1  0  0  0  0
 51 44  1  0  0  0  0
 59 52  1  0  0  0  0
106 99  1  0  0  0  0
114107  1  0  0  0  0
  1136  1  0  0  0  0
  1137  1  0  0  0  0
  1138  1  0  0  0  0
  2139  1  0  0  0  0
  2140  1  0  0  0  0
 15141  1  0  0  0  0
 16142  1  0  0  0  0
 17143  1  0  0  0  0
 18144  1  0  0  0  0
 18145  1  0  0  0  0
 19146  1  0  0  0  0
 19147  1  0  0  0  0
 24148  1  0  0  0  0
 25149  1  0  0  0  0
 28150  1  0  0  0  0
 28151  1  0  0  0  0
 28152  1  0  0  0  0
 29153  1  0  0  0  0
 30154  1  0  0  0  0
 32155  1  0  0  0  0
 33156  1  0  0  0  0
 36157  1  0  0  0  0
 36158  1  0  0  0  0
 36159  1  0  0  0  0
 37160  1  0  0  0  0
 38161  1  0  0  0  0
 45162  1  0  0  0  0
 46163  1  0  0  0  0
 49164  1  0  0  0  0
 49165  1  0  0  0  0
 49166  1  0  0  0  0
 50167  1  0  0  0  0
 51168  1  0  0  0  0
 53169  1  0  0  0  0
 54170  1  0  0  0  0
 57171  1  0  0  0  0
 57172  1  0  0  0  0
 57173  1  0  0  0  0
 58174  1  0  0  0  0
 59175  1  0  0  0  0
 66176  1  0  0  0  0
 66177  1  0  0  0  0
 67178  1  0  0  0  0
 67179  1  0  0  0  0
 67180  1  0  0  0  0
 79181  1  0  0  0  0
 80182  1  0  0  0  0
 83183  1  0  0  0  0
 83184  1  0  0  0  0
 83185  1  0  0  0  0
 84186  1  0  0  0  0
 85187  1  0  0  0  0
 87188  1  0  0  0  0
 88189  1  0  0  0  0
 91190  1  0  0  0  0
 91191  1  0  0  0  0
 91192  1  0  0  0  0
 92193  1  0  0  0  0
 93194  1  0  0  0  0
100195  1  0  0  0  0
101196  1  0  0  0  0
104197  1  0  0  0  0
104198  1  0  0  0  0
104199  1  0  0  0  0
105200  1  0  0  0  0
106201  1  0  0  0  0
108202  1  0  0  0  0
109203  1  0  0  0  0
112204  1  0  0  0  0
112205  1  0  0  0  0
112206  1  0  0  0  0
113207  1  0  0  0  0
114208  1  0  0  0  0
117209  1  0  0  0  0
118210  1  0  0  0  0
119211  1  0  0  0  0
130212  1  0  0  0  0
130213  1  0  0  0  0
131214  1  0  0  0  0
131215  1  0  0  0  0
131216  1  0  0  0  0
134217  1  0  0  0  0
134218  1  0  0  0  0
135219  1  0  0  0  0
135220  1  0  0  0  0
M  END
