
  xtb     02142218493D
 energy: -301.402799591702 gnorm: 0.000247167279 xtb: 6.4.1 (unknown)
184198  0     0  0            999 V2000
    7.2878   -2.4631   -8.2773 C   0  0  0  0  0  0  0  0  0  0  0  0
    6.5650   -2.5136   -9.6177 C   0  0  0  0  0  0  0  0  0  0  0  0
    5.4038   -1.6428   -9.6257 N   0  0  0  0  0  0  0  0  0  0  0  0
    5.4437   -0.3028   -9.8347 C   0  0  0  0  0  0  0  0  0  0  0  0
    6.5250    0.4840  -10.1420 C   0  0  0  0  0  0  0  0  0  0  0  0
    6.3319    1.8698  -10.3099 C   0  0  0  0  0  0  0  0  0  0  0  0
    6.1794    3.0019  -10.4234 N   0  0  0  0  0  0  0  0  0  0  0  0
    7.8602    0.0713  -10.2839 C   0  0  0  0  0  0  0  0  0  0  0  0
    8.9724   -0.1869  -10.4095 N   0  0  0  0  0  0  0  0  0  0  0  0
    3.8603    0.4216   -9.6765 S   0  0  0  0  0  0  0  0  0  0  0  0
    3.1477   -1.1340   -9.2678 C   0  0  0  0  0  0  0  0  0  0  0  0
    4.1624   -2.1799   -9.3155 C   0  0  0  0  0  0  0  0  0  0  0  0
    3.9899   -3.3614   -9.1063 O   0  0  0  0  0  0  0  0  0  0  0  0
    1.8709   -1.2640   -8.8345 C   0  0  0  0  0  0  0  0  0  0  0  0
    1.0379   -0.0906   -8.6759 C   0  0  0  0  0  0  0  0  0  0  0  0
    0.2303   -0.0230   -7.6185 C   0  0  0  0  0  0  0  0  0  0  0  0
    0.2187   -1.1972   -6.6822 C   0  0  0  0  0  0  0  0  0  0  0  0
    0.0331   -2.4361   -7.5628 C   0  0  0  0  0  0  0  0  0  0  0  0
    1.3025   -2.5875   -8.4064 C   0  0  0  0  0  0  0  0  0  0  0  0
   -0.7097   -1.0137   -5.5334 C   0  0  0  0  0  0  0  0  0  0  0  0
   -0.6647    0.0404   -4.6502 C   0  0  0  0  0  0  0  0  0  0  0  0
    0.1532    1.1660   -4.7427 N   0  0  0  0  0  0  0  0  0  0  0  0
   -0.3876    2.3950   -4.3354 C   0  0  0  0  0  0  0  0  0  0  0  0
    0.3768    3.3079   -3.6095 C   0  0  0  0  0  0  0  0  0  0  0  0
   -0.1999    4.4582   -3.1188 C   0  0  0  0  0  0  0  0  0  0  0  0
   -1.5509    4.7178   -3.3328 C   0  0  0  0  0  0  0  0  0  0  0  0
   -2.2355    6.1707   -2.5968 S   0  0  0  0  0  0  0  0  0  0  0  0
   -3.9751    5.6967   -2.3600 C   0  0  0  0  0  0  0  0  0  0  0  0
   -2.3010    3.8428   -4.1057 C   0  0  0  0  0  0  0  0  0  0  0  0
   -1.7210    2.6948   -4.6059 C   0  0  0  0  0  0  0  0  0  0  0  0
    1.4930    1.0613   -5.1140 C   0  0  0  0  0  0  0  0  0  0  0  0
    2.0846    2.0434   -5.9087 C   0  0  0  0  0  0  0  0  0  0  0  0
    3.3861    1.9096   -6.3450 C   0  0  0  0  0  0  0  0  0  0  0  0
    4.1275    0.7904   -5.9873 C   0  0  0  0  0  0  0  0  0  0  0  0
    5.7798    0.5054   -6.5577 S   0  0  0  0  0  0  0  0  0  0  0  0
    6.4174    2.1852   -6.8180 C   0  0  0  0  0  0  0  0  0  0  0  0
    3.5577   -0.1794   -5.1707 C   0  0  0  0  0  0  0  0  0  0  0  0
    2.2559   -0.0450   -4.7334 C   0  0  0  0  0  0  0  0  0  0  0  0
   -1.6052   -0.1384   -3.6018 C   0  0  0  0  0  0  0  0  0  0  0  0
   -2.0150    0.7930   -2.2170 S   0  0  0  0  0  0  0  0  0  0  0  0
   -3.1505   -0.4455   -1.7020 C   0  0  0  0  0  0  0  0  0  0  0  0
   -3.2454   -1.4927   -2.5988 C   0  0  0  0  0  0  0  0  0  0  0  0
   -4.1470   -2.5376   -2.5219 N   0  0  0  0  0  0  0  0  0  0  0  0
   -3.7537   -3.8019   -2.9752 C   0  0  0  0  0  0  0  0  0  0  0  0
   -4.6685   -4.6417   -3.6122 C   0  0  0  0  0  0  0  0  0  0  0  0
   -4.2707   -5.8751   -4.0751 C   0  0  0  0  0  0  0  0  0  0  0  0
   -2.9513   -6.3000   -3.9211 C   0  0  0  0  0  0  0  0  0  0  0  0
   -2.5619   -7.8989   -4.5628 S   0  0  0  0  0  0  0  0  0  0  0  0
   -0.7616   -8.0227   -4.3622 C   0  0  0  0  0  0  0  0  0  0  0  0
   -2.0404   -5.4738   -3.2792 C   0  0  0  0  0  0  0  0  0  0  0  0
   -2.4418   -4.2381   -2.8079 C   0  0  0  0  0  0  0  0  0  0  0  0
   -5.3625   -2.3701   -1.8475 C   0  0  0  0  0  0  0  0  0  0  0  0
   -5.8912   -3.3933   -1.0599 C   0  0  0  0  0  0  0  0  0  0  0  0
   -7.0454   -3.1913   -0.3379 C   0  0  0  0  0  0  0  0  0  0  0  0
   -7.7082   -1.9668   -0.3849 C   0  0  0  0  0  0  0  0  0  0  0  0
   -9.1480   -1.8119    0.6248 S   0  0  0  0  0  0  0  0  0  0  0  0
   -9.6905   -0.1009    0.3562 C   0  0  0  0  0  0  0  0  0  0  0  0
   -7.2149   -0.9616   -1.2050 C   0  0  0  0  0  0  0  0  0  0  0  0
   -6.0582   -1.1667   -1.9308 C   0  0  0  0  0  0  0  0  0  0  0  0
   -2.3385   -1.3077   -3.6795 C   0  0  0  0  0  0  0  0  0  0  0  0
   -1.8777   -2.2316   -5.0730 S   0  0  0  0  0  0  0  0  0  0  0  0
   -3.7275   -0.2670   -0.3880 C   0  0  0  0  0  0  0  0  0  0  0  0
   -4.1187    0.9851    0.0503 C   0  0  0  0  0  0  0  0  0  0  0  0
   -4.2246    2.0067   -0.8267 F   0  0  0  0  0  0  0  0  0  0  0  0
   -4.3507    1.2646    1.4000 C   0  0  0  0  0  0  0  0  0  0  0  0
   -4.6360    2.5414    1.7295 F   0  0  0  0  0  0  0  0  0  0  0  0
   -4.2532    0.2993    2.3797 C   0  0  0  0  0  0  0  0  0  0  0  0
   -4.0501   -1.0355    1.9364 C   0  0  0  0  0  0  0  0  0  0  0  0
   -4.0942   -2.0419    2.8259 N   0  0  0  0  0  0  0  0  0  0  0  0
   -3.7987   -3.2566    2.4463 C   0  0  0  0  0  0  0  0  0  0  0  0
   -3.9415   -4.3540    3.4584 C   0  0  0  0  0  0  0  0  0  0  0  0
   -4.4932   -3.8566    4.7873 C   0  0  0  0  0  0  0  0  0  0  0  0
   -3.3574   -3.5077    1.1139 C   0  0  0  0  0  0  0  0  0  0  0  0
   -3.3547   -2.5496    0.2226 N   0  0  0  0  0  0  0  0  0  0  0  0
   -3.7366   -1.3100    0.5791 C   0  0  0  0  0  0  0  0  0  0  0  0
   -2.8470   -4.8432    0.6647 C   0  0  0  0  0  0  0  0  0  0  0  0
   -1.3507   -4.9691    0.9604 C   0  0  0  0  0  0  0  0  0  0  0  0
   -4.1004    0.6542    3.7958 C   0  0  0  0  0  0  0  0  0  0  0  0
   -3.1623    1.6439    4.0727 C   0  0  0  0  0  0  0  0  0  0  0  0
   -2.8206    1.8771    5.3912 C   0  0  0  0  0  0  0  0  0  0  0  0
   -1.8548    2.7140    5.8935 N   0  0  0  0  0  0  0  0  0  0  0  0
   -1.0914    3.6580    5.1214 C   0  0  0  0  0  0  0  0  0  0  0  0
   -1.8647    4.9563    4.8970 C   0  0  0  0  0  0  0  0  0  0  0  0
   -1.8061    2.5458    7.2527 C   0  0  0  0  0  0  0  0  0  0  0  0
   -2.7717    1.5858    7.6492 C   0  0  0  0  0  0  0  0  0  0  0  0
   -3.4244    1.1520    6.4470 C   0  0  0  0  0  0  0  0  0  0  0  0
   -4.4024    0.2070    6.1539 C   0  0  0  0  0  0  0  0  0  0  0  0
   -4.7264   -0.0418    4.8361 C   0  0  0  0  0  0  0  0  0  0  0  0
   -2.8757    1.2361    8.9895 C   0  0  0  0  0  0  0  0  0  0  0  0
   -2.0111    1.8098    9.9007 C   0  0  0  0  0  0  0  0  0  0  0  0
   -1.0406    2.7316    9.5020 C   0  0  0  0  0  0  0  0  0  0  0  0
   -0.9436    3.1159    8.1743 C   0  0  0  0  0  0  0  0  0  0  0  0
   -0.0065    3.2489   10.4773 C   0  0  0  0  0  0  0  0  0  0  0  0
    0.3080    4.6825   10.1960 C   0  0  0  0  0  0  0  0  0  0  0  0
    1.5485    5.1592   10.0445 C   0  0  0  0  0  0  0  0  0  0  0  0
    2.7163    4.3411   10.2476 C   0  0  0  0  0  0  0  0  0  0  0  0
    3.9357    4.7330    9.7974 C   0  0  0  0  0  0  0  0  0  0  0  0
    4.1760    6.2289    8.8913 S   0  0  0  0  0  0  0  0  0  0  0  0
    5.8729    5.8758    8.6697 C   0  0  0  0  0  0  0  0  0  0  0  0
    6.6669    6.7473    7.9680 C   0  0  0  0  0  0  0  0  0  0  0  0
    6.0948    7.9227    7.4371 C   0  0  0  0  0  0  0  0  0  0  0  0
    5.6345    8.8776    6.9989 N   0  0  0  0  0  0  0  0  0  0  0  0
    8.0373    6.6048    7.6929 C   0  0  0  0  0  0  0  0  0  0  0  0
    9.1533    6.5500    7.4259 N   0  0  0  0  0  0  0  0  0  0  0  0
    6.2181    4.7043    9.2633 N   0  0  0  0  0  0  0  0  0  0  0  0
    7.5430    4.1128    9.2185 C   0  0  0  0  0  0  0  0  0  0  0  0
    7.7707    3.3470    7.9204 C   0  0  0  0  0  0  0  0  0  0  0  0
    5.1998    4.0143    9.9126 C   0  0  0  0  0  0  0  0  0  0  0  0
    5.3982    2.9631   10.4830 O   0  0  0  0  0  0  0  0  0  0  0  0
    2.4750    3.0543   10.9710 C   0  0  0  0  0  0  0  0  0  0  0  0
    1.2499    2.3708   10.3662 C   0  0  0  0  0  0  0  0  0  0  0  0
    7.6484   -1.4602   -8.0639 H   0  0  0  0  0  0  0  0  0  0  0  0
    6.6167   -2.7675   -7.4779 H   0  0  0  0  0  0  0  0  0  0  0  0
    8.1382   -3.1376   -8.3017 H   0  0  0  0  0  0  0  0  0  0  0  0
    7.2324   -2.2313  -10.4333 H   0  0  0  0  0  0  0  0  0  0  0  0
    6.1815   -3.5223   -9.7951 H   0  0  0  0  0  0  0  0  0  0  0  0
    1.1532    0.7243   -9.3751 H   0  0  0  0  0  0  0  0  0  0  0  0
   -0.4039    0.8260   -7.4245 H   0  0  0  0  0  0  0  0  0  0  0  0
    1.2324   -1.2871   -6.2570 H   0  0  0  0  0  0  0  0  0  0  0  0
   -0.8473   -2.3117   -8.1956 H   0  0  0  0  0  0  0  0  0  0  0  0
   -0.1116   -3.3262   -6.9503 H   0  0  0  0  0  0  0  0  0  0  0  0
    2.0685   -3.1281   -7.8442 H   0  0  0  0  0  0  0  0  0  0  0  0
    1.1053   -3.1868   -9.2987 H   0  0  0  0  0  0  0  0  0  0  0  0
    1.4154    3.0928   -3.4071 H   0  0  0  0  0  0  0  0  0  0  0  0
    0.3834    5.1551   -2.5370 H   0  0  0  0  0  0  0  0  0  0  0  0
   -4.5233    5.7823   -3.2939 H   0  0  0  0  0  0  0  0  0  0  0  0
   -4.0193    4.6853   -1.9676 H   0  0  0  0  0  0  0  0  0  0  0  0
   -4.3783    6.3968   -1.6351 H   0  0  0  0  0  0  0  0  0  0  0  0
   -3.3383    4.0439   -4.3197 H   0  0  0  0  0  0  0  0  0  0  0  0
   -2.3131    2.0133   -5.1998 H   0  0  0  0  0  0  0  0  0  0  0  0
    1.5094    2.9100   -6.1982 H   0  0  0  0  0  0  0  0  0  0  0  0
    3.8091    2.6711   -6.9805 H   0  0  0  0  0  0  0  0  0  0  0  0
    7.4929    2.0821   -6.9275 H   0  0  0  0  0  0  0  0  0  0  0  0
    6.1874    2.7896   -5.9460 H   0  0  0  0  0  0  0  0  0  0  0  0
    5.9997    2.6215   -7.7209 H   0  0  0  0  0  0  0  0  0  0  0  0
    4.1456   -1.0371   -4.8807 H   0  0  0  0  0  0  0  0  0  0  0  0
    1.8253   -0.7852   -4.0740 H   0  0  0  0  0  0  0  0  0  0  0  0
   -5.6889   -4.3151   -3.7446 H   0  0  0  0  0  0  0  0  0  0  0  0
   -4.9746   -6.5243   -4.5726 H   0  0  0  0  0  0  0  0  0  0  0  0
   -0.5014   -8.0436   -3.3078 H   0  0  0  0  0  0  0  0  0  0  0  0
   -0.2758   -7.1973   -4.8740 H   0  0  0  0  0  0  0  0  0  0  0  0
   -0.4804   -8.9623   -4.8275 H   0  0  0  0  0  0  0  0  0  0  0  0
   -1.0178   -5.7800   -3.1282 H   0  0  0  0  0  0  0  0  0  0  0  0
   -1.7355   -3.6066   -2.2904 H   0  0  0  0  0  0  0  0  0  0  0  0
   -5.3813   -4.3423   -1.0016 H   0  0  0  0  0  0  0  0  0  0  0  0
   -7.4427   -3.9782    0.2851 H   0  0  0  0  0  0  0  0  0  0  0  0
   -8.9046    0.5881    0.6517 H   0  0  0  0  0  0  0  0  0  0  0  0
  -10.5578    0.0333    0.9951 H   0  0  0  0  0  0  0  0  0  0  0  0
   -9.9737    0.0417   -0.6826 H   0  0  0  0  0  0  0  0  0  0  0  0
   -7.7192   -0.0127   -1.2910 H   0  0  0  0  0  0  0  0  0  0  0  0
   -5.6895   -0.3767   -2.5679 H   0  0  0  0  0  0  0  0  0  0  0  0
   -2.9642   -4.8192    3.6134 H   0  0  0  0  0  0  0  0  0  0  0  0
   -4.6039   -5.1214    3.0466 H   0  0  0  0  0  0  0  0  0  0  0  0
   -3.8585   -3.0718    5.1886 H   0  0  0  0  0  0  0  0  0  0  0  0
   -5.4899   -3.4479    4.6490 H   0  0  0  0  0  0  0  0  0  0  0  0
   -4.5451   -4.6753    5.5008 H   0  0  0  0  0  0  0  0  0  0  0  0
   -3.3910   -5.6461    1.1632 H   0  0  0  0  0  0  0  0  0  0  0  0
   -2.9980   -4.9256   -0.4126 H   0  0  0  0  0  0  0  0  0  0  0  0
   -0.9837   -5.9343    0.6204 H   0  0  0  0  0  0  0  0  0  0  0  0
   -1.1523   -4.8790    2.0261 H   0  0  0  0  0  0  0  0  0  0  0  0
   -0.8031   -4.1853    0.4429 H   0  0  0  0  0  0  0  0  0  0  0  0
   -2.6739    2.1731    3.2691 H   0  0  0  0  0  0  0  0  0  0  0  0
   -0.1572    3.8631    5.6495 H   0  0  0  0  0  0  0  0  0  0  0  0
   -0.8417    3.2010    4.1594 H   0  0  0  0  0  0  0  0  0  0  0  0
   -2.1099    5.4181    5.8507 H   0  0  0  0  0  0  0  0  0  0  0  0
   -2.7898    4.7548    4.3622 H   0  0  0  0  0  0  0  0  0  0  0  0
   -1.2678    5.6520    4.3137 H   0  0  0  0  0  0  0  0  0  0  0  0
   -4.8841   -0.3430    6.9482 H   0  0  0  0  0  0  0  0  0  0  0  0
   -5.4627   -0.7878    4.5888 H   0  0  0  0  0  0  0  0  0  0  0  0
   -3.6115    0.5143    9.3101 H   0  0  0  0  0  0  0  0  0  0  0  0
   -2.0734    1.5321   10.9429 H   0  0  0  0  0  0  0  0  0  0  0  0
   -0.1912    3.8306    7.8739 H   0  0  0  0  0  0  0  0  0  0  0  0
   -0.4089    3.1837   11.4966 H   0  0  0  0  0  0  0  0  0  0  0  0
   -0.5444    5.3359   10.0725 H   0  0  0  0  0  0  0  0  0  0  0  0
    1.7096    6.1915    9.7618 H   0  0  0  0  0  0  0  0  0  0  0  0
    8.2919    4.8958    9.3463 H   0  0  0  0  0  0  0  0  0  0  0  0
    7.5898    3.4237   10.0664 H   0  0  0  0  0  0  0  0  0  0  0  0
    7.7111    4.0079    7.0588 H   0  0  0  0  0  0  0  0  0  0  0  0
    7.0303    2.5569    7.8158 H   0  0  0  0  0  0  0  0  0  0  0  0
    8.7597    2.8993    7.9377 H   0  0  0  0  0  0  0  0  0  0  0  0
    2.2852    3.2821   12.0241 H   0  0  0  0  0  0  0  0  0  0  0  0
    3.3456    2.4040   10.9150 H   0  0  0  0  0  0  0  0  0  0  0  0
    1.4444    2.1677    9.3103 H   0  0  0  0  0  0  0  0  0  0  0  0
    1.0761    1.4146   10.8606 H   0  0  0  0  0  0  0  0  0  0  0  0
  1  2  1  0  0  0  0
  2  3  1  0  0  0  0
  3  4  1  0  0  0  0
  4  5  2  0  0  0  0
  5  6  1  0  0  0  0
  6  7  3  0  0  0  0
  5  8  1  0  0  0  0
  8  9  3  0  0  0  0
  4 10  1  0  0  0  0
 10 11  1  0  0  0  0
 11 12  1  0  0  0  0
 12 13  2  0  0  0  0
 11 14  2  0  0  0  0
 14 15  1  0  0  0  0
 15 16  2  0  0  0  0
 16 17  1  0  0  0  0
 17 18  1  0  0  0  0
 18 19  1  0  0  0  0
 17 20  1  0  0  0  0
 20 21  2  0  0  0  0
 21 22  1  0  0  0  0
 22 23  1  0  0  0  0
 23 24  2  0  0  0  0
 24 25  1  0  0  0  0
 25 26  2  0  0  0  0
 26 27  1  0  0  0  0
 27 28  1  0  0  0  0
 26 29  1  0  0  0  0
 29 30  2  0  0  0  0
 22 31  1  0  0  0  0
 31 32  2  0  0  0  0
 32 33  1  0  0  0  0
 33 34  2  0  0  0  0
 34 35  1  0  0  0  0
 35 36  1  0  0  0  0
 34 37  1  0  0  0  0
 37 38  2  0  0  0  0
 21 39  1  0  0  0  0
 39 40  1  0  0  0  0
 40 41  1  0  0  0  0
 41 42  2  0  0  0  0
 42 43  1  0  0  0  0
 43 44  1  0  0  0  0
 44 45  2  0  0  0  0
 45 46  1  0  0  0  0
 46 47  2  0  0  0  0
 47 48  1  0  0  0  0
 48 49  1  0  0  0  0
 47 50  1  0  0  0  0
 50 51  2  0  0  0  0
 43 52  1  0  0  0  0
 52 53  2  0  0  0  0
 53 54  1  0  0  0  0
 54 55  2  0  0  0  0
 55 56  1  0  0  0  0
 56 57  1  0  0  0  0
 55 58  1  0  0  0  0
 58 59  2  0  0  0  0
 42 60  1  0  0  0  0
 60 61  1  0  0  0  0
 41 62  1  0  0  0  0
 62 63  2  0  0  0  0
 63 64  1  0  0  0  0
 63 65  1  0  0  0  0
 65 66  1  0  0  0  0
 65 67  2  0  0  0  0
 67 68  1  0  0  0  0
 68 69  2  0  0  0  0
 69 70  1  0  0  0  0
 70 71  1  0  0  0  0
 71 72  1  0  0  0  0
 70 73  2  0  0  0  0
 73 74  1  0  0  0  0
 74 75  2  0  0  0  0
 73 76  1  0  0  0  0
 76 77  1  0  0  0  0
 67 78  1  0  0  0  0
 78 79  2  0  0  0  0
 79 80  1  0  0  0  0
 80 81  1  0  0  0  0
 81 82  1  0  0  0  0
 82 83  1  0  0  0  0
 81 84  1  0  0  0  0
 84 85  2  0  0  0  0
 85 86  1  0  0  0  0
 86 87  1  0  0  0  0
 87 88  2  0  0  0  0
 85 89  1  0  0  0  0
 89 90  2  0  0  0  0
 90 91  1  0  0  0  0
 91 92  2  0  0  0  0
 91 93  1  0  0  0  0
 93 94  1  0  0  0  0
 94 95  2  0  0  0  0
 95 96  1  0  0  0  0
 96 97  2  0  0  0  0
 97 98  1  0  0  0  0
 98 99  1  0  0  0  0
 99100  2  0  0  0  0
100101  1  0  0  0  0
101102  3  0  0  0  0
100103  1  0  0  0  0
103104  3  0  0  0  0
 99105  1  0  0  0  0
105106  1  0  0  0  0
106107  1  0  0  0  0
105108  1  0  0  0  0
108109  2  0  0  0  0
 96110  1  0  0  0  0
110111  1  0  0  0  0
 12  3  1  0  0  0  0
 19 14  1  0  0  0  0
 61 20  1  0  0  0  0
 75 62  1  0  0  0  0
 88 78  1  0  0  0  0
111 93  1  0  0  0  0
 30 23  1  0  0  0  0
 38 31  1  0  0  0  0
 60 39  2  0  0  0  0
 75 68  1  0  0  0  0
 86 80  2  0  0  0  0
108 97  1  0  0  0  0
 51 44  1  0  0  0  0
 59 52  1  0  0  0  0
 92 84  1  0  0  0  0
  1112  1  0  0  0  0
  1113  1  0  0  0  0
  1114  1  0  0  0  0
  2115  1  0  0  0  0
  2116  1  0  0  0  0
 15117  1  0  0  0  0
 16118  1  0  0  0  0
 17119  1  0  0  0  0
 18120  1  0  0  0  0
 18121  1  0  0  0  0
 19122  1  0  0  0  0
 19123  1  0  0  0  0
 24124  1  0  0  0  0
 25125  1  0  0  0  0
 28126  1  0  0  0  0
 28127  1  0  0  0  0
 28128  1  0  0  0  0
 29129  1  0  0  0  0
 30130  1  0  0  0  0
 32131  1  0  0  0  0
 33132  1  0  0  0  0
 36133  1  0  0  0  0
 36134  1  0  0  0  0
 36135  1  0  0  0  0
 37136  1  0  0  0  0
 38137  1  0  0  0  0
 45138  1  0  0  0  0
 46139  1  0  0  0  0
 49140  1  0  0  0  0
 49141  1  0  0  0  0
 49142  1  0  0  0  0
 50143  1  0  0  0  0
 51144  1  0  0  0  0
 53145  1  0  0  0  0
 54146  1  0  0  0  0
 57147  1  0  0  0  0
 57148  1  0  0  0  0
 57149  1  0  0  0  0
 58150  1  0  0  0  0
 59151  1  0  0  0  0
 71152  1  0  0  0  0
 71153  1  0  0  0  0
 72154  1  0  0  0  0
 72155  1  0  0  0  0
 72156  1  0  0  0  0
 76157  1  0  0  0  0
 76158  1  0  0  0  0
 77159  1  0  0  0  0
 77160  1  0  0  0  0
 77161  1  0  0  0  0
 79162  1  0  0  0  0
 82163  1  0  0  0  0
 82164  1  0  0  0  0
 83165  1  0  0  0  0
 83166  1  0  0  0  0
 83167  1  0  0  0  0
 87168  1  0  0  0  0
 88169  1  0  0  0  0
 89170  1  0  0  0  0
 90171  1  0  0  0  0
 92172  1  0  0  0  0
 93173  1  0  0  0  0
 94174  1  0  0  0  0
 95175  1  0  0  0  0
106176  1  0  0  0  0
106177  1  0  0  0  0
107178  1  0  0  0  0
107179  1  0  0  0  0
107180  1  0  0  0  0
110181  1  0  0  0  0
110182  1  0  0  0  0
111183  1  0  0  0  0
111184  1  0  0  0  0
M  END
