211

C          2.00000      -11.70070       -8.39720
C          2.55350      -10.72410       -7.36660
N          1.59590      -10.46490       -6.30720
C          1.37450      -11.28590       -5.24850
C          2.02450      -12.44520       -4.90920
C          3.07000      -13.06400       -5.61500
N          3.91860      -13.62770       -6.14560
C          1.64760      -13.11950       -3.73040
N          1.34450      -13.66670       -2.76830
S          0.08900      -10.68310       -4.23560
C         -0.09050       -9.24440       -5.23260
C          0.80910       -9.32200       -6.37910
O          0.91660       -8.51980       -7.28150
C         -0.90650       -8.21760       -4.88540
C         -1.64820       -8.26110       -3.65330
C         -2.23230       -7.17920       -3.13340
C         -2.18000       -5.82650       -3.77360
C         -1.10510       -5.74600       -4.86200
C         -1.10940       -7.00080       -5.73180
C         -2.05990       -4.73280       -2.75070
C         -0.96400       -4.13820       -2.17120
N          0.36920       -4.51780       -2.29910
C          0.76410       -5.86320       -2.18480
C          0.12220       -6.76090       -1.34160
C          0.57350       -8.06360       -1.22220
C          1.67430       -8.49040       -1.95060
S          2.37050      -10.11190       -1.86230
C          1.24030      -11.02400       -0.78110
C          2.31420       -7.59430       -2.80730
C          1.86980       -6.29870       -2.92050
C          1.36610       -3.54470       -2.09340
C          1.33640       -2.33870       -2.79220
C          2.31180       -1.38820       -2.57510
C          3.33340       -1.62280       -1.65940
S          4.53580       -0.34790       -1.43580
C          5.93290       -1.22360       -0.66910
C          3.36380       -2.81920       -0.95620
C          2.39050       -3.77080       -1.17730
C         -1.36560       -3.03840       -1.35630
S         -0.52060       -1.79390       -0.51730
C         -2.04670       -1.09120        0.04110
C         -3.13660       -1.81620       -0.38100
N         -4.44400       -1.67770        0.05590
C         -5.14460       -2.83110        0.43620
C         -4.47930       -3.97620        0.86680
C         -5.17680       -5.11430        1.22190
C         -6.56340       -5.11710        1.19600
S         -7.56040       -6.48660        1.69720
C         -6.35420       -7.71370        2.27580
C         -7.23700       -3.97400        0.76830
C         -6.53980       -2.85260        0.37950
C         -5.01730       -0.42340        0.31970
C         -5.63190       -0.18980        1.54900
C         -6.31410        0.98480        1.77290
C         -6.39730        1.94360        0.76910
S         -7.38350        3.38120        1.09200
C         -8.21370        3.61380       -0.50910
C         -5.73320        1.74640       -0.43400
C         -5.04630        0.56780       -0.65670
C         -2.73040       -2.88530       -1.22930
S         -3.57340       -4.04880       -2.18470
C         -1.87540        0.13270        0.78360
C         -1.06630        0.21640        1.89450
N         -0.55680       -0.90270        2.55680
C          0.83120       -0.98970        2.67930
C          1.43120       -1.67140        3.73800
C          2.80510       -1.69580        3.85960
C          3.60350       -1.02580        2.94120
S          5.36800       -1.06750        3.14220
C          5.79730        0.66250        2.76560
C          3.01610       -0.35620        1.87850
C          1.64530       -0.34510        1.74670
C         -1.43690       -1.90870        2.95630
C         -2.71690       -1.57020        3.39210
C         -3.59980       -2.53950        3.82380
C         -3.22140       -3.87370        3.82490
S         -4.25720       -5.18790        4.39330
C         -5.86840       -4.39830        4.65950
C         -1.95410       -4.22250        3.36300
C         -1.07350       -3.25620        2.92810
C         -0.74210        1.55540        2.21590
S          0.27930        2.29110        3.39950
C          0.01080        3.85080        2.66790
C         -0.78130        3.79370        1.53810
N         -0.89200        4.85600        0.64730
C         -2.05450        5.05440       -0.09540
C         -3.30600        4.78800        0.45960
C         -4.45070        5.01140       -0.27290
C         -4.37140        5.48700       -1.57830
S         -5.89320        5.71690       -2.45470
C         -5.43870        6.80710       -3.83090
C         -3.12860        5.73650       -2.14270
C         -1.98240        5.52720       -1.40440
C          0.27090        5.60090        0.38440
C          1.50650        4.96420        0.29880
C          2.66850        5.69240        0.16210
C          2.61540        7.07780        0.10150
S          4.07210        8.08390        0.05110
C          5.33150        6.97310        0.74250
C          1.37800        7.71510        0.09610
C          0.21640        6.98630        0.24120
C         -1.25130        2.47550        1.31310
S         -2.24860        1.71820        0.11640
C          0.65500        5.05430        3.17490
C         -0.09990        6.21000        3.39350
C          0.55100        7.36020        3.78240
C          1.93850        7.35970        3.92160
C          2.57970        6.14200        3.72720
N          1.96620        5.02650        3.38270
C          2.66090        8.66060        4.20520
C          4.14460        8.49590        4.30560
C          5.02920        9.21690        3.60750
C          4.61630       10.31560        2.77290
C          5.37140       10.82350        1.76860
S          4.85660       12.18180        0.77590
C          6.27630       12.04110       -0.23150
C          6.46400       12.90960       -1.27640
C          5.49450       13.90310       -1.52930
N          4.71220       14.71420       -1.74290
C          7.55330       12.93770       -2.16350
N          8.41090       13.01710       -2.92380
N          7.08330       11.03020        0.18440
C          8.28090       10.58900       -0.50710
C          7.93620        9.70800       -1.70210
C          6.65080       10.31450        1.29000
O          7.28340        9.38470        1.74810
C          3.25610       10.85180        3.08510
C          2.28580        9.67410        3.11120
H          1.08670      -11.30540       -8.83670
H          1.78960      -12.66840       -7.94810
H          2.73360      -11.84370       -9.18470
H          2.74230       -9.75620       -7.83920
H          3.47970      -11.10060       -6.92940
H         -1.69800       -9.21040       -3.13710
H         -2.80000       -7.24670       -2.21650
H         -3.16340       -5.68480       -4.24990
H         -1.28240       -4.86770       -5.48430
H         -0.12240       -5.64440       -4.40780
H         -0.34230       -6.93320       -6.50110
H         -2.08010       -7.09930       -6.22890
H         -0.72030       -6.43040       -0.75200
H          0.06590       -8.72980       -0.54360
H          0.23080      -10.97020       -1.17790
H          1.58200      -12.05450       -0.80770
H          1.29690      -10.63270        0.23040
H          3.16990       -7.92990       -3.37320
H          2.38010       -5.60370       -3.57130
H          0.54630       -2.15450       -3.50510
H          2.29250       -0.45470       -3.11630
H          6.16310       -2.11000       -1.25200
H          5.70910       -1.48180        0.36270
H          6.76980       -0.53250       -0.70300
H          4.12750       -3.01550       -0.22130
H          2.41580       -4.69680       -0.62210
H         -3.40260       -3.98090        0.94310
H         -4.62150       -5.98070        1.54010
H         -5.74550       -8.05630        1.44390
H         -6.94280       -8.53890        2.66450
H         -5.74050       -7.29080        3.06620
H         -8.31580       -3.98130        0.73790
H         -7.07390       -1.98000        0.03550
H         -5.59190       -0.95280        2.31120
H         -6.80650        1.16400        2.71630
H         -8.54710        2.64770       -0.87440
H         -7.54920        4.09400       -1.22090
H         -9.06610        4.25610       -0.31330
H         -5.76170        2.49970       -1.20540
H         -4.54640        0.40220       -1.59950
H          0.81670       -2.16470        4.47580
H          3.26880       -2.22040        4.68100
H          5.78250        0.83820        1.69410
H          6.80070        0.81510        3.15000
H          5.09520        1.31650        3.27320
H          3.61760        0.15410        1.14350
H          1.20410        0.15960        0.90060
H         -3.01750       -0.53270        3.40520
H         -4.57340       -2.23840        4.17610
H         -5.80740       -3.69320        5.48350
H         -6.19610       -3.91600        3.74250
H         -6.55260       -5.20130        4.91650
H         -1.66960       -5.26400        3.34720
H         -0.09950       -3.53880        2.55740
H         -3.38000        4.42340        1.47330
H         -5.41560        4.83460        0.17400
H         -4.88150        7.65750       -3.44970
H         -4.86560        6.25970       -4.57400
H         -6.37670        7.14030       -4.26430
H         -3.03690        6.08640       -3.15850
H         -1.01790        5.72060       -1.84980
H          1.56110        3.88790        0.35830
H          3.60750        5.16710        0.10350
H          5.67250        6.27430       -0.01640
H          4.90860        6.45260        1.59590
H          6.15610        7.60030        1.06710
H          1.33480        8.78910       -0.00680
H         -0.73870        7.48920        0.26720
H         -1.17050        6.19210        3.25990
H         -0.01630        8.26020        3.96950
H          3.65140        6.04520        3.83980
H          2.30650        9.03490        5.17800
H          4.49380        7.73620        4.99000
H          6.08430        8.99690        3.66130
H          8.85200       10.01350        0.22680
H          8.86300       11.45830       -0.81600
H          7.34200        8.85540       -1.38090
H          8.85260        9.34680       -2.15880
H          7.37740       10.26450       -2.45070
H          2.94230       11.58390        2.33940
H          3.27360       11.34050        4.06330
H          2.32100        9.17220        2.14290
H          1.27100       10.04050        3.26550
