
  xtb     02072215143D
 energy: -403.790853805260 gnorm: 0.000422620011 xtb: 6.4.1 (unknown)
246266  0     0  0            999 V2000
   -6.6389   -0.7568    0.2490 C   0  0  0  0  0  0  0  0  0  0  0  0
   -5.1970   -0.5502    0.6932 C   0  0  0  0  0  0  0  0  0  0  0  0
   -4.9257    0.8511    0.9642 N   0  0  0  0  0  0  0  0  0  0  0  0
   -4.6107    1.7745    0.0298 C   0  0  0  0  0  0  0  0  0  0  0  0
   -4.3383    1.5736   -1.3050 C   0  0  0  0  0  0  0  0  0  0  0  0
   -3.9797    2.6603   -2.1228 C   0  0  0  0  0  0  0  0  0  0  0  0
   -3.6821    3.5051   -2.8418 N   0  0  0  0  0  0  0  0  0  0  0  0
   -4.3164    0.3698   -2.0164 C   0  0  0  0  0  0  0  0  0  0  0  0
   -4.2552   -0.5314   -2.7309 N   0  0  0  0  0  0  0  0  0  0  0  0
   -4.5076    3.3793    0.7027 S   0  0  0  0  0  0  0  0  0  0  0  0
   -4.7913    2.7543    2.3258 C   0  0  0  0  0  0  0  0  0  0  0  0
   -5.0597    1.3220    2.2674 C   0  0  0  0  0  0  0  0  0  0  0  0
   -5.3169    0.5956    3.2017 O   0  0  0  0  0  0  0  0  0  0  0  0
   -4.5396    3.4660    3.4571 C   0  0  0  0  0  0  0  0  0  0  0  0
   -4.0469    4.8236    3.3752 C   0  0  0  0  0  0  0  0  0  0  0  0
   -3.1452    5.2731    4.2525 C   0  0  0  0  0  0  0  0  0  0  0  0
   -2.6661    4.3830    5.3639 C   0  0  0  0  0  0  0  0  0  0  0  0
   -3.9098    3.6443    5.8937 C   0  0  0  0  0  0  0  0  0  0  0  0
   -4.6099    2.8258    4.8097 C   0  0  0  0  0  0  0  0  0  0  0  0
   -1.5784    3.4788    4.8522 C   0  0  0  0  0  0  0  0  0  0  0  0
   -0.3416    3.2101    5.3958 C   0  0  0  0  0  0  0  0  0  0  0  0
    0.1151    3.6933    6.6185 N   0  0  0  0  0  0  0  0  0  0  0  0
    1.4661    4.0298    6.7408 C   0  0  0  0  0  0  0  0  0  0  0  0
    2.1421    4.6084    5.6693 C   0  0  0  0  0  0  0  0  0  0  0  0
    3.4876    4.9085    5.7573 C   0  0  0  0  0  0  0  0  0  0  0  0
    4.1822    4.6447    6.9283 C   0  0  0  0  0  0  0  0  0  0  0  0
    5.9036    4.9720    7.1596 S   0  0  0  0  0  0  0  0  0  0  0  0
    6.4703    5.5035    5.5196 C   0  0  0  0  0  0  0  0  0  0  0  0
    3.5049    4.0907    8.0131 C   0  0  0  0  0  0  0  0  0  0  0  0
    2.1666    3.7829    7.9225 C   0  0  0  0  0  0  0  0  0  0  0  0
   -0.6972    3.5771    7.7565 C   0  0  0  0  0  0  0  0  0  0  0  0
   -1.5075    2.4621    7.9402 C   0  0  0  0  0  0  0  0  0  0  0  0
   -2.3031    2.3415    9.0636 C   0  0  0  0  0  0  0  0  0  0  0  0
   -2.2968    3.3394   10.0275 C   0  0  0  0  0  0  0  0  0  0  0  0
   -3.2678    3.3023   11.5016 S   0  0  0  0  0  0  0  0  0  0  0  0
   -4.0574    1.6684   11.4642 C   0  0  0  0  0  0  0  0  0  0  0  0
   -1.4857    4.4594    9.8480 C   0  0  0  0  0  0  0  0  0  0  0  0
   -0.6960    4.5796    8.7273 C   0  0  0  0  0  0  0  0  0  0  0  0
    0.4237    2.3509    4.5517 C   0  0  0  0  0  0  0  0  0  0  0  0
    1.9941    1.6141    4.5892 S   0  0  0  0  0  0  0  0  0  0  0  0
    1.6584    0.7417    3.1004 C   0  0  0  0  0  0  0  0  0  0  0  0
    0.4228    1.0608    2.5876 C   0  0  0  0  0  0  0  0  0  0  0  0
   -0.1249    0.5439    1.3975 N   0  0  0  0  0  0  0  0  0  0  0  0
   -0.0514    1.2742    0.2187 C   0  0  0  0  0  0  0  0  0  0  0  0
    0.8364    2.3447    0.0896 C   0  0  0  0  0  0  0  0  0  0  0  0
    0.9684    3.0026   -1.1130 C   0  0  0  0  0  0  0  0  0  0  0  0
    0.1982    2.6339   -2.2103 C   0  0  0  0  0  0  0  0  0  0  0  0
    0.5415    3.4277   -3.7529 S   0  0  0  0  0  0  0  0  0  0  0  0
   -1.0242    3.2802   -4.6594 C   0  0  0  0  0  0  0  0  0  0  0  0
   -0.7543    1.6366   -2.0638 C   0  0  0  0  0  0  0  0  0  0  0  0
   -0.8793    0.9687   -0.8627 C   0  0  0  0  0  0  0  0  0  0  0  0
   -0.7199   -0.7300    1.4439 C   0  0  0  0  0  0  0  0  0  0  0  0
   -0.3464   -1.7115    0.5328 C   0  0  0  0  0  0  0  0  0  0  0  0
   -0.8825   -2.9795    0.5860 C   0  0  0  0  0  0  0  0  0  0  0  0
   -1.8107   -3.2954    1.5677 C   0  0  0  0  0  0  0  0  0  0  0  0
   -2.4970   -4.9081    1.7560 S   0  0  0  0  0  0  0  0  0  0  0  0
   -1.4777   -5.9278    0.6542 C   0  0  0  0  0  0  0  0  0  0  0  0
   -2.2206   -2.3101    2.4633 C   0  0  0  0  0  0  0  0  0  0  0  0
   -1.6822   -1.0399    2.4032 C   0  0  0  0  0  0  0  0  0  0  0  0
   -0.2578    1.9743    3.4130 C   0  0  0  0  0  0  0  0  0  0  0  0
   -1.8226    2.6643    3.3233 S   0  0  0  0  0  0  0  0  0  0  0  0
    2.5503   -0.1469    2.3770 C   0  0  0  0  0  0  0  0  0  0  0  0
    2.4497   -1.5278    2.3112 C   0  0  0  0  0  0  0  0  0  0  0  0
    1.8717   -2.2868    3.2945 N   0  0  0  0  0  0  0  0  0  0  0  0
    1.8248   -3.6969    3.2374 C   0  0  0  0  0  0  0  0  0  0  0  0
    0.6509   -4.3527    3.5875 C   0  0  0  0  0  0  0  0  0  0  0  0
    0.5687   -5.7303    3.5403 C   0  0  0  0  0  0  0  0  0  0  0  0
    1.6689   -6.4775    3.1413 C   0  0  0  0  0  0  0  0  0  0  0  0
    1.6676   -8.2369    2.9992 S   0  0  0  0  0  0  0  0  0  0  0  0
    0.0156   -8.7197    3.5779 C   0  0  0  0  0  0  0  0  0  0  0  0
    2.8600   -5.8273    2.8287 C   0  0  0  0  0  0  0  0  0  0  0  0
    2.9425   -4.4523    2.8866 C   0  0  0  0  0  0  0  0  0  0  0  0
    1.6848   -1.7040    4.5820 C   0  0  0  0  0  0  0  0  0  0  0  0
    0.4177   -1.3963    5.0617 C   0  0  0  0  0  0  0  0  0  0  0  0
    0.2741   -0.8150    6.3033 C   0  0  0  0  0  0  0  0  0  0  0  0
    1.3901   -0.5298    7.0873 C   0  0  0  0  0  0  0  0  0  0  0  0
    1.0859    0.2685    8.6288 S   0  0  0  0  0  0  0  0  0  0  0  0
    2.7428    0.5341    9.3173 C   0  0  0  0  0  0  0  0  0  0  0  0
    2.6540   -0.8684    6.6228 C   0  0  0  0  0  0  0  0  0  0  0  0
    2.7942   -1.4545    5.3791 C   0  0  0  0  0  0  0  0  0  0  0  0
    2.8780   -2.0031    1.0384 C   0  0  0  0  0  0  0  0  0  0  0  0
    2.6197   -3.4819    0.1654 S   0  0  0  0  0  0  0  0  0  0  0  0
    2.9740   -2.6831   -1.3673 C   0  0  0  0  0  0  0  0  0  0  0  0
    3.3394   -1.3591   -1.1919 C   0  0  0  0  0  0  0  0  0  0  0  0
    3.5334   -0.4123   -2.1943 N   0  0  0  0  0  0  0  0  0  0  0  0
    4.4756    0.5967   -1.9522 C   0  0  0  0  0  0  0  0  0  0  0  0
    4.2242    1.9265   -2.2936 C   0  0  0  0  0  0  0  0  0  0  0  0
    5.1597    2.8973   -2.0194 C   0  0  0  0  0  0  0  0  0  0  0  0
    6.3621    2.5715   -1.3940 C   0  0  0  0  0  0  0  0  0  0  0  0
    7.4735    3.9098   -1.0843 S   0  0  0  0  0  0  0  0  0  0  0  0
    8.8451    3.1403   -0.1763 C   0  0  0  0  0  0  0  0  0  0  0  0
    6.6187    1.2507   -1.0572 C   0  0  0  0  0  0  0  0  0  0  0  0
    5.6830    0.2739   -1.3386 C   0  0  0  0  0  0  0  0  0  0  0  0
    2.5987   -0.2769   -3.2285 C   0  0  0  0  0  0  0  0  0  0  0  0
    1.2631   -0.6239   -3.0343 C   0  0  0  0  0  0  0  0  0  0  0  0
    0.3570   -0.5340   -4.0640 C   0  0  0  0  0  0  0  0  0  0  0  0
    0.7570   -0.0501   -5.3030 C   0  0  0  0  0  0  0  0  0  0  0  0
   -0.4960    0.0749   -6.5408 S   0  0  0  0  0  0  0  0  0  0  0  0
    0.1400    1.3663   -7.6523 C   0  0  0  0  0  0  0  0  0  0  0  0
    2.0820    0.3055   -5.5097 C   0  0  0  0  0  0  0  0  0  0  0  0
    2.9959    0.1805   -4.4830 C   0  0  0  0  0  0  0  0  0  0  0  0
    3.3016   -1.0035    0.1800 C   0  0  0  0  0  0  0  0  0  0  0  0
    3.3189    0.5424    0.9392 S   0  0  0  0  0  0  0  0  0  0  0  0
    2.4552   -3.2683   -2.5686 C   0  0  0  0  0  0  0  0  0  0  0  0
    2.8017   -3.0745   -3.8714 C   0  0  0  0  0  0  0  0  0  0  0  0
    1.7699   -3.3981   -4.7998 C   0  0  0  0  0  0  0  0  0  0  0  0
    1.7025   -3.1324   -6.1871 C   0  0  0  0  0  0  0  0  0  0  0  0
    2.8432   -2.6598   -6.9379 C   0  0  0  0  0  0  0  0  0  0  0  0
    2.8373   -1.8352   -8.0301 C   0  0  0  0  0  0  0  0  0  0  0  0
    4.0895   -1.5432   -8.6016 C   0  0  0  0  0  0  0  0  0  0  0  0
    5.1558   -2.1473   -8.0000 C   0  0  0  0  0  0  0  0  0  0  0  0
    6.8015   -2.0154   -8.5769 S   0  0  0  0  0  0  0  0  0  0  0  0
    7.7459   -2.4644   -7.0785 C   0  0  0  0  0  0  0  0  0  0  0  0
    7.6781   -1.3876   -6.0147 C   0  0  0  0  0  0  0  0  0  0  0  0
    4.6029   -3.2182   -6.5540 Se  0  0  0  0  0  2  0  0  0  0  0  0
    0.4494   -3.3005   -6.7876 C   0  0  0  0  0  0  0  0  0  0  0  0
   -0.7044   -3.6713   -6.0670 C   0  0  0  0  0  0  0  0  0  0  0  0
   -0.6323   -3.9623   -4.7024 C   0  0  0  0  0  0  0  0  0  0  0  0
   -1.8127   -4.1780   -3.8826 C   0  0  0  0  0  0  0  0  0  0  0  0
   -2.1218   -5.2540   -3.1120 C   0  0  0  0  0  0  0  0  0  0  0  0
   -3.3136   -5.1270   -2.3614 C   0  0  0  0  0  0  0  0  0  0  0  0
   -3.9488   -3.9286   -2.4801 C   0  0  0  0  0  0  0  0  0  0  0  0
   -5.4205   -3.5048   -1.6324 S   0  0  0  0  0  0  0  0  0  0  0  0
   -6.4211   -2.9061   -3.0399 C   0  0  0  0  0  0  0  0  0  0  0  0
   -6.7787   -4.0277   -3.9918 C   0  0  0  0  0  0  0  0  0  0  0  0
   -3.0156   -2.7537   -3.6208 Se  0  0  0  0  0  2  0  0  0  0  0  0
    0.6173   -3.8557   -4.1218 C   0  0  0  0  0  0  0  0  0  0  0  0
    0.8739   -4.0206   -2.4147 S   0  0  0  0  0  0  0  0  0  0  0  0
   -1.8754   -3.7023   -6.8697 C   0  0  0  0  0  0  0  0  0  0  0  0
   -1.6544   -3.3906   -8.1639 C   0  0  0  0  0  0  0  0  0  0  0  0
    0.0333   -3.0432   -8.4672 S   0  0  0  0  0  0  0  0  0  0  0  0
   -2.6815   -3.3053   -9.2565 C   0  0  0  0  0  0  0  0  0  0  0  0
   -4.0415   -3.4349   -8.6403 C   0  0  0  0  0  0  0  0  0  0  0  0
   -4.6119   -2.3796   -8.0501 C   0  0  0  0  0  0  0  0  0  0  0  0
   -3.9894   -1.0811   -8.0408 C   0  0  0  0  0  0  0  0  0  0  0  0
   -4.3921   -0.1251   -7.1609 C   0  0  0  0  0  0  0  0  0  0  0  0
   -5.5703   -0.4091   -5.8862 S   0  0  0  0  0  0  0  0  0  0  0  0
   -5.5272    1.2705   -5.4109 C   0  0  0  0  0  0  0  0  0  0  0  0
   -6.3219    1.7219   -4.3853 C   0  0  0  0  0  0  0  0  0  0  0  0
   -7.0712    0.8153   -3.6134 C   0  0  0  0  0  0  0  0  0  0  0  0
   -7.6742    0.1168   -2.9293 N   0  0  0  0  0  0  0  0  0  0  0  0
   -6.5192    3.0522   -3.9739 C   0  0  0  0  0  0  0  0  0  0  0  0
   -6.7910    4.1002   -3.5900 N   0  0  0  0  0  0  0  0  0  0  0  0
   -4.6579    1.9804   -6.1706 N   0  0  0  0  0  0  0  0  0  0  0  0
   -4.4357    3.4105   -6.0543 C   0  0  0  0  0  0  0  0  0  0  0  0
   -5.4740    4.2007   -6.8415 C   0  0  0  0  0  0  0  0  0  0  0  0
   -3.9599    1.2656   -7.1374 C   0  0  0  0  0  0  0  0  0  0  0  0
   -3.1380    1.7855   -7.8629 O   0  0  0  0  0  0  0  0  0  0  0  0
   -2.8735   -0.8133   -9.0013 C   0  0  0  0  0  0  0  0  0  0  0  0
   -2.6292   -1.9541   -9.9817 C   0  0  0  0  0  0  0  0  0  0  0  0
   -6.8392   -0.2696   -0.7033 H   0  0  0  0  0  0  0  0  0  0  0  0
   -7.3219   -0.3661    1.0000 H   0  0  0  0  0  0  0  0  0  0  0  0
   -6.8191   -1.8208    0.1324 H   0  0  0  0  0  0  0  0  0  0  0  0
   -5.0181   -1.0781    1.6333 H   0  0  0  0  0  0  0  0  0  0  0  0
   -4.4976   -0.9214   -0.0571 H   0  0  0  0  0  0  0  0  0  0  0  0
   -4.3550    5.4197    2.5278 H   0  0  0  0  0  0  0  0  0  0  0  0
   -2.7130    6.2568    4.1567 H   0  0  0  0  0  0  0  0  0  0  0  0
   -2.2417    4.9831    6.1749 H   0  0  0  0  0  0  0  0  0  0  0  0
   -3.6325    2.9926    6.7213 H   0  0  0  0  0  0  0  0  0  0  0  0
   -4.5897    4.4064    6.2802 H   0  0  0  0  0  0  0  0  0  0  0  0
   -4.1842    1.8214    4.7444 H   0  0  0  0  0  0  0  0  0  0  0  0
   -5.6604    2.6809    5.0744 H   0  0  0  0  0  0  0  0  0  0  0  0
    1.6098    4.8282    4.7555 H   0  0  0  0  0  0  0  0  0  0  0  0
    3.9756    5.3524    4.9049 H   0  0  0  0  0  0  0  0  0  0  0  0
    6.0070    6.4487    5.2514 H   0  0  0  0  0  0  0  0  0  0  0  0
    7.5442    5.6340    5.6098 H   0  0  0  0  0  0  0  0  0  0  0  0
    6.2503    4.7332    4.7863 H   0  0  0  0  0  0  0  0  0  0  0  0
    4.0488    3.8972    8.9257 H   0  0  0  0  0  0  0  0  0  0  0  0
    1.6549    3.3379    8.7620 H   0  0  0  0  0  0  0  0  0  0  0  0
   -1.4999    1.6753    7.2011 H   0  0  0  0  0  0  0  0  0  0  0  0
   -2.9118    1.4590    9.1767 H   0  0  0  0  0  0  0  0  0  0  0  0
   -4.6119    1.5918   12.3943 H   0  0  0  0  0  0  0  0  0  0  0  0
   -4.7410    1.6015   10.6227 H   0  0  0  0  0  0  0  0  0  0  0  0
   -3.2984    0.8928   11.4213 H   0  0  0  0  0  0  0  0  0  0  0  0
   -1.4871    5.2329   10.6004 H   0  0  0  0  0  0  0  0  0  0  0  0
   -0.0669    5.4474    8.5954 H   0  0  0  0  0  0  0  0  0  0  0  0
    1.4403    2.6498    0.9302 H   0  0  0  0  0  0  0  0  0  0  0  0
    1.6836    3.8045   -1.2127 H   0  0  0  0  0  0  0  0  0  0  0  0
   -0.9417    3.9584   -5.5033 H   0  0  0  0  0  0  0  0  0  0  0  0
   -1.1652    2.2627   -5.0138 H   0  0  0  0  0  0  0  0  0  0  0  0
   -1.8408    3.5841   -4.0108 H   0  0  0  0  0  0  0  0  0  0  0  0
   -1.3995    1.3631   -2.8835 H   0  0  0  0  0  0  0  0  0  0  0  0
   -1.6132    0.1800   -0.7719 H   0  0  0  0  0  0  0  0  0  0  0  0
    0.3846   -1.4735   -0.2231 H   0  0  0  0  0  0  0  0  0  0  0  0
   -0.5584   -3.7099   -0.1353 H   0  0  0  0  0  0  0  0  0  0  0  0
   -1.6340   -5.6317   -0.3786 H   0  0  0  0  0  0  0  0  0  0  0  0
   -1.8212   -6.9481    0.7974 H   0  0  0  0  0  0  0  0  0  0  0  0
   -0.4317   -5.8386    0.9357 H   0  0  0  0  0  0  0  0  0  0  0  0
   -2.9638   -2.5516    3.2091 H   0  0  0  0  0  0  0  0  0  0  0  0
   -2.0117   -0.2793    3.0971 H   0  0  0  0  0  0  0  0  0  0  0  0
   -0.2130   -3.7841    3.8901 H   0  0  0  0  0  0  0  0  0  0  0  0
   -0.3643   -6.1999    3.8057 H   0  0  0  0  0  0  0  0  0  0  0  0
   -0.0094   -9.8031    3.5141 H   0  0  0  0  0  0  0  0  0  0  0  0
   -0.1214   -8.4072    4.6090 H   0  0  0  0  0  0  0  0  0  0  0  0
   -0.7471   -8.2945    2.9324 H   0  0  0  0  0  0  0  0  0  0  0  0
    3.7207   -6.4135    2.5457 H   0  0  0  0  0  0  0  0  0  0  0  0
    3.8802   -3.9624    2.6717 H   0  0  0  0  0  0  0  0  0  0  0  0
   -0.4481   -1.5866    4.4481 H   0  0  0  0  0  0  0  0  0  0  0  0
   -0.7077   -0.5682    6.6782 H   0  0  0  0  0  0  0  0  0  0  0  0
    2.5880    1.0543   10.2577 H   0  0  0  0  0  0  0  0  0  0  0  0
    3.3252    1.1550    8.6424 H   0  0  0  0  0  0  0  0  0  0  0  0
    3.2261   -0.4209    9.5026 H   0  0  0  0  0  0  0  0  0  0  0  0
    3.5360   -0.6742    7.2103 H   0  0  0  0  0  0  0  0  0  0  0  0
    3.7790   -1.7056    5.0133 H   0  0  0  0  0  0  0  0  0  0  0  0
    3.2877    2.1962   -2.7574 H   0  0  0  0  0  0  0  0  0  0  0  0
    4.9632    3.9269   -2.2765 H   0  0  0  0  0  0  0  0  0  0  0  0
    8.4733    2.6785    0.7337 H   0  0  0  0  0  0  0  0  0  0  0  0
    9.5227    3.9516    0.0711 H   0  0  0  0  0  0  0  0  0  0  0  0
    9.3533    2.4174   -0.8080 H   0  0  0  0  0  0  0  0  0  0  0  0
    7.5416    0.9631   -0.5798 H   0  0  0  0  0  0  0  0  0  0  0  0
    5.8902   -0.7541   -1.0777 H   0  0  0  0  0  0  0  0  0  0  0  0
    0.9284   -0.9563   -2.0660 H   0  0  0  0  0  0  0  0  0  0  0  0
   -0.6748   -0.8251   -3.9126 H   0  0  0  0  0  0  0  0  0  0  0  0
   -0.7312    1.7540   -8.1725 H   0  0  0  0  0  0  0  0  0  0  0  0
    0.8464    0.9426   -8.3606 H   0  0  0  0  0  0  0  0  0  0  0  0
    0.6033    2.1471   -7.0578 H   0  0  0  0  0  0  0  0  0  0  0  0
    2.4157    0.6660   -6.4696 H   0  0  0  0  0  0  0  0  0  0  0  0
    4.0297    0.4431   -4.6533 H   0  0  0  0  0  0  0  0  0  0  0  0
    3.7411   -2.6238   -4.1432 H   0  0  0  0  0  0  0  0  0  0  0  0
    1.9334   -1.3884   -8.4059 H   0  0  0  0  0  0  0  0  0  0  0  0
    4.2073   -0.8875   -9.4471 H   0  0  0  0  0  0  0  0  0  0  0  0
    7.3465   -3.4175   -6.7175 H   0  0  0  0  0  0  0  0  0  0  0  0
    8.7663   -2.6140   -7.4292 H   0  0  0  0  0  0  0  0  0  0  0  0
    6.6493   -1.2366   -5.6866 H   0  0  0  0  0  0  0  0  0  0  0  0
    8.2739   -1.6808   -5.1529 H   0  0  0  0  0  0  0  0  0  0  0  0
    8.0593   -0.4457   -6.4024 H   0  0  0  0  0  0  0  0  0  0  0  0
   -1.5319   -6.1567   -3.1152 H   0  0  0  0  0  0  0  0  0  0  0  0
   -3.7145   -5.9211   -1.7538 H   0  0  0  0  0  0  0  0  0  0  0  0
   -7.3059   -2.4543   -2.5956 H   0  0  0  0  0  0  0  0  0  0  0  0
   -5.8325   -2.1308   -3.5323 H   0  0  0  0  0  0  0  0  0  0  0  0
   -5.8775   -4.4646   -4.4220 H   0  0  0  0  0  0  0  0  0  0  0  0
   -7.3292   -4.8100   -3.4737 H   0  0  0  0  0  0  0  0  0  0  0  0
   -7.3964   -3.6387   -4.7988 H   0  0  0  0  0  0  0  0  0  0  0  0
   -2.8395   -3.9590   -6.4665 H   0  0  0  0  0  0  0  0  0  0  0  0
   -2.5046   -4.1116   -9.9778 H   0  0  0  0  0  0  0  0  0  0  0  0
   -4.5187   -4.4029   -8.6376 H   0  0  0  0  0  0  0  0  0  0  0  0
   -5.5639   -2.4716   -7.5441 H   0  0  0  0  0  0  0  0  0  0  0  0
   -4.4387    3.6925   -4.9998 H   0  0  0  0  0  0  0  0  0  0  0  0
   -3.4414    3.5906   -6.4708 H   0  0  0  0  0  0  0  0  0  0  0  0
   -6.4766    4.0216   -6.4604 H   0  0  0  0  0  0  0  0  0  0  0  0
   -5.4385    3.9262   -7.8938 H   0  0  0  0  0  0  0  0  0  0  0  0
   -5.2598    5.2609   -6.7483 H   0  0  0  0  0  0  0  0  0  0  0  0
   -3.0631    0.1205   -9.5346 H   0  0  0  0  0  0  0  0  0  0  0  0
   -1.9723   -0.6450   -8.4048 H   0  0  0  0  0  0  0  0  0  0  0  0
   -3.3948   -1.9519  -10.7608 H   0  0  0  0  0  0  0  0  0  0  0  0
   -1.6561   -1.8229  -10.4563 H   0  0  0  0  0  0  0  0  0  0  0  0
  1  2  1  0  0  0  0
  2  3  1  0  0  0  0
  3  4  1  0  0  0  0
  4  5  2  0  0  0  0
  5  6  1  0  0  0  0
  6  7  3  0  0  0  0
  5  8  1  0  0  0  0
  8  9  3  0  0  0  0
  4 10  1  0  0  0  0
 10 11  1  0  0  0  0
 11 12  1  0  0  0  0
 12 13  2  0  0  0  0
 11 14  2  0  0  0  0
 14 15  1  0  0  0  0
 15 16  2  0  0  0  0
 16 17  1  0  0  0  0
 17 18  1  0  0  0  0
 18 19  1  0  0  0  0
 17 20  1  0  0  0  0
 20 21  2  0  0  0  0
 21 22  1  0  0  0  0
 22 23  1  0  0  0  0
 23 24  2  0  0  0  0
 24 25  1  0  0  0  0
 25 26  2  0  0  0  0
 26 27  1  0  0  0  0
 27 28  1  0  0  0  0
 26 29  1  0  0  0  0
 29 30  2  0  0  0  0
 22 31  1  0  0  0  0
 31 32  2  0  0  0  0
 32 33  1  0  0  0  0
 33 34  2  0  0  0  0
 34 35  1  0  0  0  0
 35 36  1  0  0  0  0
 34 37  1  0  0  0  0
 37 38  2  0  0  0  0
 21 39  1  0  0  0  0
 39 40  1  0  0  0  0
 40 41  1  0  0  0  0
 41 42  2  0  0  0  0
 42 43  1  0  0  0  0
 43 44  1  0  0  0  0
 44 45  2  0  0  0  0
 45 46  1  0  0  0  0
 46 47  2  0  0  0  0
 47 48  1  0  0  0  0
 48 49  1  0  0  0  0
 47 50  1  0  0  0  0
 50 51  2  0  0  0  0
 43 52  1  0  0  0  0
 52 53  2  0  0  0  0
 53 54  1  0  0  0  0
 54 55  2  0  0  0  0
 55 56  1  0  0  0  0
 56 57  1  0  0  0  0
 55 58  1  0  0  0  0
 58 59  2  0  0  0  0
 42 60  1  0  0  0  0
 60 61  1  0  0  0  0
 41 62  1  0  0  0  0
 62 63  2  0  0  0  0
 63 64  1  0  0  0  0
 64 65  1  0  0  0  0
 65 66  2  0  0  0  0
 66 67  1  0  0  0  0
 67 68  2  0  0  0  0
 68 69  1  0  0  0  0
 69 70  1  0  0  0  0
 68 71  1  0  0  0  0
 71 72  2  0  0  0  0
 64 73  1  0  0  0  0
 73 74  2  0  0  0  0
 74 75  1  0  0  0  0
 75 76  2  0  0  0  0
 76 77  1  0  0  0  0
 77 78  1  0  0  0  0
 76 79  1  0  0  0  0
 79 80  2  0  0  0  0
 63 81  1  0  0  0  0
 81 82  1  0  0  0  0
 82 83  1  0  0  0  0
 83 84  2  0  0  0  0
 84 85  1  0  0  0  0
 85 86  1  0  0  0  0
 86 87  2  0  0  0  0
 87 88  1  0  0  0  0
 88 89  2  0  0  0  0
 89 90  1  0  0  0  0
 90 91  1  0  0  0  0
 89 92  1  0  0  0  0
 92 93  2  0  0  0  0
 85 94  1  0  0  0  0
 94 95  2  0  0  0  0
 95 96  1  0  0  0  0
 96 97  2  0  0  0  0
 97 98  1  0  0  0  0
 98 99  1  0  0  0  0
 97100  1  0  0  0  0
100101  2  0  0  0  0
 84102  1  0  0  0  0
102103  1  0  0  0  0
 83104  1  0  0  0  0
104105  2  0  0  0  0
105106  1  0  0  0  0
106107  2  0  0  0  0
107108  1  0  0  0  0
108109  2  0  0  0  0
109110  1  0  0  0  0
110111  2  0  0  0  0
111112  1  0  0  0  0
112113  1  0  0  0  0
113114  1  0  0  0  0
111115  1  0  0  0  0
107116  1  0  0  0  0
116117  2  0  0  0  0
117118  1  0  0  0  0
118119  1  0  0  0  0
119120  2  0  0  0  0
120121  1  0  0  0  0
121122  2  0  0  0  0
122123  1  0  0  0  0
123124  1  0  0  0  0
124125  1  0  0  0  0
122126  1  0  0  0  0
118127  2  0  0  0  0
127128  1  0  0  0  0
117129  1  0  0  0  0
129130  2  0  0  0  0
130131  1  0  0  0  0
130132  1  0  0  0  0
132133  1  0  0  0  0
133134  2  0  0  0  0
134135  1  0  0  0  0
135136  2  0  0  0  0
136137  1  0  0  0  0
137138  1  0  0  0  0
138139  2  0  0  0  0
139140  1  0  0  0  0
140141  3  0  0  0  0
139142  1  0  0  0  0
142143  3  0  0  0  0
138144  1  0  0  0  0
144145  1  0  0  0  0
145146  1  0  0  0  0
144147  1  0  0  0  0
147148  2  0  0  0  0
135149  1  0  0  0  0
149150  1  0  0  0  0
 12  3  1  0  0  0  0
 19 14  1  0  0  0  0
 61 20  1  0  0  0  0
103 62  1  0  0  0  0
128104  1  0  0  0  0
150132  1  0  0  0  0
 30 23  1  0  0  0  0
 38 31  1  0  0  0  0
 60 39  2  0  0  0  0
 72 65  1  0  0  0  0
 80 73  1  0  0  0  0
102 81  2  0  0  0  0
127106  1  0  0  0  0
147136  1  0  0  0  0
 51 44  1  0  0  0  0
 59 52  1  0  0  0  0
 93 86  1  0  0  0  0
101 94  1  0  0  0  0
115108  1  0  0  0  0
131116  1  0  0  0  0
126119  1  0  0  0  0
  1151  1  0  0  0  0
  1152  1  0  0  0  0
  1153  1  0  0  0  0
  2154  1  0  0  0  0
  2155  1  0  0  0  0
 15156  1  0  0  0  0
 16157  1  0  0  0  0
 17158  1  0  0  0  0
 18159  1  0  0  0  0
 18160  1  0  0  0  0
 19161  1  0  0  0  0
 19162  1  0  0  0  0
 24163  1  0  0  0  0
 25164  1  0  0  0  0
 28165  1  0  0  0  0
 28166  1  0  0  0  0
 28167  1  0  0  0  0
 29168  1  0  0  0  0
 30169  1  0  0  0  0
 32170  1  0  0  0  0
 33171  1  0  0  0  0
 36172  1  0  0  0  0
 36173  1  0  0  0  0
 36174  1  0  0  0  0
 37175  1  0  0  0  0
 38176  1  0  0  0  0
 45177  1  0  0  0  0
 46178  1  0  0  0  0
 49179  1  0  0  0  0
 49180  1  0  0  0  0
 49181  1  0  0  0  0
 50182  1  0  0  0  0
 51183  1  0  0  0  0
 53184  1  0  0  0  0
 54185  1  0  0  0  0
 57186  1  0  0  0  0
 57187  1  0  0  0  0
 57188  1  0  0  0  0
 58189  1  0  0  0  0
 59190  1  0  0  0  0
 66191  1  0  0  0  0
 67192  1  0  0  0  0
 70193  1  0  0  0  0
 70194  1  0  0  0  0
 70195  1  0  0  0  0
 71196  1  0  0  0  0
 72197  1  0  0  0  0
 74198  1  0  0  0  0
 75199  1  0  0  0  0
 78200  1  0  0  0  0
 78201  1  0  0  0  0
 78202  1  0  0  0  0
 79203  1  0  0  0  0
 80204  1  0  0  0  0
 87205  1  0  0  0  0
 88206  1  0  0  0  0
 91207  1  0  0  0  0
 91208  1  0  0  0  0
 91209  1  0  0  0  0
 92210  1  0  0  0  0
 93211  1  0  0  0  0
 95212  1  0  0  0  0
 96213  1  0  0  0  0
 99214  1  0  0  0  0
 99215  1  0  0  0  0
 99216  1  0  0  0  0
100217  1  0  0  0  0
101218  1  0  0  0  0
105219  1  0  0  0  0
109220  1  0  0  0  0
110221  1  0  0  0  0
113222  1  0  0  0  0
113223  1  0  0  0  0
114224  1  0  0  0  0
114225  1  0  0  0  0
114226  1  0  0  0  0
120227  1  0  0  0  0
121228  1  0  0  0  0
124229  1  0  0  0  0
124230  1  0  0  0  0
125231  1  0  0  0  0
125232  1  0  0  0  0
125233  1  0  0  0  0
129234  1  0  0  0  0
132235  1  0  0  0  0
133236  1  0  0  0  0
134237  1  0  0  0  0
145238  1  0  0  0  0
145239  1  0  0  0  0
146240  1  0  0  0  0
146241  1  0  0  0  0
146242  1  0  0  0  0
149243  1  0  0  0  0
149244  1  0  0  0  0
150245  1  0  0  0  0
150246  1  0  0  0  0
M  END
