220

C          2.09360        1.67140        9.55970
C          3.35510        2.45390        9.89620
N          4.06310        2.88930        8.70450
C          3.79550        4.02260        8.01030
C          2.80380        4.95090        8.21170
C          2.68770        6.01180        7.29110
N          2.58700        6.85130        6.51470
C          1.84850        4.95520        9.24200
N          1.04560        5.02290       10.06020
S          4.92970        4.25450        6.69850
C          5.69870        2.70950        7.03890
C          5.07410        2.07650        8.19450
O          5.37700        1.02180        8.70420
C          6.72500        2.25010        6.27810
C          7.24740        0.91280        6.40450
C          7.76990        0.29870        5.33640
C          7.83060        1.01930        4.01770
C          8.31690        2.43910        4.34030
C          7.29320        3.14570        5.21720
C          6.46870        0.97210        3.37450
C          5.91400        1.75170        2.38830
N          6.46710        2.89040        1.79670
C          5.66810        4.04410        1.77700
C          5.74710        4.97540        0.74070
C          4.98040        6.11860        0.77220
C          4.10210        6.36400        1.82750
S          3.20370        7.87950        1.78380
C          2.14150        7.80780        3.25360
C          3.98210        5.41960        2.83680
C          4.75460        4.27570        2.80480
C          7.71330        2.81560        1.17570
C          8.15990        1.60610        0.64780
C          9.40700        1.50200        0.06200
C         10.23460        2.61250       -0.01520
S         11.84740        2.60510       -0.73640
C         11.96910        0.96880       -1.51320
C          9.79760        3.82460        0.51700
C          8.56020        3.92700        1.11000
C          4.60460        1.30640        2.05630
S          3.42380        1.80350        0.90300
C          2.33750        0.54490        1.44560
C          2.86410       -0.20860        2.47100
N          2.22010       -1.26980        3.13730
C          1.56140       -0.97630        4.32660
C          0.62980       -1.85140        4.88250
C         -0.05220       -1.53250        6.03990
C          0.15860       -0.31380        6.66630
S         -0.72260        0.22090        8.10600
C         -1.51840       -1.29830        8.70100
C          1.07270        0.57550        6.11090
C          1.76810        0.24910        4.96850
C          2.37440       -2.55890        2.61480
C          2.41910       -2.75860        1.23680
C          2.54380       -4.02580        0.69860
C          2.63370       -5.13090        1.53150
S          2.73180       -6.79910        0.95950
C          2.83490       -6.63800       -0.84480
C          2.64900       -4.93470        2.91190
C          2.53530       -3.67090        3.44660
C          4.17390        0.21840        2.79140
S          5.39270       -0.31310        3.89460
C          1.09310        0.30430        0.73780
C         -0.13230        0.03250        1.37960
N         -0.46960        0.07680        2.67480
N         -1.73500       -0.21740        2.69080
C         -2.48200       -0.25400        3.91550
C         -2.40280        1.08860        4.62910
N         -2.30100       -0.46170        1.54420
C         -1.31230       -0.31560        0.65040
C         -1.30370       -0.43800       -0.74870
C         -0.10590       -0.12410       -1.35520
C          1.04700        0.24850       -0.64340
F          2.16060        0.47660       -1.36380
F         -0.00300       -0.22160       -2.69340
C         -2.40930       -0.92660       -1.57330
C         -2.63610       -2.24750       -1.87320
N         -1.97720       -3.31270       -1.25530
C         -2.07100       -3.44030        0.13300
C         -0.98150       -3.87250        0.88820
C         -1.09400       -4.01730        2.25270
C         -2.29100       -3.71530        2.89490
S         -2.33830       -3.89890        4.65580
C         -4.11210       -4.08070        5.00870
C         -3.37240       -3.26370        2.15270
C         -3.26410       -3.13460        0.78320
C         -1.25730       -4.21620       -2.03790
C         -0.68220       -3.80570       -3.23820
C          0.03710       -4.69170       -4.01850
C          0.19770       -6.00720       -3.60950
S          1.12880       -7.22430       -4.49210
C          1.74160       -6.33500       -5.95040
C         -0.39450       -6.42840       -2.41910
C         -1.11680       -5.54930       -1.64530
C         -3.60610       -2.37490       -2.89860
S         -4.29800       -3.68770       -3.77710
C         -5.25780       -2.58680       -4.74110
C         -5.06960       -1.27390       -4.37810
N         -5.66490       -0.12720       -4.94320
C         -6.98400        0.18570       -4.65510
C         -7.68930        1.12170       -5.41750
C         -9.02700        1.35530       -5.18500
C         -9.70350        0.64550       -4.20580
S        -11.45960        0.87690       -4.00990
C        -11.99910       -0.69740       -4.75410
C         -9.00930       -0.24880       -3.40730
C         -7.66360       -0.47030       -3.62150
C         -4.78280        0.78800       -5.55070
C         -3.72160        0.30940       -6.31830
C         -2.89260        1.18080       -6.98820
C         -3.10190        2.55550       -6.91420
S         -2.02670        3.58400       -7.85630
C         -2.92750        5.15690       -7.95060
C         -4.10870        3.03980       -6.08910
C         -4.92660        2.16510       -5.40170
C         -4.11190       -1.16400       -3.33400
S         -3.40740        0.17000       -2.49200
C         -6.01400       -3.17780       -5.90410
C         -5.38660       -2.58330       -7.13000
C         -6.02450       -1.74860       -7.95050
C         -7.44060       -1.52000       -7.80550
C         -8.00580       -0.35240       -8.18900
S         -7.03740        0.98830       -8.80310
C         -8.42910        2.04620       -8.77770
C         -8.26890        3.38580       -9.03000
C         -6.96700        3.89830       -9.19770
N         -5.90980        4.33500       -9.29070
C         -9.27980        4.35960       -9.10690
N        -10.05260        5.20380       -9.20000
N         -9.56290        1.37570       -8.44540
C        -10.89190        1.96010       -8.42310
C        -11.49730        2.02040       -9.81960
C         -9.40470        0.04530       -8.08250
O        -10.33480       -0.64370       -7.71980
C         -8.17450       -2.65900       -7.17480
C         -7.53520       -2.96190       -5.81710
H          1.36630        2.29210        9.04280
H          2.33720        0.81380        8.93730
H          1.63620        1.31630       10.47780
H          3.12290        3.32640       10.50920
H          4.05420        1.80720       10.43430
H          7.12090        0.40620        7.34800
H          8.11760       -0.72050        5.39210
H          8.55300        0.53500        3.34810
H          8.50260        3.01570        3.43760
H          9.26440        2.34490        4.87580
H          7.75000        4.01190        5.70550
H          6.47880        3.53700        4.60260
H          6.40640        4.79470       -0.09430
H          5.04970        6.83860       -0.02850
H          1.45730        6.96820        3.17270
H          2.73910        7.74210        4.15770
H          1.58200        8.73810        3.25020
H          3.30330        5.56380        3.66160
H          4.63070        3.54980        3.59620
H          7.51780        0.73840        0.68630
H          9.71460        0.54800       -0.33530
H         12.91470        0.96900       -2.04630
H         11.97610        0.19130       -0.75460
H         11.15010        0.83200       -2.21310
H         10.44790        4.68410        0.46560
H          8.24360        4.86880        1.53260
H          0.40000       -2.78420        4.39470
H         -0.75910       -2.24820        6.42760
H         -1.95790       -1.04220        9.65990
H         -0.77120       -2.07550        8.82970
H         -2.29680       -1.61320        8.01180
H          1.22630        1.53540        6.58080
H          2.46550        0.96540        4.56360
H          2.34850       -1.91890        0.56490
H          2.56100       -4.13140       -0.37490
H          2.93210       -7.65000       -1.22530
H          1.92560       -6.18930       -1.23540
H          3.71240       -6.05730       -1.11410
H          2.76020       -5.79030        3.56040
H          2.58300       -3.53720        4.51620
H         -3.50720       -0.50840        3.64300
H         -2.05380       -1.03660        4.54900
H         -1.36230        1.33970        4.81570
H         -2.85520        1.87220        4.02610
H         -2.92330        1.03380        5.58050
H         -0.04480       -4.09650        0.40250
H         -0.25020       -4.37170        2.82430
H         -4.17590       -4.44350        6.02980
H         -4.54100       -4.81000        4.32880
H         -4.61800       -3.12270        4.92790
H         -4.30790       -3.01530        2.62780
H         -4.11180       -2.78870        0.21200
H         -0.78280       -2.77990       -3.56050
H          0.47420       -4.33380       -4.93650
H          2.32410       -7.06000       -6.51020
H          0.90690       -5.98870       -6.55280
H          2.37730       -5.50960       -5.64330
H         -0.28630       -7.45840       -2.11470
H         -1.57810       -5.89070       -0.73130
H         -7.17870        1.66230       -6.19770
H         -9.56390        2.09050       -5.76510
H        -11.67120       -1.52590       -4.13300
H        -11.58500       -0.78150       -5.75520
H        -13.08260       -0.66480       -4.79390
H         -9.52250       -0.77170       -2.61440
H         -7.12850       -1.15880       -2.98340
H         -3.55520       -0.75340       -6.39540
H         -2.08030        0.80530       -7.59100
H         -2.91060        5.66030       -6.98800
H         -3.94180        4.96910       -8.29080
H         -2.39430        5.75410       -8.68360
H         -4.26000        4.09980       -5.96500
H         -5.67900        2.56050       -4.73580
H         -5.79930       -4.25350       -5.90480
H         -4.33700       -2.80140       -7.26570
H         -5.49910       -1.22690       -8.73860
H        -11.49470        1.30960       -7.78340
H        -10.84370        2.95590       -7.97880
H        -11.55560        1.02250      -10.24870
H        -10.90670        2.65600      -10.47530
H        -12.49940        2.43360       -9.75720
H         -8.08180       -3.53050       -7.82860
H         -9.22960       -2.42790       -7.04610
H         -8.00320       -3.85140       -5.39390
H         -7.74950       -2.12850       -5.15000
