209

C         -8.89790        6.04020        5.09120
C         -8.04040        5.77910        3.85900
N         -8.11570        4.39030        3.44820
C         -7.42040        3.37870        4.02070
C         -6.43810        3.43630        4.97810
C         -5.98890        4.58190        5.65660
N         -5.59020        5.47120        6.26450
C         -5.74580        2.25180        5.29410
N         -5.16300        1.28470        5.50340
S         -7.89620        1.82900        3.36270
C         -8.94490        2.60130        2.18340
C         -8.94350        4.04690        2.38370
O         -9.57390        4.87410        1.76320
C         -9.61280        1.87950        1.24440
C        -10.28110        2.51740        0.14240
C        -10.52950        1.85670       -0.99330
C        -10.19660        0.40240       -1.15750
C        -10.36620       -0.29710        0.19770
C         -9.57460        0.38190        1.31120
C         -8.82700        0.24370       -1.74980
C         -8.52960       -0.12750       -3.02540
C         -7.14150       -0.20280       -3.27250
Cl        -6.48280       -0.59470       -4.80910
C         -6.36610        0.10430       -2.18640
S         -7.38130        0.55070       -0.84730
C         -4.95000       -0.01770       -1.99490
C         -4.15850       -1.11680       -2.27000
N         -4.60390       -2.30430       -2.83780
C         -3.86830       -2.86870       -3.88500
C         -3.88080       -4.24190       -4.11370
C         -3.18000       -4.78920       -5.17250
C         -2.42790       -3.97530       -6.00960
S         -1.52700       -4.54430       -7.41520
C         -1.61440       -6.35150       -7.29660
C         -2.38860       -2.60430       -5.76450
C         -3.10400       -2.05640       -4.72500
C         -5.84540       -2.80690       -2.43080
C         -6.23590       -2.66960       -1.09720
C         -7.49650       -3.04590       -0.69590
C         -8.39790       -3.57730       -1.61400
S        -10.02400       -3.93410       -1.01380
C        -10.75920       -4.94830       -2.32640
C         -7.99780       -3.77000       -2.92800
C         -6.73110       -3.39320       -3.33070
C         -2.83410       -0.90570       -1.81440
S         -1.40520       -1.86560       -1.83040
C         -0.54770       -0.63770       -0.90190
C         -1.31680        0.48740       -0.67480
N         -0.84560        1.66600       -0.11060
C         -1.72890        2.52040        0.56140
C         -2.76300        1.99730        1.33700
C         -3.65200        2.83280        1.97660
C         -3.52970        4.21130        1.85270
S         -4.74300        5.20720        2.66390
C         -3.88220        6.78120        2.94030
C         -2.50260        4.74240        1.08460
C         -1.61080        3.90450        0.44650
C          0.47310        2.06790       -0.35820
C          1.07980        1.80870       -1.58660
C          2.40050        2.13910       -1.80670
C          3.12880        2.77440       -0.81160
S          4.84270        3.17640       -1.01030
C          4.97530        3.48750       -2.79490
C          2.51920        3.08640        0.39850
C          1.20600        2.72870        0.62690
C         -2.63370        0.30480       -1.17350
S         -4.08570        1.24350       -1.13420
C          0.82380       -0.89630       -0.55500
C          1.43820       -0.94040        0.68330
N          0.81710       -0.77780        1.90800
C          1.57400       -0.34990        3.01290
C          1.39070       -0.93010        4.26900
C          2.14510       -0.51310        5.34180
C          3.10290        0.49010        5.19300
S          4.02140        0.92840        6.63200
C          5.05950        2.31390        6.09010
C          3.28930        1.07040        3.94700
C          2.53180        0.64960        2.87060
C         -0.51430       -1.18050        2.08830
C         -1.35000       -0.47600        2.95000
C         -2.68150       -0.82340        3.08620
C         -3.20500       -1.86860        2.33670
S         -4.91020       -2.33260        2.36600
C         -5.74350       -0.81870        2.91960
C         -2.35950       -2.61710        1.52180
C         -1.02660       -2.28930        1.41280
C          2.81420       -1.26840        0.53990
S          4.13030       -1.50020        1.63060
C          5.21280       -1.93360        0.31850
C          4.57310       -1.90870       -0.89280
N          5.08560       -2.31560       -2.13890
C          6.01870       -1.52150       -2.80610
C          6.82200       -2.07620       -3.80530
C          7.78740       -1.31400       -4.42240
C          7.98460        0.01620       -4.05280
S          9.27730        0.88690       -4.88160
C          9.34260        2.48460       -4.02320
C          7.17780        0.57640       -3.07390
C          6.20130       -0.18530       -2.46180
C          4.21750       -3.18500       -2.82000
C          3.61540       -4.20880       -2.08660
C          2.60480       -4.96710       -2.63480
C          2.18160       -4.71710       -3.93280
S          0.78300       -5.56140       -4.61400
C         -0.33630       -5.55690       -3.17750
C          2.84260       -3.76890       -4.70280
C          3.85310       -3.00610       -4.15340
C          3.21250       -1.51660       -0.75610
S          1.91020       -1.34420       -1.86970
C          6.62330       -2.35950        0.63750
C          7.64470       -1.69810       -0.24450
C          8.10010       -0.47240        0.03570
C          7.56310        0.25680        1.15390
C          7.45500        1.61080        1.15840
S          6.55170        2.45170        2.41060
C          6.71980        3.97240        1.56990
C          6.03290        5.07540        2.01200
C          5.15160        4.92380        3.09980
N          4.41560        4.78230        3.96950
C          6.06590        6.36770        1.46280
N          6.04740        7.44640        1.06840
N          7.54310        3.85400        0.49960
C          7.95440        4.95880       -0.34410
C          9.06870        5.77230        0.30240
C          7.95780        2.56530        0.18290
O          8.65950        2.33220       -0.77910
C          7.03350       -0.51820        2.32160
C          7.01020       -2.02730        2.08480
H         -9.93480        5.77840        4.89160
H         -8.84750        7.09420        5.34680
H         -8.54340        5.46560        5.94370
H         -8.41490        6.35950        3.01180
H         -6.99830        6.04090        4.04350
H        -10.49090        3.57170        0.23040
H        -10.94900        2.36960       -1.84530
H        -10.89550       -0.04670       -1.87120
H        -11.42920       -0.26750        0.44500
H        -10.06860       -1.34290        0.11540
H         -9.97450        0.06970        2.28100
H         -8.53030        0.05750        1.29490
H         -9.26580       -0.35320       -3.77480
H         -4.44990       -4.88620       -3.45930
H         -3.23090       -5.85470       -5.33470
H         -1.01950       -6.72500       -8.12400
H         -1.17720       -6.67490       -6.35680
H         -2.64230       -6.68700       -7.40170
H         -1.80250       -1.97330       -6.41460
H         -3.08920       -0.98800       -4.56850
H         -5.54600       -2.26400       -0.37350
H         -7.79110       -2.93340        0.33610
H        -10.10390       -5.78490       -2.54970
H        -11.70070       -5.31090       -1.92570
H        -10.94440       -4.34470       -3.21040
H         -8.66840       -4.19310       -3.65880
H         -6.44110       -3.52540       -4.36200
H         -2.85220        0.93010        1.45180
H         -4.44330        2.42000        2.58390
H         -4.44810        7.30130        3.70730
H         -3.86680        7.36880        2.02660
H         -2.87800        6.57730        3.29760
H         -2.39810        5.80910        0.96370
H         -0.82450        4.32890       -0.16000
H          0.51560        1.33590       -2.37610
H          2.85200        1.89390       -2.75520
H          4.13910        4.10510       -3.10810
H          5.90810        4.02450       -2.93870
H          5.00100        2.54900       -3.34190
H          3.08240        3.59330        1.16800
H          0.74650        2.95050        1.57820
H          0.65680       -1.71180        4.39570
H          2.00610       -0.96450        6.31200
H          5.78020        1.97350        5.35130
H          5.57760        2.65310        6.98170
H          4.44370        3.11550        5.69300
H          4.01130        1.85690        3.79870
H          2.68200        1.10950        1.90660
H         -0.95940        0.36250        3.50700
H         -3.30160       -0.25740        3.76290
H         -5.48590       -0.00070        2.25230
H         -5.48500       -0.58170        3.94730
H         -6.80590       -1.03130        2.85370
H         -2.76040       -3.45740        0.97540
H         -0.37570       -2.89020        0.79570
H          6.68830       -3.11170       -4.08040
H          8.41390       -1.74360       -5.18900
H          9.42500        2.32620       -2.95230
H         10.23190        2.98170       -4.39830
H          8.46180        3.07180       -4.27090
H          7.30950        1.59840       -2.76280
H          5.58040        0.26060       -1.69750
H          3.92380       -4.38350       -1.06600
H          2.13820       -5.73960       -2.04350
H         -0.26060       -4.59580       -2.67830
H         -0.09330       -6.37160       -2.50130
H         -1.34130       -5.68570       -3.56630
H          2.52700       -3.60330       -5.72130
H          4.32340       -2.23220       -4.74090
H          6.68130       -3.44620        0.49150
H          8.00370       -2.23560       -1.10720
H          8.79980        0.02990       -0.61260
H          8.31760        4.50590       -1.27090
H          7.08810        5.58600       -0.56270
H          9.37200        6.56630       -0.37330
H          8.73410        6.22630        1.23200
H          9.92890        5.13810        0.50600
H          6.03190       -0.14960        2.56410
H          7.65850       -0.29500        3.19170
H          8.00390       -2.44170        2.26620
H          6.31480       -2.49540        2.78230
