
  xtb     02162206293D
 energy: -351.567056483067 gnorm: 0.000701085421 xtb: 6.4.1 (unknown)
216232  0     0  0            999 V2000
   11.6325   -5.7031    7.9228 C   0  0  0  0  0  0  0  0  0  0  0  0
   12.3234   -6.0042    6.5983 C   0  0  0  0  0  0  0  0  0  0  0  0
   11.6531   -5.3528    5.4875 N   0  0  0  0  0  0  0  0  0  0  0  0
   11.8226   -4.0531    5.1363 C   0  0  0  0  0  0  0  0  0  0  0  0
   12.6658   -3.1172    5.6823 C   0  0  0  0  0  0  0  0  0  0  0  0
   13.5475   -3.3010    6.7605 C   0  0  0  0  0  0  0  0  0  0  0  0
   14.2881   -3.3823    7.6347 N   0  0  0  0  0  0  0  0  0  0  0  0
   12.6841   -1.8197    5.1330 C   0  0  0  0  0  0  0  0  0  0  0  0
   12.7017   -0.7651    4.6803 N   0  0  0  0  0  0  0  0  0  0  0  0
   10.7982   -3.6162    3.7935 S   0  0  0  0  0  0  0  0  0  0  0  0
   10.1270   -5.2379    3.7113 C   0  0  0  0  0  0  0  0  0  0  0  0
   10.7289   -6.0793    4.7435 C   0  0  0  0  0  0  0  0  0  0  0  0
   10.5071   -7.2499    4.9620 O   0  0  0  0  0  0  0  0  0  0  0  0
    9.1841   -5.5838    2.7954 C   0  0  0  0  0  0  0  0  0  0  0  0
    8.6515   -6.9173    2.7052 C   0  0  0  0  0  0  0  0  0  0  0  0
    7.7688   -7.2718    1.7642 C   0  0  0  0  0  0  0  0  0  0  0  0
    7.2643   -6.3248    0.7175 C   0  0  0  0  0  0  0  0  0  0  0  0
    8.2821   -5.2000    0.5050 C   0  0  0  0  0  0  0  0  0  0  0  0
    8.6443   -4.5632    1.8418 C   0  0  0  0  0  0  0  0  0  0  0  0
    5.9217   -5.7884    1.1284 C   0  0  0  0  0  0  0  0  0  0  0  0
    5.0257   -6.3161    2.0037 C   0  0  0  0  0  0  0  0  0  0  0  0
    3.8422   -5.5567    2.1161 C   0  0  0  0  0  0  0  0  0  0  0  0
    2.4988   -6.0196    3.1660 S   0  0  0  0  0  0  0  0  0  0  0  0
    1.6507   -7.1855    2.0223 C   0  0  0  0  0  0  0  0  0  0  0  0
    0.4043   -7.7282    2.6869 C   0  0  0  0  0  0  0  0  0  0  0  0
    3.8395   -4.4186    1.3414 C   0  0  0  0  0  0  0  0  0  0  0  0
    5.3172   -4.3179    0.4253 S   0  0  0  0  0  0  0  0  0  0  0  0
    2.8073   -3.4545    1.1790 C   0  0  0  0  0  0  0  0  0  0  0  0
    2.8902   -2.2245    0.5431 C   0  0  0  0  0  0  0  0  0  0  0  0
    4.0513   -1.6192    0.0707 N   0  0  0  0  0  0  0  0  0  0  0  0
    3.9807   -1.0625   -1.2183 C   0  0  0  0  0  0  0  0  0  0  0  0
    4.3636    0.2535   -1.4754 C   0  0  0  0  0  0  0  0  0  0  0  0
    4.2597    0.7671   -2.7492 C   0  0  0  0  0  0  0  0  0  0  0  0
    3.7862   -0.0254   -3.7930 C   0  0  0  0  0  0  0  0  0  0  0  0
    3.7310    0.7136   -5.3935 S   0  0  0  0  0  0  0  0  0  0  0  0
    2.7844   -0.4759   -6.3893 C   0  0  0  0  0  0  0  0  0  0  0  0
    3.4075   -1.3365   -3.5420 C   0  0  0  0  0  0  0  0  0  0  0  0
    3.4931   -1.8441   -2.2602 C   0  0  0  0  0  0  0  0  0  0  0  0
    5.1522   -1.4177    0.9008 C   0  0  0  0  0  0  0  0  0  0  0  0
    5.0253   -1.4751    2.2907 C   0  0  0  0  0  0  0  0  0  0  0  0
    6.1288   -1.3253    3.0985 C   0  0  0  0  0  0  0  0  0  0  0  0
    7.3886   -1.0992    2.5480 C   0  0  0  0  0  0  0  0  0  0  0  0
    8.7319   -0.9404    3.6863 S   0  0  0  0  0  0  0  0  0  0  0  0
   10.0913   -0.3007    2.6729 C   0  0  0  0  0  0  0  0  0  0  0  0
    7.5206   -1.0329    1.1677 C   0  0  0  0  0  0  0  0  0  0  0  0
    6.4161   -1.1961    0.3551 C   0  0  0  0  0  0  0  0  0  0  0  0
    1.6197   -1.6133    0.4523 C   0  0  0  0  0  0  0  0  0  0  0  0
    1.0545   -0.1124   -0.1787 S   0  0  0  0  0  0  0  0  0  0  0  0
   -0.5928   -0.4800    0.3523 C   0  0  0  0  0  0  0  0  0  0  0  0
   -0.6650   -1.6936    1.0053 C   0  0  0  0  0  0  0  0  0  0  0  0
   -1.8230   -2.2790    1.5090 N   0  0  0  0  0  0  0  0  0  0  0  0
   -2.0158   -3.6479    1.3097 C   0  0  0  0  0  0  0  0  0  0  0  0
   -1.5116   -4.2674    0.1632 C   0  0  0  0  0  0  0  0  0  0  0  0
   -1.6770   -5.6197   -0.0322 C   0  0  0  0  0  0  0  0  0  0  0  0
   -2.3755   -6.3891    0.8944 C   0  0  0  0  0  0  0  0  0  0  0  0
   -2.5625   -8.1058    0.5108 S   0  0  0  0  0  0  0  0  0  0  0  0
   -3.3918   -8.7928    1.9716 C   0  0  0  0  0  0  0  0  0  0  0  0
   -2.8806   -5.7820    2.0350 C   0  0  0  0  0  0  0  0  0  0  0  0
   -2.6897   -4.4299    2.2451 C   0  0  0  0  0  0  0  0  0  0  0  0
   -2.6311   -1.5594    2.3993 C   0  0  0  0  0  0  0  0  0  0  0  0
   -2.0617   -0.7258    3.3624 C   0  0  0  0  0  0  0  0  0  0  0  0
   -2.8632   -0.0439    4.2532 C   0  0  0  0  0  0  0  0  0  0  0  0
   -4.2456   -0.1859    4.2001 C   0  0  0  0  0  0  0  0  0  0  0  0
   -5.1991    0.6522    5.4273 S   0  0  0  0  0  0  0  0  0  0  0  0
   -6.8381    0.7909    4.6569 C   0  0  0  0  0  0  0  0  0  0  0  0
   -4.8189   -1.0053    3.2363 C   0  0  0  0  0  0  0  0  0  0  0  0
   -4.0171   -1.6813    2.3406 C   0  0  0  0  0  0  0  0  0  0  0  0
    0.5997   -2.3340    1.0428 C   0  0  0  0  0  0  0  0  0  0  0  0
    1.1805   -3.8044    1.7447 S   0  0  0  0  0  0  0  0  0  0  0  0
   -1.5768    0.5126    0.0201 C   0  0  0  0  0  0  0  0  0  0  0  0
   -1.6332    1.1217   -1.2200 C   0  0  0  0  0  0  0  0  0  0  0  0
   -0.9478    0.6536   -2.3397 N   0  0  0  0  0  0  0  0  0  0  0  0
   -1.0511   -0.7004   -2.6605 C   0  0  0  0  0  0  0  0  0  0  0  0
   -2.2418   -1.3875   -2.4320 C   0  0  0  0  0  0  0  0  0  0  0  0
   -2.3550   -2.7306   -2.7310 C   0  0  0  0  0  0  0  0  0  0  0  0
   -1.2739   -3.4172   -3.2663 C   0  0  0  0  0  0  0  0  0  0  0  0
   -1.2925   -5.1384   -3.6691 S   0  0  0  0  0  0  0  0  0  0  0  0
   -3.0186   -5.6338   -3.4136 C   0  0  0  0  0  0  0  0  0  0  0  0
   -0.0780   -2.7371   -3.4888 C   0  0  0  0  0  0  0  0  0  0  0  0
    0.0342   -1.3981   -3.1902 C   0  0  0  0  0  0  0  0  0  0  0  0
   -0.1418    1.5437   -3.0546 C   0  0  0  0  0  0  0  0  0  0  0  0
    0.4968    2.5903   -2.3890 C   0  0  0  0  0  0  0  0  0  0  0  0
    1.2768    3.4845   -3.0853 C   0  0  0  0  0  0  0  0  0  0  0  0
    1.4408    3.3581   -4.4624 C   0  0  0  0  0  0  0  0  0  0  0  0
    2.4599    4.5689   -5.2436 S   0  0  0  0  0  0  0  0  0  0  0  0
    2.6459    3.9592   -6.9420 C   0  0  0  0  0  0  0  0  0  0  0  0
    0.8000    2.3243   -5.1310 C   0  0  0  0  0  0  0  0  0  0  0  0
    0.0159    1.4270   -4.4326 C   0  0  0  0  0  0  0  0  0  0  0  0
   -2.5135    2.2254   -1.2228 C   0  0  0  0  0  0  0  0  0  0  0  0
   -3.0115    3.3716   -2.4131 S   0  0  0  0  0  0  0  0  0  0  0  0
   -4.0361    4.1699   -1.2388 C   0  0  0  0  0  0  0  0  0  0  0  0
   -4.0268    3.5495   -0.0119 C   0  0  0  0  0  0  0  0  0  0  0  0
   -4.7622    3.9606    1.0983 N   0  0  0  0  0  0  0  0  0  0  0  0
   -6.1027    4.3288    0.9240 C   0  0  0  0  0  0  0  0  0  0  0  0
   -6.6276    5.4600    1.5538 C   0  0  0  0  0  0  0  0  0  0  0  0
   -7.9208    5.8560    1.2992 C   0  0  0  0  0  0  0  0  0  0  0  0
   -8.7228    5.1378    0.4127 C   0  0  0  0  0  0  0  0  0  0  0  0
  -10.3448    5.7717    0.1208 S   0  0  0  0  0  0  0  0  0  0  0  0
  -10.9120    4.8435   -1.3328 C   0  0  0  0  0  0  0  0  0  0  0  0
   -8.2220    3.9861   -0.1778 C   0  0  0  0  0  0  0  0  0  0  0  0
   -6.9255    3.5860    0.0817 C   0  0  0  0  0  0  0  0  0  0  0  0
   -4.1661    3.9510    2.3633 C   0  0  0  0  0  0  0  0  0  0  0  0
   -2.7855    4.1051    2.5004 C   0  0  0  0  0  0  0  0  0  0  0  0
   -2.1950    4.0210    3.7410 C   0  0  0  0  0  0  0  0  0  0  0  0
   -2.9675    3.8180    4.8814 C   0  0  0  0  0  0  0  0  0  0  0  0
   -2.0986    3.6967    6.4136 S   0  0  0  0  0  0  0  0  0  0  0  0
   -3.3912    3.2851    7.6189 C   0  0  0  0  0  0  0  0  0  0  0  0
   -4.3465    3.7276    4.7584 C   0  0  0  0  0  0  0  0  0  0  0  0
   -4.9350    3.7743    3.5104 C   0  0  0  0  0  0  0  0  0  0  0  0
   -3.1378    2.4397   -0.0078 C   0  0  0  0  0  0  0  0  0  0  0  0
   -2.6686    1.2647    1.1742 S   0  0  0  0  0  0  0  0  0  0  0  0
   -4.8273    5.3641   -1.6651 C   0  0  0  0  0  0  0  0  0  0  0  0
   -5.9345    4.9805   -2.5995 C   0  0  0  0  0  0  0  0  0  0  0  0
   -6.4592    5.8516   -3.4671 C   0  0  0  0  0  0  0  0  0  0  0  0
   -6.0232    7.2191   -3.5496 C   0  0  0  0  0  0  0  0  0  0  0  0
   -6.6993    8.1087   -4.3238 C   0  0  0  0  0  0  0  0  0  0  0  0
   -8.1294    7.6810   -5.2593 S   0  0  0  0  0  0  0  0  0  0  0  0
   -8.2610    9.3080   -5.8855 C   0  0  0  0  0  0  0  0  0  0  0  0
   -9.2830    9.6261   -6.7437 C   0  0  0  0  0  0  0  0  0  0  0  0
   -9.5301   10.8774   -7.3329 C   0  0  0  0  0  0  0  0  0  0  0  0
   -9.7860   11.8697   -7.8518 N   0  0  0  0  0  0  0  0  0  0  0  0
  -10.2088    8.6245   -7.1044 C   0  0  0  0  0  0  0  0  0  0  0  0
  -10.9679    7.8160   -7.3979 N   0  0  0  0  0  0  0  0  0  0  0  0
   -7.2787   10.1087   -5.3995 N   0  0  0  0  0  0  0  0  0  0  0  0
   -7.0852   11.4996   -5.7672 C   0  0  0  0  0  0  0  0  0  0  0  0
   -6.3463   11.6302   -7.0936 C   0  0  0  0  0  0  0  0  0  0  0  0
   -6.3788    9.5174   -4.5191 C   0  0  0  0  0  0  0  0  0  0  0  0
   -5.4710   10.1356   -4.0073 O   0  0  0  0  0  0  0  0  0  0  0  0
   -4.8348    7.6246   -2.7333 C   0  0  0  0  0  0  0  0  0  0  0  0
   -3.9674    6.4285   -2.3561 C   0  0  0  0  0  0  0  0  0  0  0  0
   10.5986   -6.0395    7.8918 H   0  0  0  0  0  0  0  0  0  0  0  0
   12.1475   -6.2266    8.7225 H   0  0  0  0  0  0  0  0  0  0  0  0
   11.6537   -4.6383    8.1433 H   0  0  0  0  0  0  0  0  0  0  0  0
   13.3682   -5.6901    6.6221 H   0  0  0  0  0  0  0  0  0  0  0  0
   12.2715   -7.0764    6.3895 H   0  0  0  0  0  0  0  0  0  0  0  0
    9.0000   -7.6375    3.4284 H   0  0  0  0  0  0  0  0  0  0  0  0
    7.3837   -8.2803    1.7379 H   0  0  0  0  0  0  0  0  0  0  0  0
    7.1352   -6.8693   -0.2282 H   0  0  0  0  0  0  0  0  0  0  0  0
    7.8721   -4.4448   -0.1675 H   0  0  0  0  0  0  0  0  0  0  0  0
    9.1808   -5.6182    0.0464 H   0  0  0  0  0  0  0  0  0  0  0  0
    7.7482   -4.1153    2.2855 H   0  0  0  0  0  0  0  0  0  0  0  0
    9.3693   -3.7597    1.6955 H   0  0  0  0  0  0  0  0  0  0  0  0
    5.1867   -7.2142    2.5712 H   0  0  0  0  0  0  0  0  0  0  0  0
    1.4022   -6.6312    1.1171 H   0  0  0  0  0  0  0  0  0  0  0  0
    2.3591   -7.9798    1.7875 H   0  0  0  0  0  0  0  0  0  0  0  0
    0.6592   -8.2550    3.6037 H   0  0  0  0  0  0  0  0  0  0  0  0
   -0.2733   -6.9117    2.9288 H   0  0  0  0  0  0  0  0  0  0  0  0
   -0.0975   -8.4154    2.0090 H   0  0  0  0  0  0  0  0  0  0  0  0
    4.7302    0.8697   -0.6686 H   0  0  0  0  0  0  0  0  0  0  0  0
    4.5387    1.7897   -2.9517 H   0  0  0  0  0  0  0  0  0  0  0  0
    1.8267   -0.6698   -5.9152 H   0  0  0  0  0  0  0  0  0  0  0  0
    2.6314   -0.0001   -7.3532 H   0  0  0  0  0  0  0  0  0  0  0  0
    3.3537   -1.3910   -6.5244 H   0  0  0  0  0  0  0  0  0  0  0  0
    3.0555   -1.9775   -4.3342 H   0  0  0  0  0  0  0  0  0  0  0  0
    3.1905   -2.8624   -2.0636 H   0  0  0  0  0  0  0  0  0  0  0  0
    4.0561   -1.6346    2.7382 H   0  0  0  0  0  0  0  0  0  0  0  0
    6.0262   -1.3726    4.1717 H   0  0  0  0  0  0  0  0  0  0  0  0
   10.4068   -1.0476    1.9499 H   0  0  0  0  0  0  0  0  0  0  0  0
   10.9055   -0.1034    3.3651 H   0  0  0  0  0  0  0  0  0  0  0  0
    9.7794    0.6173    2.1846 H   0  0  0  0  0  0  0  0  0  0  0  0
    8.4820   -0.8650    0.7095 H   0  0  0  0  0  0  0  0  0  0  0  0
    6.5347   -1.1623   -0.7174 H   0  0  0  0  0  0  0  0  0  0  0  0
   -0.9873   -3.6823   -0.5766 H   0  0  0  0  0  0  0  0  0  0  0  0
   -1.2654   -6.0956   -0.9092 H   0  0  0  0  0  0  0  0  0  0  0  0
   -3.4775   -9.8588    1.7846 H   0  0  0  0  0  0  0  0  0  0  0  0
   -4.3815   -8.3581    2.0777 H   0  0  0  0  0  0  0  0  0  0  0  0
   -2.7859   -8.6198    2.8564 H   0  0  0  0  0  0  0  0  0  0  0  0
   -3.4134   -6.3498    2.7807 H   0  0  0  0  0  0  0  0  0  0  0  0
   -3.0630   -3.9797    3.1525 H   0  0  0  0  0  0  0  0  0  0  0  0
   -0.9882   -0.6221    3.4121 H   0  0  0  0  0  0  0  0  0  0  0  0
   -2.4229    0.5970    5.0009 H   0  0  0  0  0  0  0  0  0  0  0  0
   -6.7225    1.1379    3.6346 H   0  0  0  0  0  0  0  0  0  0  0  0
   -7.3832    1.5254    5.2415 H   0  0  0  0  0  0  0  0  0  0  0  0
   -7.3578   -0.1624    4.6949 H   0  0  0  0  0  0  0  0  0  0  0  0
   -5.8888   -1.1288    3.1787 H   0  0  0  0  0  0  0  0  0  0  0  0
   -4.4624   -2.3183    1.5906 H   0  0  0  0  0  0  0  0  0  0  0  0
   -3.0892   -0.8634   -2.0150 H   0  0  0  0  0  0  0  0  0  0  0  0
   -3.2904   -3.2300   -2.5368 H   0  0  0  0  0  0  0  0  0  0  0  0
   -3.6688   -5.0445   -4.0536 H   0  0  0  0  0  0  0  0  0  0  0  0
   -3.2869   -5.5290   -2.3659 H   0  0  0  0  0  0  0  0  0  0  0  0
   -3.0656   -6.6799   -3.7000 H   0  0  0  0  0  0  0  0  0  0  0  0
    0.7647   -3.2812   -3.8879 H   0  0  0  0  0  0  0  0  0  0  0  0
    0.9691   -0.8803   -3.3398 H   0  0  0  0  0  0  0  0  0  0  0  0
    0.3878    2.6870   -1.3190 H   0  0  0  0  0  0  0  0  0  0  0  0
    1.7763    4.2897   -2.5689 H   0  0  0  0  0  0  0  0  0  0  0  0
    3.3432    4.6392   -7.4212 H   0  0  0  0  0  0  0  0  0  0  0  0
    3.0619    2.9565   -6.9203 H   0  0  0  0  0  0  0  0  0  0  0  0
    1.6908    3.9881   -7.4586 H   0  0  0  0  0  0  0  0  0  0  0  0
    0.8961    2.2110   -6.1987 H   0  0  0  0  0  0  0  0  0  0  0  0
   -0.4917    0.6329   -4.9614 H   0  0  0  0  0  0  0  0  0  0  0  0
   -6.0039    6.0335    2.2233 H   0  0  0  0  0  0  0  0  0  0  0  0
   -8.3232    6.7401    1.7695 H   0  0  0  0  0  0  0  0  0  0  0  0
  -10.1739    4.9196   -2.1260 H   0  0  0  0  0  0  0  0  0  0  0  0
  -11.8370    5.3202   -1.6416 H   0  0  0  0  0  0  0  0  0  0  0  0
  -11.1053    3.8078   -1.0685 H   0  0  0  0  0  0  0  0  0  0  0  0
   -8.8316    3.3893   -0.8371 H   0  0  0  0  0  0  0  0  0  0  0  0
   -6.5373    2.6875   -0.3761 H   0  0  0  0  0  0  0  0  0  0  0  0
   -2.1748    4.2901    1.6296 H   0  0  0  0  0  0  0  0  0  0  0  0
   -1.1249    4.1185    3.8411 H   0  0  0  0  0  0  0  0  0  0  0  0
   -3.9051    2.3787    7.3123 H   0  0  0  0  0  0  0  0  0  0  0  0
   -4.0811    4.1175    7.7243 H   0  0  0  0  0  0  0  0  0  0  0  0
   -2.8710    3.1190    8.5572 H   0  0  0  0  0  0  0  0  0  0  0  0
   -4.9746    3.6011    5.6243 H   0  0  0  0  0  0  0  0  0  0  0  0
   -6.0070    3.6719    3.4263 H   0  0  0  0  0  0  0  0  0  0  0  0
   -5.2722    5.8132   -0.7674 H   0  0  0  0  0  0  0  0  0  0  0  0
   -6.2936    3.9641   -2.5608 H   0  0  0  0  0  0  0  0  0  0  0  0
   -7.2566    5.5485   -4.1328 H   0  0  0  0  0  0  0  0  0  0  0  0
   -6.4846   11.9370   -4.9646 H   0  0  0  0  0  0  0  0  0  0  0  0
   -8.0540   11.9999   -5.8087 H   0  0  0  0  0  0  0  0  0  0  0  0
   -6.9172   11.1874   -7.9064 H   0  0  0  0  0  0  0  0  0  0  0  0
   -6.1957   12.6818   -7.3173 H   0  0  0  0  0  0  0  0  0  0  0  0
   -5.3759   11.1425   -7.0324 H   0  0  0  0  0  0  0  0  0  0  0  0
   -5.2026    8.1124   -1.8239 H   0  0  0  0  0  0  0  0  0  0  0  0
   -4.2494    8.3708   -3.2715 H   0  0  0  0  0  0  0  0  0  0  0  0
   -3.5179    5.9966   -3.2531 H   0  0  0  0  0  0  0  0  0  0  0  0
   -3.1636    6.7506   -1.6934 H   0  0  0  0  0  0  0  0  0  0  0  0
  1  2  1  0  0  0  0
  2  3  1  0  0  0  0
  3  4  1  0  0  0  0
  4  5  2  0  0  0  0
  5  6  1  0  0  0  0
  6  7  3  0  0  0  0
  5  8  1  0  0  0  0
  8  9  3  0  0  0  0
  4 10  1  0  0  0  0
 10 11  1  0  0  0  0
 11 12  1  0  0  0  0
 12 13  2  0  0  0  0
 11 14  2  0  0  0  0
 14 15  1  0  0  0  0
 15 16  2  0  0  0  0
 16 17  1  0  0  0  0
 17 18  1  0  0  0  0
 18 19  1  0  0  0  0
 17 20  1  0  0  0  0
 20 21  2  0  0  0  0
 21 22  1  0  0  0  0
 22 23  1  0  0  0  0
 23 24  1  0  0  0  0
 24 25  1  0  0  0  0
 22 26  2  0  0  0  0
 26 27  1  0  0  0  0
 26 28  1  0  0  0  0
 28 29  2  0  0  0  0
 29 30  1  0  0  0  0
 30 31  1  0  0  0  0
 31 32  2  0  0  0  0
 32 33  1  0  0  0  0
 33 34  2  0  0  0  0
 34 35  1  0  0  0  0
 35 36  1  0  0  0  0
 34 37  1  0  0  0  0
 37 38  2  0  0  0  0
 30 39  1  0  0  0  0
 39 40  2  0  0  0  0
 40 41  1  0  0  0  0
 41 42  2  0  0  0  0
 42 43  1  0  0  0  0
 43 44  1  0  0  0  0
 42 45  1  0  0  0  0
 45 46  2  0  0  0  0
 29 47  1  0  0  0  0
 47 48  1  0  0  0  0
 48 49  1  0  0  0  0
 49 50  2  0  0  0  0
 50 51  1  0  0  0  0
 51 52  1  0  0  0  0
 52 53  2  0  0  0  0
 53 54  1  0  0  0  0
 54 55  2  0  0  0  0
 55 56  1  0  0  0  0
 56 57  1  0  0  0  0
 55 58  1  0  0  0  0
 58 59  2  0  0  0  0
 51 60  1  0  0  0  0
 60 61  2  0  0  0  0
 61 62  1  0  0  0  0
 62 63  2  0  0  0  0
 63 64  1  0  0  0  0
 64 65  1  0  0  0  0
 63 66  1  0  0  0  0
 66 67  2  0  0  0  0
 50 68  1  0  0  0  0
 68 69  1  0  0  0  0
 49 70  1  0  0  0  0
 70 71  2  0  0  0  0
 71 72  1  0  0  0  0
 72 73  1  0  0  0  0
 73 74  2  0  0  0  0
 74 75  1  0  0  0  0
 75 76  2  0  0  0  0
 76 77  1  0  0  0  0
 77 78  1  0  0  0  0
 76 79  1  0  0  0  0
 79 80  2  0  0  0  0
 72 81  1  0  0  0  0
 81 82  2  0  0  0  0
 82 83  1  0  0  0  0
 83 84  2  0  0  0  0
 84 85  1  0  0  0  0
 85 86  1  0  0  0  0
 84 87  1  0  0  0  0
 87 88  2  0  0  0  0
 71 89  1  0  0  0  0
 89 90  1  0  0  0  0
 90 91  1  0  0  0  0
 91 92  2  0  0  0  0
 92 93  1  0  0  0  0
 93 94  1  0  0  0  0
 94 95  2  0  0  0  0
 95 96  1  0  0  0  0
 96 97  2  0  0  0  0
 97 98  1  0  0  0  0
 98 99  1  0  0  0  0
 97100  1  0  0  0  0
100101  2  0  0  0  0
 93102  1  0  0  0  0
102103  2  0  0  0  0
103104  1  0  0  0  0
104105  2  0  0  0  0
105106  1  0  0  0  0
106107  1  0  0  0  0
105108  1  0  0  0  0
108109  2  0  0  0  0
 92110  1  0  0  0  0
110111  1  0  0  0  0
 91112  1  0  0  0  0
112113  1  0  0  0  0
113114  2  0  0  0  0
114115  1  0  0  0  0
115116  2  0  0  0  0
116117  1  0  0  0  0
117118  1  0  0  0  0
118119  2  0  0  0  0
119120  1  0  0  0  0
120121  3  0  0  0  0
119122  1  0  0  0  0
122123  3  0  0  0  0
118124  1  0  0  0  0
124125  1  0  0  0  0
125126  1  0  0  0  0
124127  1  0  0  0  0
127128  2  0  0  0  0
115129  1  0  0  0  0
129130  1  0  0  0  0
 12  3  1  0  0  0  0
 19 14  1  0  0  0  0
 27 20  1  0  0  0  0
 69 28  1  0  0  0  0
111 70  1  0  0  0  0
130112  1  0  0  0  0
 38 31  1  0  0  0  0
 46 39  1  0  0  0  0
 68 47  2  0  0  0  0
 80 73  1  0  0  0  0
 88 81  1  0  0  0  0
110 89  2  0  0  0  0
127116  1  0  0  0  0
 59 52  1  0  0  0  0
 67 60  1  0  0  0  0
101 94  1  0  0  0  0
109102  1  0  0  0  0
  1131  1  0  0  0  0
  1132  1  0  0  0  0
  1133  1  0  0  0  0
  2134  1  0  0  0  0
  2135  1  0  0  0  0
 15136  1  0  0  0  0
 16137  1  0  0  0  0
 17138  1  0  0  0  0
 18139  1  0  0  0  0
 18140  1  0  0  0  0
 19141  1  0  0  0  0
 19142  1  0  0  0  0
 21143  1  0  0  0  0
 24144  1  0  0  0  0
 24145  1  0  0  0  0
 25146  1  0  0  0  0
 25147  1  0  0  0  0
 25148  1  0  0  0  0
 32149  1  0  0  0  0
 33150  1  0  0  0  0
 36151  1  0  0  0  0
 36152  1  0  0  0  0
 36153  1  0  0  0  0
 37154  1  0  0  0  0
 38155  1  0  0  0  0
 40156  1  0  0  0  0
 41157  1  0  0  0  0
 44158  1  0  0  0  0
 44159  1  0  0  0  0
 44160  1  0  0  0  0
 45161  1  0  0  0  0
 46162  1  0  0  0  0
 53163  1  0  0  0  0
 54164  1  0  0  0  0
 57165  1  0  0  0  0
 57166  1  0  0  0  0
 57167  1  0  0  0  0
 58168  1  0  0  0  0
 59169  1  0  0  0  0
 61170  1  0  0  0  0
 62171  1  0  0  0  0
 65172  1  0  0  0  0
 65173  1  0  0  0  0
 65174  1  0  0  0  0
 66175  1  0  0  0  0
 67176  1  0  0  0  0
 74177  1  0  0  0  0
 75178  1  0  0  0  0
 78179  1  0  0  0  0
 78180  1  0  0  0  0
 78181  1  0  0  0  0
 79182  1  0  0  0  0
 80183  1  0  0  0  0
 82184  1  0  0  0  0
 83185  1  0  0  0  0
 86186  1  0  0  0  0
 86187  1  0  0  0  0
 86188  1  0  0  0  0
 87189  1  0  0  0  0
 88190  1  0  0  0  0
 95191  1  0  0  0  0
 96192  1  0  0  0  0
 99193  1  0  0  0  0
 99194  1  0  0  0  0
 99195  1  0  0  0  0
100196  1  0  0  0  0
101197  1  0  0  0  0
103198  1  0  0  0  0
104199  1  0  0  0  0
107200  1  0  0  0  0
107201  1  0  0  0  0
107202  1  0  0  0  0
108203  1  0  0  0  0
109204  1  0  0  0  0
112205  1  0  0  0  0
113206  1  0  0  0  0
114207  1  0  0  0  0
125208  1  0  0  0  0
125209  1  0  0  0  0
126210  1  0  0  0  0
126211  1  0  0  0  0
126212  1  0  0  0  0
129213  1  0  0  0  0
129214  1  0  0  0  0
130215  1  0  0  0  0
130216  1  0  0  0  0
M  END
