
  xtb     02092206243D
 energy: -382.935678257204 gnorm: 0.000319337554 xtb: 6.4.1 (unknown)
238255  0     0  0            999 V2000
   -5.9486   -0.7460   14.7467 C   0  0  0  0  0  0  0  0  0  0  0  0
   -6.1481   -2.2556   14.7637 C   0  0  0  0  0  0  0  0  0  0  0  0
   -4.9988   -2.9496   14.1922 N   0  0  0  0  0  0  0  0  0  0  0  0
   -5.0412   -3.1863   12.8200 C   0  0  0  0  0  0  0  0  0  0  0  0
   -6.0505   -2.8921   12.2086 O   0  0  0  0  0  0  0  0  0  0  0  0
   -3.8359   -3.7775   12.2314 C   0  0  0  0  0  0  0  0  0  0  0  0
   -2.8954   -4.4361   13.1400 C   0  0  0  0  0  0  0  0  0  0  0  0
   -2.0558   -5.2470   12.7966 O   0  0  0  0  0  0  0  0  0  0  0  0
   -2.9713   -4.0693   14.4797 N   0  0  0  0  0  0  0  0  0  0  0  0
   -1.9472   -4.6127   15.3648 C   0  0  0  0  0  0  0  0  0  0  0  0
   -2.4227   -5.8901   16.0430 C   0  0  0  0  0  0  0  0  0  0  0  0
   -3.9624   -3.2959   15.0076 C   0  0  0  0  0  0  0  0  0  0  0  0
   -3.9299   -2.8284   16.5912 S   0  0  0  0  0  0  0  0  0  0  0  0
   -3.5844   -3.7422   10.8731 C   0  0  0  0  0  0  0  0  0  0  0  0
   -4.4840   -3.1247    9.9385 C   0  0  0  0  0  0  0  0  0  0  0  0
   -4.3562   -3.2503    8.6089 C   0  0  0  0  0  0  0  0  0  0  0  0
   -3.2223   -3.9847    7.9735 C   0  0  0  0  0  0  0  0  0  0  0  0
   -2.0133   -3.8416    8.9040 C   0  0  0  0  0  0  0  0  0  0  0  0
   -2.3553   -4.3680   10.2904 C   0  0  0  0  0  0  0  0  0  0  0  0
   -2.9057   -3.4355    6.6136 C   0  0  0  0  0  0  0  0  0  0  0  0
   -2.7008   -4.2216    5.5058 C   0  0  0  0  0  0  0  0  0  0  0  0
   -2.8394   -5.5601    5.6009 F   0  0  0  0  0  0  0  0  0  0  0  0
   -2.3436   -3.6887    4.2607 C   0  0  0  0  0  0  0  0  0  0  0  0
   -2.2866   -4.5304    3.2084 F   0  0  0  0  0  0  0  0  0  0  0  0
   -2.0936   -2.3365    4.0850 C   0  0  0  0  0  0  0  0  0  0  0  0
   -2.4072   -1.4922    5.1877 C   0  0  0  0  0  0  0  0  0  0  0  0
   -2.3436   -0.1643    5.0294 N   0  0  0  0  0  0  0  0  0  0  0  0
   -2.6298    0.6272    6.0334 C   0  0  0  0  0  0  0  0  0  0  0  0
   -2.6193    2.0957    5.7437 C   0  0  0  0  0  0  0  0  0  0  0  0
   -4.0291    2.5687    5.3816 C   0  0  0  0  0  0  0  0  0  0  0  0
   -2.9822    0.0784    7.3003 C   0  0  0  0  0  0  0  0  0  0  0  0
   -3.0593   -1.2178    7.4672 N   0  0  0  0  0  0  0  0  0  0  0  0
   -2.7937   -2.0378    6.4351 C   0  0  0  0  0  0  0  0  0  0  0  0
   -3.2346    0.9107    8.5207 C   0  0  0  0  0  0  0  0  0  0  0  0
   -1.9196    1.1640    9.2628 C   0  0  0  0  0  0  0  0  0  0  0  0
   -1.5543   -1.7737    2.8828 C   0  0  0  0  0  0  0  0  0  0  0  0
   -0.6824   -2.3707    1.9765 C   0  0  0  0  0  0  0  0  0  0  0  0
    0.0147   -3.5430    2.1857 N   0  0  0  0  0  0  0  0  0  0  0  0
    0.4167   -3.9317    3.4684 C   0  0  0  0  0  0  0  0  0  0  0  0
    0.4487   -5.2828    3.8077 C   0  0  0  0  0  0  0  0  0  0  0  0
    0.7446   -5.6813    5.0958 C   0  0  0  0  0  0  0  0  0  0  0  0
    1.0069   -4.7321    6.0738 C   0  0  0  0  0  0  0  0  0  0  0  0
    1.3220   -5.1327    7.7657 S   0  0  0  0  0  0  0  0  0  0  0  0
    0.6287   -6.8052    7.9316 C   0  0  0  0  0  0  0  0  0  0  0  0
    1.0376   -3.3834    5.7266 C   0  0  0  0  0  0  0  0  0  0  0  0
    0.7568   -2.9870    4.4389 C   0  0  0  0  0  0  0  0  0  0  0  0
    0.3432   -4.3524    1.0828 C   0  0  0  0  0  0  0  0  0  0  0  0
   -0.6450   -4.7422    0.1833 C   0  0  0  0  0  0  0  0  0  0  0  0
   -0.3230   -5.5412   -0.8918 C   0  0  0  0  0  0  0  0  0  0  0  0
    0.9927   -5.9493   -1.0979 C   0  0  0  0  0  0  0  0  0  0  0  0
    1.2903   -6.9622   -2.5086 S   0  0  0  0  0  0  0  0  0  0  0  0
    3.0985   -7.0066   -2.6371 C   0  0  0  0  0  0  0  0  0  0  0  0
    1.9772   -5.5726   -0.1935 C   0  0  0  0  0  0  0  0  0  0  0  0
    1.6513   -4.7842    0.8922 C   0  0  0  0  0  0  0  0  0  0  0  0
   -0.4719   -1.5233    0.8620 C   0  0  0  0  0  0  0  0  0  0  0  0
    0.4251   -1.6581   -0.6066 S   0  0  0  0  0  0  0  0  0  0  0  0
   -0.0292   -0.0124   -1.0712 C   0  0  0  0  0  0  0  0  0  0  0  0
   -0.7599    0.6159   -0.0790 C   0  0  0  0  0  0  0  0  0  0  0  0
   -1.1557    1.9506   -0.0694 N   0  0  0  0  0  0  0  0  0  0  0  0
   -2.3958    2.2526    0.5120 C   0  0  0  0  0  0  0  0  0  0  0  0
   -2.5657    3.3407    1.3637 C   0  0  0  0  0  0  0  0  0  0  0  0
   -3.7967    3.6051    1.9315 C   0  0  0  0  0  0  0  0  0  0  0  0
   -4.8811    2.7807    1.6655 C   0  0  0  0  0  0  0  0  0  0  0  0
   -6.4883    3.0084    2.3680 S   0  0  0  0  0  0  0  0  0  0  0  0
   -6.4586    4.7291    2.9506 C   0  0  0  0  0  0  0  0  0  0  0  0
   -4.7155    1.6845    0.8236 C   0  0  0  0  0  0  0  0  0  0  0  0
   -3.4899    1.4264    0.2535 C   0  0  0  0  0  0  0  0  0  0  0  0
   -0.1960    2.9563   -0.2431 C   0  0  0  0  0  0  0  0  0  0  0  0
    1.1415    2.7435    0.0937 C   0  0  0  0  0  0  0  0  0  0  0  0
    2.0674    3.7538   -0.0581 C   0  0  0  0  0  0  0  0  0  0  0  0
    1.6771    5.0010   -0.5311 C   0  0  0  0  0  0  0  0  0  0  0  0
    2.9255    6.2418   -0.6836 S   0  0  0  0  0  0  0  0  0  0  0  0
    1.9884    7.7826   -0.4518 C   0  0  0  0  0  0  0  0  0  0  0  0
    0.3481    5.2190   -0.8715 C   0  0  0  0  0  0  0  0  0  0  0  0
   -0.5749    4.2036   -0.7371 C   0  0  0  0  0  0  0  0  0  0  0  0
   -1.0614   -0.2772    0.9826 C   0  0  0  0  0  0  0  0  0  0  0  0
   -1.9253   -0.1094    2.4751 S   0  0  0  0  0  0  0  0  0  0  0  0
    0.3829    0.3984   -2.3832 C   0  0  0  0  0  0  0  0  0  0  0  0
    0.3222   -0.4357   -3.4884 C   0  0  0  0  0  0  0  0  0  0  0  0
   -0.3540   -1.6539   -3.5112 N   0  0  0  0  0  0  0  0  0  0  0  0
    0.2669   -2.7661   -4.0775 C   0  0  0  0  0  0  0  0  0  0  0  0
    1.6581   -2.8753   -4.0549 C   0  0  0  0  0  0  0  0  0  0  0  0
    2.2833   -3.9416   -4.6615 C   0  0  0  0  0  0  0  0  0  0  0  0
    1.5364   -4.9333   -5.2896 C   0  0  0  0  0  0  0  0  0  0  0  0
    2.4334   -6.2434   -6.0690 S   0  0  0  0  0  0  0  0  0  0  0  0
    1.1901   -7.5557   -6.2409 C   0  0  0  0  0  0  0  0  0  0  0  0
    0.1521   -4.8390   -5.3017 C   0  0  0  0  0  0  0  0  0  0  0  0
   -0.4750   -3.7643   -4.7049 C   0  0  0  0  0  0  0  0  0  0  0  0
   -1.6447   -1.6952   -2.9737 C   0  0  0  0  0  0  0  0  0  0  0  0
   -2.5037   -0.6063   -3.1218 C   0  0  0  0  0  0  0  0  0  0  0  0
   -3.7327   -0.5991   -2.4972 C   0  0  0  0  0  0  0  0  0  0  0  0
   -4.1190   -1.6709   -1.6990 C   0  0  0  0  0  0  0  0  0  0  0  0
   -5.6502   -1.5578   -0.8113 S   0  0  0  0  0  0  0  0  0  0  0  0
   -5.1788   -2.2959    0.7846 C   0  0  0  0  0  0  0  0  0  0  0  0
   -3.2966   -2.7848   -1.6038 C   0  0  0  0  0  0  0  0  0  0  0  0
   -2.0730   -2.7983   -2.2394 C   0  0  0  0  0  0  0  0  0  0  0  0
    0.9474    0.1429   -4.6143 C   0  0  0  0  0  0  0  0  0  0  0  0
    1.2605   -0.3912   -6.2254 S   0  0  0  0  0  0  0  0  0  0  0  0
    2.0321    1.1359   -6.5981 C   0  0  0  0  0  0  0  0  0  0  0  0
    2.0686    1.9936   -5.5237 C   0  0  0  0  0  0  0  0  0  0  0  0
    2.6189    3.2754   -5.5205 N   0  0  0  0  0  0  0  0  0  0  0  0
    1.8831    4.3331   -4.9819 C   0  0  0  0  0  0  0  0  0  0  0  0
    2.5365    5.4476   -4.4531 C   0  0  0  0  0  0  0  0  0  0  0  0
    1.8139    6.5182   -3.9798 C   0  0  0  0  0  0  0  0  0  0  0  0
    0.4219    6.4898   -3.9898 C   0  0  0  0  0  0  0  0  0  0  0  0
   -0.4194    7.9186   -3.3585 S   0  0  0  0  0  0  0  0  0  0  0  0
   -2.1134    7.7288   -3.9777 C   0  0  0  0  0  0  0  0  0  0  0  0
   -0.2347    5.3661   -4.4657 C   0  0  0  0  0  0  0  0  0  0  0  0
    0.4905    4.3053   -4.9716 C   0  0  0  0  0  0  0  0  0  0  0  0
    3.8334    3.5132   -6.1788 C   0  0  0  0  0  0  0  0  0  0  0  0
    4.8892    2.6129   -6.0513 C   0  0  0  0  0  0  0  0  0  0  0  0
    6.0551    2.7844   -6.7728 C   0  0  0  0  0  0  0  0  0  0  0  0
    6.1947    3.8731   -7.6239 C   0  0  0  0  0  0  0  0  0  0  0  0
    7.6406    4.1897   -8.5896 S   0  0  0  0  0  0  0  0  0  0  0  0
    8.3411    2.5374   -8.8755 C   0  0  0  0  0  0  0  0  0  0  0  0
    5.1641    4.8080   -7.7085 C   0  0  0  0  0  0  0  0  0  0  0  0
    3.9969    4.6315   -7.0006 C   0  0  0  0  0  0  0  0  0  0  0  0
    1.4386    1.4153   -4.3876 C   0  0  0  0  0  0  0  0  0  0  0  0
    1.1349    1.9426   -2.7671 S   0  0  0  0  0  0  0  0  0  0  0  0
    2.6346    1.3180   -7.9486 C   0  0  0  0  0  0  0  0  0  0  0  0
    1.6948    1.0705   -9.0840 C   0  0  0  0  0  0  0  0  0  0  0  0
    2.1605    0.8784  -10.3257 C   0  0  0  0  0  0  0  0  0  0  0  0
    3.5674    0.9310  -10.6304 C   0  0  0  0  0  0  0  0  0  0  0  0
    4.0468    1.1373  -11.9077 C   0  0  0  0  0  0  0  0  0  0  0  0
    3.1379    1.3723  -13.0340 C   0  0  0  0  0  0  0  0  0  0  0  0
    1.9646    1.6719  -12.9305 O   0  0  0  0  0  0  0  0  0  0  0  0
    3.6830    1.2087  -14.3030 N   0  0  0  0  0  0  0  0  0  0  0  0
    2.7531    1.2931  -15.4246 C   0  0  0  0  0  0  0  0  0  0  0  0
    2.6751    2.7103  -15.9757 C   0  0  0  0  0  0  0  0  0  0  0  0
    5.0153    1.0669  -14.5579 C   0  0  0  0  0  0  0  0  0  0  0  0
    5.5734    0.8492  -16.0959 S   0  0  0  0  0  0  0  0  0  0  0  0
    5.8766    1.1374  -13.5016 N   0  0  0  0  0  0  0  0  0  0  0  0
    5.4861    1.1602  -12.1696 C   0  0  0  0  0  0  0  0  0  0  0  0
    6.3446    1.1978  -11.3052 O   0  0  0  0  0  0  0  0  0  0  0  0
    7.3137    1.1234  -13.7542 C   0  0  0  0  0  0  0  0  0  0  0  0
    7.8589   -0.2976  -13.7997 C   0  0  0  0  0  0  0  0  0  0  0  0
    4.5042    0.7458   -9.4773 C   0  0  0  0  0  0  0  0  0  0  0  0
    3.8107    0.3594   -8.1818 C   0  0  0  0  0  0  0  0  0  0  0  0
   -5.8040   -0.3978   13.7267 H   0  0  0  0  0  0  0  0  0  0  0  0
   -6.8266   -0.2600   15.1618 H   0  0  0  0  0  0  0  0  0  0  0  0
   -5.0829   -0.4714   15.3446 H   0  0  0  0  0  0  0  0  0  0  0  0
   -7.0136   -2.5275   14.1569 H   0  0  0  0  0  0  0  0  0  0  0  0
   -6.2856   -2.6105   15.7859 H   0  0  0  0  0  0  0  0  0  0  0  0
   -1.0730   -4.8203   14.7457 H   0  0  0  0  0  0  0  0  0  0  0  0
   -1.7040   -3.8515   16.1079 H   0  0  0  0  0  0  0  0  0  0  0  0
   -3.2997   -5.6918   16.6548 H   0  0  0  0  0  0  0  0  0  0  0  0
   -1.6338   -6.2767   16.6815 H   0  0  0  0  0  0  0  0  0  0  0  0
   -2.6698   -6.6407   15.2962 H   0  0  0  0  0  0  0  0  0  0  0  0
   -5.3347   -2.5957   10.3346 H   0  0  0  0  0  0  0  0  0  0  0  0
   -5.1085   -2.8353    7.9555 H   0  0  0  0  0  0  0  0  0  0  0  0
   -3.4846   -5.0463    7.8762 H   0  0  0  0  0  0  0  0  0  0  0  0
   -1.1533   -4.3800    8.5073 H   0  0  0  0  0  0  0  0  0  0  0  0
   -1.7557   -2.7829    8.9642 H   0  0  0  0  0  0  0  0  0  0  0  0
   -1.5009   -4.2302   10.9538 H   0  0  0  0  0  0  0  0  0  0  0  0
   -2.5289   -5.4489   10.2481 H   0  0  0  0  0  0  0  0  0  0  0  0
   -2.2464    2.6548    6.6022 H   0  0  0  0  0  0  0  0  0  0  0  0
   -1.9616    2.2666    4.8908 H   0  0  0  0  0  0  0  0  0  0  0  0
   -4.3673    2.0664    4.4790 H   0  0  0  0  0  0  0  0  0  0  0  0
   -4.7354    2.3548    6.1811 H   0  0  0  0  0  0  0  0  0  0  0  0
   -4.0208    3.6413    5.2051 H   0  0  0  0  0  0  0  0  0  0  0  0
   -3.9084    0.3538    9.1732 H   0  0  0  0  0  0  0  0  0  0  0  0
   -3.6993    1.8595    8.2557 H   0  0  0  0  0  0  0  0  0  0  0  0
   -1.2089    1.6904    8.6289 H   0  0  0  0  0  0  0  0  0  0  0  0
   -2.1014    1.7626   10.1516 H   0  0  0  0  0  0  0  0  0  0  0  0
   -1.4748    0.2192    9.5656 H   0  0  0  0  0  0  0  0  0  0  0  0
    0.2066   -6.0233    3.0606 H   0  0  0  0  0  0  0  0  0  0  0  0
    0.7484   -6.7339    5.3280 H   0  0  0  0  0  0  0  0  0  0  0  0
    0.5467   -6.9850    8.9991 H   0  0  0  0  0  0  0  0  0  0  0  0
    1.2966   -7.5368    7.4861 H   0  0  0  0  0  0  0  0  0  0  0  0
   -0.3535   -6.8387    7.4698 H   0  0  0  0  0  0  0  0  0  0  0  0
    1.2797   -2.6511    6.4815 H   0  0  0  0  0  0  0  0  0  0  0  0
    0.7813   -1.9381    4.1849 H   0  0  0  0  0  0  0  0  0  0  0  0
   -1.6623   -4.4254    0.3522 H   0  0  0  0  0  0  0  0  0  0  0  0
   -1.0849   -5.8747   -1.5807 H   0  0  0  0  0  0  0  0  0  0  0  0
    3.4813   -5.9907   -2.6466 H   0  0  0  0  0  0  0  0  0  0  0  0
    3.3170   -7.4880   -3.5852 H   0  0  0  0  0  0  0  0  0  0  0  0
    3.5196   -7.5866   -1.8209 H   0  0  0  0  0  0  0  0  0  0  0  0
    2.9997   -5.8890   -0.3207 H   0  0  0  0  0  0  0  0  0  0  0  0
    2.4149   -4.4971    1.6000 H   0  0  0  0  0  0  0  0  0  0  0  0
   -1.7263    3.9787    1.5969 H   0  0  0  0  0  0  0  0  0  0  0  0
   -3.8916    4.4518    2.5924 H   0  0  0  0  0  0  0  0  0  0  0  0
   -5.8429    4.8178    3.8409 H   0  0  0  0  0  0  0  0  0  0  0  0
   -7.4876    4.9752    3.1928 H   0  0  0  0  0  0  0  0  0  0  0  0
   -6.0991    5.3759    2.1562 H   0  0  0  0  0  0  0  0  0  0  0  0
   -5.5580    1.0439    0.6144 H   0  0  0  0  0  0  0  0  0  0  0  0
   -3.3663    0.5821   -0.4059 H   0  0  0  0  0  0  0  0  0  0  0  0
    1.4500    1.7877    0.4900 H   0  0  0  0  0  0  0  0  0  0  0  0
    3.1010    3.5890    0.2041 H   0  0  0  0  0  0  0  0  0  0  0  0
    1.3492    7.6822    0.4197 H   0  0  0  0  0  0  0  0  0  0  0  0
    2.7300    8.5569   -0.2829 H   0  0  0  0  0  0  0  0  0  0  0  0
    1.4052    8.0183   -1.3371 H   0  0  0  0  0  0  0  0  0  0  0  0
    0.0286    6.1774   -1.2453 H   0  0  0  0  0  0  0  0  0  0  0  0
   -1.6054    4.3727   -1.0126 H   0  0  0  0  0  0  0  0  0  0  0  0
    2.2441   -2.1211   -3.5508 H   0  0  0  0  0  0  0  0  0  0  0  0
    3.3602   -4.0187   -4.6538 H   0  0  0  0  0  0  0  0  0  0  0  0
    0.4862   -7.3075   -7.0301 H   0  0  0  0  0  0  0  0  0  0  0  0
    0.6873   -7.6973   -5.2887 H   0  0  0  0  0  0  0  0  0  0  0  0
    1.7400   -8.4518   -6.5113 H   0  0  0  0  0  0  0  0  0  0  0  0
   -0.4504   -5.5897   -5.7867 H   0  0  0  0  0  0  0  0  0  0  0  0
   -1.5515   -3.6878   -4.7406 H   0  0  0  0  0  0  0  0  0  0  0  0
   -2.1955    0.2423   -3.7142 H   0  0  0  0  0  0  0  0  0  0  0  0
   -4.3987    0.2427   -2.6109 H   0  0  0  0  0  0  0  0  0  0  0  0
   -4.2115   -1.9048    1.0862 H   0  0  0  0  0  0  0  0  0  0  0  0
   -5.9405   -1.9894    1.4944 H   0  0  0  0  0  0  0  0  0  0  0  0
   -5.1576   -3.3796    0.7161 H   0  0  0  0  0  0  0  0  0  0  0  0
   -3.6043   -3.6409   -1.0237 H   0  0  0  0  0  0  0  0  0  0  0  0
   -1.4194   -3.6498   -2.1465 H   0  0  0  0  0  0  0  0  0  0  0  0
    3.6148    5.4737   -4.4254 H   0  0  0  0  0  0  0  0  0  0  0  0
    2.3267    7.3866   -3.5966 H   0  0  0  0  0  0  0  0  0  0  0  0
   -2.0897    7.5507   -5.0487 H   0  0  0  0  0  0  0  0  0  0  0  0
   -2.6107    8.6707   -3.7676 H   0  0  0  0  0  0  0  0  0  0  0  0
   -2.6189    6.9219   -3.4545 H   0  0  0  0  0  0  0  0  0  0  0  0
   -1.3113    5.3067   -4.4657 H   0  0  0  0  0  0  0  0  0  0  0  0
   -0.0346    3.4527   -5.3757 H   0  0  0  0  0  0  0  0  0  0  0  0
    4.7857    1.7721   -5.3809 H   0  0  0  0  0  0  0  0  0  0  0  0
    6.8532    2.0677   -6.6609 H   0  0  0  0  0  0  0  0  0  0  0  0
    7.6138    1.9166   -9.3901 H   0  0  0  0  0  0  0  0  0  0  0  0
    9.2022    2.7004   -9.5162 H   0  0  0  0  0  0  0  0  0  0  0  0
    8.6649    2.0908   -7.9408 H   0  0  0  0  0  0  0  0  0  0  0  0
    5.2857    5.6640   -8.3540 H   0  0  0  0  0  0  0  0  0  0  0  0
    3.1923    5.3452   -7.0963 H   0  0  0  0  0  0  0  0  0  0  0  0
    3.0052    2.3483   -8.0201 H   0  0  0  0  0  0  0  0  0  0  0  0
    0.6348    1.0477   -8.8812 H   0  0  0  0  0  0  0  0  0  0  0  0
    1.4693    0.7341  -11.1401 H   0  0  0  0  0  0  0  0  0  0  0  0
    3.0912    0.5992  -16.1957 H   0  0  0  0  0  0  0  0  0  0  0  0
    1.7766    0.9837  -15.0490 H   0  0  0  0  0  0  0  0  0  0  0  0
    2.3449    3.3959  -15.1991 H   0  0  0  0  0  0  0  0  0  0  0  0
    1.9644    2.7409  -16.7963 H   0  0  0  0  0  0  0  0  0  0  0  0
    3.6470    3.0288  -16.3453 H   0  0  0  0  0  0  0  0  0  0  0  0
    7.4948    1.6320  -14.7020 H   0  0  0  0  0  0  0  0  0  0  0  0
    7.7810    1.6797  -12.9396 H   0  0  0  0  0  0  0  0  0  0  0  0
    7.3890   -0.8582  -14.6041 H   0  0  0  0  0  0  0  0  0  0  0  0
    7.6719   -0.8026  -12.8550 H   0  0  0  0  0  0  0  0  0  0  0  0
    8.9302   -0.2686  -13.9756 H   0  0  0  0  0  0  0  0  0  0  0  0
    5.0331    1.6944   -9.3288 H   0  0  0  0  0  0  0  0  0  0  0  0
    5.2686    0.0099   -9.7345 H   0  0  0  0  0  0  0  0  0  0  0  0
    4.5210    0.4146   -7.3582 H   0  0  0  0  0  0  0  0  0  0  0  0
    3.4264   -0.6620   -8.2370 H   0  0  0  0  0  0  0  0  0  0  0  0
  1  2  1  0  0  0  0
  2  3  1  0  0  0  0
  3  4  1  0  0  0  0
  4  5  2  0  0  0  0
  4  6  1  0  0  0  0
  6  7  1  0  0  0  0
  7  8  2  0  0  0  0
  7  9  1  0  0  0  0
  9 10  1  0  0  0  0
 10 11  1  0  0  0  0
  9 12  1  0  0  0  0
 12 13  2  0  0  0  0
  6 14  2  0  0  0  0
 14 15  1  0  0  0  0
 15 16  2  0  0  0  0
 16 17  1  0  0  0  0
 17 18  1  0  0  0  0
 18 19  1  0  0  0  0
 17 20  1  0  0  0  0
 20 21  2  0  0  0  0
 21 22  1  0  0  0  0
 21 23  1  0  0  0  0
 23 24  1  0  0  0  0
 23 25  2  0  0  0  0
 25 26  1  0  0  0  0
 26 27  2  0  0  0  0
 27 28  1  0  0  0  0
 28 29  1  0  0  0  0
 29 30  1  0  0  0  0
 28 31  2  0  0  0  0
 31 32  1  0  0  0  0
 32 33  2  0  0  0  0
 31 34  1  0  0  0  0
 34 35  1  0  0  0  0
 25 36  1  0  0  0  0
 36 37  2  0  0  0  0
 37 38  1  0  0  0  0
 38 39  1  0  0  0  0
 39 40  2  0  0  0  0
 40 41  1  0  0  0  0
 41 42  2  0  0  0  0
 42 43  1  0  0  0  0
 43 44  1  0  0  0  0
 42 45  1  0  0  0  0
 45 46  2  0  0  0  0
 38 47  1  0  0  0  0
 47 48  2  0  0  0  0
 48 49  1  0  0  0  0
 49 50  2  0  0  0  0
 50 51  1  0  0  0  0
 51 52  1  0  0  0  0
 50 53  1  0  0  0  0
 53 54  2  0  0  0  0
 37 55  1  0  0  0  0
 55 56  1  0  0  0  0
 56 57  1  0  0  0  0
 57 58  2  0  0  0  0
 58 59  1  0  0  0  0
 59 60  1  0  0  0  0
 60 61  2  0  0  0  0
 61 62  1  0  0  0  0
 62 63  2  0  0  0  0
 63 64  1  0  0  0  0
 64 65  1  0  0  0  0
 63 66  1  0  0  0  0
 66 67  2  0  0  0  0
 59 68  1  0  0  0  0
 68 69  2  0  0  0  0
 69 70  1  0  0  0  0
 70 71  2  0  0  0  0
 71 72  1  0  0  0  0
 72 73  1  0  0  0  0
 71 74  1  0  0  0  0
 74 75  2  0  0  0  0
 58 76  1  0  0  0  0
 76 77  1  0  0  0  0
 57 78  1  0  0  0  0
 78 79  2  0  0  0  0
 79 80  1  0  0  0  0
 80 81  1  0  0  0  0
 81 82  2  0  0  0  0
 82 83  1  0  0  0  0
 83 84  2  0  0  0  0
 84 85  1  0  0  0  0
 85 86  1  0  0  0  0
 84 87  1  0  0  0  0
 87 88  2  0  0  0  0
 80 89  1  0  0  0  0
 89 90  2  0  0  0  0
 90 91  1  0  0  0  0
 91 92  2  0  0  0  0
 92 93  1  0  0  0  0
 93 94  1  0  0  0  0
 92 95  1  0  0  0  0
 95 96  2  0  0  0  0
 79 97  1  0  0  0  0
 97 98  1  0  0  0  0
 98 99  1  0  0  0  0
 99100  2  0  0  0  0
100101  1  0  0  0  0
101102  1  0  0  0  0
102103  2  0  0  0  0
103104  1  0  0  0  0
104105  2  0  0  0  0
105106  1  0  0  0  0
106107  1  0  0  0  0
105108  1  0  0  0  0
108109  2  0  0  0  0
101110  1  0  0  0  0
110111  2  0  0  0  0
111112  1  0  0  0  0
112113  2  0  0  0  0
113114  1  0  0  0  0
114115  1  0  0  0  0
113116  1  0  0  0  0
116117  2  0  0  0  0
100118  1  0  0  0  0
118119  1  0  0  0  0
 99120  1  0  0  0  0
120121  1  0  0  0  0
121122  2  0  0  0  0
122123  1  0  0  0  0
123124  2  0  0  0  0
124125  1  0  0  0  0
125126  2  0  0  0  0
125127  1  0  0  0  0
127128  1  0  0  0  0
128129  1  0  0  0  0
127130  1  0  0  0  0
130131  2  0  0  0  0
130132  1  0  0  0  0
132133  1  0  0  0  0
133134  2  0  0  0  0
132135  1  0  0  0  0
135136  1  0  0  0  0
123137  1  0  0  0  0
137138  1  0  0  0  0
 12  3  1  0  0  0  0
 19 14  1  0  0  0  0
 33 20  1  0  0  0  0
 77 36  1  0  0  0  0
119 78  1  0  0  0  0
138120  1  0  0  0  0
 33 26  1  0  0  0  0
 46 39  1  0  0  0  0
 54 47  1  0  0  0  0
 76 55  2  0  0  0  0
 88 81  1  0  0  0  0
 96 89  1  0  0  0  0
118 97  2  0  0  0  0
133124  1  0  0  0  0
 67 60  1  0  0  0  0
 75 68  1  0  0  0  0
109102  1  0  0  0  0
117110  1  0  0  0  0
  1139  1  0  0  0  0
  1140  1  0  0  0  0
  1141  1  0  0  0  0
  2142  1  0  0  0  0
  2143  1  0  0  0  0
 10144  1  0  0  0  0
 10145  1  0  0  0  0
 11146  1  0  0  0  0
 11147  1  0  0  0  0
 11148  1  0  0  0  0
 15149  1  0  0  0  0
 16150  1  0  0  0  0
 17151  1  0  0  0  0
 18152  1  0  0  0  0
 18153  1  0  0  0  0
 19154  1  0  0  0  0
 19155  1  0  0  0  0
 29156  1  0  0  0  0
 29157  1  0  0  0  0
 30158  1  0  0  0  0
 30159  1  0  0  0  0
 30160  1  0  0  0  0
 34161  1  0  0  0  0
 34162  1  0  0  0  0
 35163  1  0  0  0  0
 35164  1  0  0  0  0
 35165  1  0  0  0  0
 40166  1  0  0  0  0
 41167  1  0  0  0  0
 44168  1  0  0  0  0
 44169  1  0  0  0  0
 44170  1  0  0  0  0
 45171  1  0  0  0  0
 46172  1  0  0  0  0
 48173  1  0  0  0  0
 49174  1  0  0  0  0
 52175  1  0  0  0  0
 52176  1  0  0  0  0
 52177  1  0  0  0  0
 53178  1  0  0  0  0
 54179  1  0  0  0  0
 61180  1  0  0  0  0
 62181  1  0  0  0  0
 65182  1  0  0  0  0
 65183  1  0  0  0  0
 65184  1  0  0  0  0
 66185  1  0  0  0  0
 67186  1  0  0  0  0
 69187  1  0  0  0  0
 70188  1  0  0  0  0
 73189  1  0  0  0  0
 73190  1  0  0  0  0
 73191  1  0  0  0  0
 74192  1  0  0  0  0
 75193  1  0  0  0  0
 82194  1  0  0  0  0
 83195  1  0  0  0  0
 86196  1  0  0  0  0
 86197  1  0  0  0  0
 86198  1  0  0  0  0
 87199  1  0  0  0  0
 88200  1  0  0  0  0
 90201  1  0  0  0  0
 91202  1  0  0  0  0
 94203  1  0  0  0  0
 94204  1  0  0  0  0
 94205  1  0  0  0  0
 95206  1  0  0  0  0
 96207  1  0  0  0  0
103208  1  0  0  0  0
104209  1  0  0  0  0
107210  1  0  0  0  0
107211  1  0  0  0  0
107212  1  0  0  0  0
108213  1  0  0  0  0
109214  1  0  0  0  0
111215  1  0  0  0  0
112216  1  0  0  0  0
115217  1  0  0  0  0
115218  1  0  0  0  0
115219  1  0  0  0  0
116220  1  0  0  0  0
117221  1  0  0  0  0
120222  1  0  0  0  0
121223  1  0  0  0  0
122224  1  0  0  0  0
128225  1  0  0  0  0
128226  1  0  0  0  0
129227  1  0  0  0  0
129228  1  0  0  0  0
129229  1  0  0  0  0
135230  1  0  0  0  0
135231  1  0  0  0  0
136232  1  0  0  0  0
136233  1  0  0  0  0
136234  1  0  0  0  0
137235  1  0  0  0  0
137236  1  0  0  0  0
138237  1  0  0  0  0
138238  1  0  0  0  0
M  END
