
  xtb     02142200423D
 energy: -378.576985279263 gnorm: 0.000536663673 xtb: 6.4.1 (unknown)
218236  0     0  0            999 V2000
  -13.9607    1.1399    2.4003 N   0  0  0  0  0  0  0  0  0  0  0  0
  -13.7375    0.0804    2.7840 C   0  0  0  0  0  0  0  0  0  0  0  0
  -13.5150   -1.2240    3.2537 C   0  0  0  0  0  0  0  0  0  0  0  0
  -14.6725   -1.9173    3.6593 C   0  0  0  0  0  0  0  0  0  0  0  0
  -15.6200   -2.4733    3.9905 N   0  0  0  0  0  0  0  0  0  0  0  0
  -12.2760   -1.8362    3.3226 C   0  0  0  0  0  0  0  0  0  0  0  0
  -12.2485   -3.1641    3.8175 C   0  0  0  0  0  0  0  0  0  0  0  0
  -12.2067   -4.2256    4.2486 N   0  0  0  0  0  0  0  0  0  0  0  0
  -11.0209   -1.2671    2.9955 C   0  0  0  0  0  0  0  0  0  0  0  0
  -10.6687    0.0507    2.7347 C   0  0  0  0  0  0  0  0  0  0  0  0
   -9.3084    0.2242    2.5651 C   0  0  0  0  0  0  0  0  0  0  0  0
   -8.5630   -0.9461    2.6972 C   0  0  0  0  0  0  0  0  0  0  0  0
   -9.6073   -2.2980    2.9858 S   0  0  0  0  0  0  0  0  0  0  0  0
   -7.1600   -1.0431    2.5594 C   0  0  0  0  0  0  0  0  0  0  0  0
   -6.2632   -2.0811    2.8402 C   0  0  0  0  0  0  0  0  0  0  0  0
   -6.5521   -3.2826    3.4546 N   0  0  0  0  0  0  0  0  0  0  0  0
   -5.9232   -4.4506    2.9977 C   0  0  0  0  0  0  0  0  0  0  0  0
   -5.5797   -5.4650    3.8874 C   0  0  0  0  0  0  0  0  0  0  0  0
   -5.0502   -6.6555    3.4325 C   0  0  0  0  0  0  0  0  0  0  0  0
   -4.8275   -6.8431    2.0745 C   0  0  0  0  0  0  0  0  0  0  0  0
   -4.2159   -8.3375    1.3699 S   0  0  0  0  0  0  0  0  0  0  0  0
   -4.0855   -9.4698    2.7827 C   0  0  0  0  0  0  0  0  0  0  0  0
   -5.1186   -5.8097    1.1861 C   0  0  0  0  0  0  0  0  0  0  0  0
   -5.6688   -4.6321    1.6378 C   0  0  0  0  0  0  0  0  0  0  0  0
   -7.4500   -3.3476    4.5285 C   0  0  0  0  0  0  0  0  0  0  0  0
   -8.2943   -4.4477    4.6836 C   0  0  0  0  0  0  0  0  0  0  0  0
   -9.2319   -4.4824    5.6943 C   0  0  0  0  0  0  0  0  0  0  0  0
   -9.3535   -3.4083    6.5679 C   0  0  0  0  0  0  0  0  0  0  0  0
  -10.5616   -3.3112    7.8430 S   0  0  0  0  0  0  0  0  0  0  0  0
  -11.6546   -4.7225    7.5178 C   0  0  0  0  0  0  0  0  0  0  0  0
   -8.4825   -2.3256    6.4435 C   0  0  0  0  0  0  0  0  0  0  0  0
   -7.5384   -2.2962    5.4425 C   0  0  0  0  0  0  0  0  0  0  0  0
   -4.9507   -1.7306    2.4394 C   0  0  0  0  0  0  0  0  0  0  0  0
   -3.4175   -2.5386    2.4999 S   0  0  0  0  0  0  0  0  0  0  0  0
   -2.6209   -1.1178    1.8304 C   0  0  0  0  0  0  0  0  0  0  0  0
   -3.5253   -0.1126    1.5035 C   0  0  0  0  0  0  0  0  0  0  0  0
   -3.2477    1.0728    0.8320 N   0  0  0  0  0  0  0  0  0  0  0  0
   -2.3695    1.1347   -0.2489 C   0  0  0  0  0  0  0  0  0  0  0  0
   -2.1046    0.0152   -1.0368 C   0  0  0  0  0  0  0  0  0  0  0  0
   -1.1422    0.0568   -2.0283 C   0  0  0  0  0  0  0  0  0  0  0  0
   -0.4283    1.2209   -2.2630 C   0  0  0  0  0  0  0  0  0  0  0  0
    0.9016    1.3635   -3.4185 S   0  0  0  0  0  0  0  0  0  0  0  0
    1.1195   -0.3234   -4.0480 C   0  0  0  0  0  0  0  0  0  0  0  0
   -0.7545    2.3674   -1.5443 C   0  0  0  0  0  0  0  0  0  0  0  0
   -1.7044    2.3268   -0.5507 C   0  0  0  0  0  0  0  0  0  0  0  0
   -3.8569    2.2370    1.3369 C   0  0  0  0  0  0  0  0  0  0  0  0
   -4.4495    3.1667    0.4839 C   0  0  0  0  0  0  0  0  0  0  0  0
   -5.0292    4.3035    0.9995 C   0  0  0  0  0  0  0  0  0  0  0  0
   -5.0442    4.5307    2.3753 C   0  0  0  0  0  0  0  0  0  0  0  0
   -5.8093    6.0228    2.9192 S   0  0  0  0  0  0  0  0  0  0  0  0
   -5.3165    6.1477    4.6618 C   0  0  0  0  0  0  0  0  0  0  0  0
   -4.4821    3.5913    3.2286 C   0  0  0  0  0  0  0  0  0  0  0  0
   -3.8855    2.4595    2.7094 C   0  0  0  0  0  0  0  0  0  0  0  0
   -4.8357   -0.4636    1.8945 C   0  0  0  0  0  0  0  0  0  0  0  0
   -6.3467    0.3648    1.8619 S   0  0  0  0  0  0  0  0  0  0  0  0
   -1.2144   -1.0008    1.6134 C   0  0  0  0  0  0  0  0  0  0  0  0
   -0.3222   -1.8571    0.9863 C   0  0  0  0  0  0  0  0  0  0  0  0
   -0.5054   -3.2098    0.7435 N   0  0  0  0  0  0  0  0  0  0  0  0
    0.1599   -3.7257   -0.3999 C   0  0  0  0  0  0  0  0  0  0  0  0
   -0.2914   -3.3724   -1.6633 C   0  0  0  0  0  0  0  0  0  0  0  0
    0.4140   -3.7416   -2.7938 C   0  0  0  0  0  0  0  0  0  0  0  0
    1.5822   -4.4811   -2.6675 C   0  0  0  0  0  0  0  0  0  0  0  0
    2.6127   -4.9402   -4.0210 S   0  0  0  0  0  0  0  0  0  0  0  0
    1.8808   -4.0813   -5.4427 C   0  0  0  0  0  0  0  0  0  0  0  0
    1.9950   -4.9014   -1.4029 C   0  0  0  0  0  0  0  0  0  0  0  0
    1.2925   -4.5299   -0.2786 C   0  0  0  0  0  0  0  0  0  0  0  0
   -0.8482   -4.0943    1.7677 C   0  0  0  0  0  0  0  0  0  0  0  0
   -1.2129   -5.4016    1.4398 C   0  0  0  0  0  0  0  0  0  0  0  0
   -1.5392   -6.3019    2.4267 C   0  0  0  0  0  0  0  0  0  0  0  0
   -1.5362   -5.9154    3.7634 C   0  0  0  0  0  0  0  0  0  0  0  0
   -1.9886   -7.1294    4.9679 S   0  0  0  0  0  0  0  0  0  0  0  0
   -2.5590   -6.1182    6.3642 C   0  0  0  0  0  0  0  0  0  0  0  0
   -1.1574   -4.6260    4.0999 C   0  0  0  0  0  0  0  0  0  0  0  0
   -0.8109   -3.7254    3.1112 C   0  0  0  0  0  0  0  0  0  0  0  0
    0.8325   -1.1450    0.5782 C   0  0  0  0  0  0  0  0  0  0  0  0
    2.1117   -1.5231   -0.5048 S   0  0  0  0  0  0  0  0  0  0  0  0
    2.7186    0.1320   -0.4160 C   0  0  0  0  0  0  0  0  0  0  0  0
    2.0386    0.8930    0.5407 C   0  0  0  0  0  0  0  0  0  0  0  0
    2.3426    2.1565    0.9761 N   0  0  0  0  0  0  0  0  0  0  0  0
    3.6220    2.7293    0.9321 C   0  0  0  0  0  0  0  0  0  0  0  0
    3.7427    4.1202    0.8687 C   0  0  0  0  0  0  0  0  0  0  0  0
    4.9829    4.7079    0.7748 C   0  0  0  0  0  0  0  0  0  0  0  0
    6.1361    3.9274    0.7419 C   0  0  0  0  0  0  0  0  0  0  0  0
    7.6692    4.7791    0.5639 S   0  0  0  0  0  0  0  0  0  0  0  0
    8.7865    3.4862   -0.0496 C   0  0  0  0  0  0  0  0  0  0  0  0
    6.0262    2.5499    0.8712 C   0  0  0  0  0  0  0  0  0  0  0  0
    4.7817    1.9582    0.9712 C   0  0  0  0  0  0  0  0  0  0  0  0
    1.4041    2.8260    1.8218 C   0  0  0  0  0  0  0  0  0  0  0  0
    0.5145    3.7564    1.2991 C   0  0  0  0  0  0  0  0  0  0  0  0
   -0.3805    4.3959    2.1295 C   0  0  0  0  0  0  0  0  0  0  0  0
   -0.3920    4.1231    3.4958 C   0  0  0  0  0  0  0  0  0  0  0  0
   -1.5862    4.9929    4.4519 S   0  0  0  0  0  0  0  0  0  0  0  0
   -1.3622    4.3503    6.1363 C   0  0  0  0  0  0  0  0  0  0  0  0
    0.5199    3.2197    4.0244 C   0  0  0  0  0  0  0  0  0  0  0  0
    1.4153    2.5792    3.1880 C   0  0  0  0  0  0  0  0  0  0  0  0
    0.9150    0.1646    1.0207 C   0  0  0  0  0  0  0  0  0  0  0  0
   -0.4833    0.5707    1.9565 S   0  0  0  0  0  0  0  0  0  0  0  0
    3.6640    0.4519   -1.4256 C   0  0  0  0  0  0  0  0  0  0  0  0
    4.1718    1.6442   -1.8645 C   0  0  0  0  0  0  0  0  0  0  0  0
    4.9940    1.5294   -3.0100 C   0  0  0  0  0  0  0  0  0  0  0  0
    5.6722    2.5476   -3.7037 C   0  0  0  0  0  0  0  0  0  0  0  0
    5.6670    3.9327   -3.2144 C   0  0  0  0  0  0  0  0  0  0  0  0
    4.4793    4.5735   -2.8774 C   0  0  0  0  0  0  0  0  0  0  0  0
    4.5228    5.8525   -2.3595 C   0  0  0  0  0  0  0  0  0  0  0  0
    3.3540    6.4342   -2.0149 F   0  0  0  0  0  0  0  0  0  0  0  0
    5.7029    6.5592   -2.1619 C   0  0  0  0  0  0  0  0  0  0  0  0
    5.7325    7.9553   -1.6169 C   0  0  0  0  0  0  0  0  0  0  0  0
    5.8184    8.9751   -2.7549 C   0  0  0  0  0  0  0  0  0  0  0  0
    6.8650    5.8964   -2.5416 C   0  0  0  0  0  0  0  0  0  0  0  0
    8.0450    6.5251   -2.3927 F   0  0  0  0  0  0  0  0  0  0  0  0
    6.8696    4.6136   -3.0503 C   0  0  0  0  0  0  0  0  0  0  0  0
    6.3744    2.1701   -4.8386 C   0  0  0  0  0  0  0  0  0  0  0  0
    6.4170    0.8365   -5.3246 C   0  0  0  0  0  0  0  0  0  0  0  0
    5.7697   -0.1872   -4.6092 C   0  0  0  0  0  0  0  0  0  0  0  0
    5.7445   -1.5846   -5.0640 C   0  0  0  0  0  0  0  0  0  0  0  0
    5.3020   -1.9046   -6.3432 C   0  0  0  0  0  0  0  0  0  0  0  0
    5.2203   -3.2309   -6.7208 C   0  0  0  0  0  0  0  0  0  0  0  0
    5.5636   -4.2877   -5.8865 C   0  0  0  0  0  0  0  0  0  0  0  0
    5.4859   -5.7227   -6.3144 C   0  0  0  0  0  0  0  0  0  0  0  0
    6.8708   -6.2530   -6.6917 C   0  0  0  0  0  0  0  0  0  0  0  0
    6.0116   -3.9240   -4.6203 C   0  0  0  0  0  0  0  0  0  0  0  0
    6.1017   -2.6136   -4.1978 C   0  0  0  0  0  0  0  0  0  0  0  0
    6.3717   -4.8959   -3.7629 F   0  0  0  0  0  0  0  0  0  0  0  0
    4.7597   -3.5075   -7.9613 F   0  0  0  0  0  0  0  0  0  0  0  0
    5.1009    0.1880   -3.4594 C   0  0  0  0  0  0  0  0  0  0  0  0
    4.2133   -0.8914   -2.4231 S   0  0  0  0  0  0  0  0  0  0  0  0
    7.1715    0.7256   -6.5130 C   0  0  0  0  0  0  0  0  0  0  0  0
    7.6778    1.9205   -6.9527 C   0  0  0  0  0  0  0  0  0  0  0  0
    7.2525    3.2482   -5.8894 S   0  0  0  0  0  0  0  0  0  0  0  0
    8.4595    2.1546   -8.1163 C   0  0  0  0  0  0  0  0  0  0  0  0
    8.8753    1.2266   -9.0595 C   0  0  0  0  0  0  0  0  0  0  0  0
    9.6202    1.7873  -10.0846 C   0  0  0  0  0  0  0  0  0  0  0  0
    9.7925    3.1596   -9.9528 C   0  0  0  0  0  0  0  0  0  0  0  0
   10.5076    3.9893  -10.8577 C   0  0  0  0  0  0  0  0  0  0  0  0
   10.6923    5.3525  -10.7702 C   0  0  0  0  0  0  0  0  0  0  0  0
   11.4321    6.0444  -11.7529 C   0  0  0  0  0  0  0  0  0  0  0  0
   12.0304    6.6208  -12.5430 N   0  0  0  0  0  0  0  0  0  0  0  0
   10.1820    6.1605   -9.7376 C   0  0  0  0  0  0  0  0  0  0  0  0
    9.7847    6.8596   -8.9182 N   0  0  0  0  0  0  0  0  0  0  0  0
   11.0923    3.3322  -11.9735 C   0  0  0  0  0  0  0  0  0  0  0  0
   11.5594    2.7972  -12.8717 N   0  0  0  0  0  0  0  0  0  0  0  0
    9.0052    3.7491   -8.5139 S   0  0  0  0  0  0  0  0  0  0  0  0
  -11.3810    0.8547    2.7033 H   0  0  0  0  0  0  0  0  0  0  0  0
   -8.8455    1.1768    2.3764 H   0  0  0  0  0  0  0  0  0  0  0  0
   -5.7507   -5.3256    4.9450 H   0  0  0  0  0  0  0  0  0  0  0  0
   -4.8128   -7.4265    4.1461 H   0  0  0  0  0  0  0  0  0  0  0  0
   -3.3602   -9.0937    3.4991 H   0  0  0  0  0  0  0  0  0  0  0  0
   -3.7415  -10.4124    2.3683 H   0  0  0  0  0  0  0  0  0  0  0  0
   -5.0626   -9.6023    3.2375 H   0  0  0  0  0  0  0  0  0  0  0  0
   -4.9341   -5.9559    0.1330 H   0  0  0  0  0  0  0  0  0  0  0  0
   -5.9312   -3.8551    0.9351 H   0  0  0  0  0  0  0  0  0  0  0  0
   -8.2373   -5.2661    3.9824 H   0  0  0  0  0  0  0  0  0  0  0  0
   -9.8816   -5.3375    5.7700 H   0  0  0  0  0  0  0  0  0  0  0  0
  -12.4943   -4.6011    8.1952 H   0  0  0  0  0  0  0  0  0  0  0  0
  -11.1370   -5.6522    7.7364 H   0  0  0  0  0  0  0  0  0  0  0  0
  -11.9994   -4.6877    6.4879 H   0  0  0  0  0  0  0  0  0  0  0  0
   -8.5643   -1.5046    7.1392 H   0  0  0  0  0  0  0  0  0  0  0  0
   -6.8751   -1.4487    5.3497 H   0  0  0  0  0  0  0  0  0  0  0  0
   -2.6545   -0.8992   -0.8677 H   0  0  0  0  0  0  0  0  0  0  0  0
   -0.9540   -0.8259   -2.6158 H   0  0  0  0  0  0  0  0  0  0  0  0
    1.9931   -0.2811   -4.6927 H   0  0  0  0  0  0  0  0  0  0  0  0
    1.3014   -1.0079   -3.2230 H   0  0  0  0  0  0  0  0  0  0  0  0
    0.2476   -0.6182   -4.6259 H   0  0  0  0  0  0  0  0  0  0  0  0
   -0.2395    3.2875   -1.7749 H   0  0  0  0  0  0  0  0  0  0  0  0
   -1.9204    3.2133    0.0229 H   0  0  0  0  0  0  0  0  0  0  0  0
   -4.4469    2.9912   -0.5813 H   0  0  0  0  0  0  0  0  0  0  0  0
   -5.4836    5.0300    0.3438 H   0  0  0  0  0  0  0  0  0  0  0  0
   -5.8178    5.3849    5.2508 H   0  0  0  0  0  0  0  0  0  0  0  0
   -4.2361    6.0659    4.7368 H   0  0  0  0  0  0  0  0  0  0  0  0
   -5.6395    7.1318    4.9865 H   0  0  0  0  0  0  0  0  0  0  0  0
   -4.4935    3.7339    4.2965 H   0  0  0  0  0  0  0  0  0  0  0  0
   -3.4280    1.7388    3.3724 H   0  0  0  0  0  0  0  0  0  0  0  0
   -1.2015   -2.7999   -1.7507 H   0  0  0  0  0  0  0  0  0  0  0  0
    0.0443   -3.4463   -3.7628 H   0  0  0  0  0  0  0  0  0  0  0  0
    2.5251   -4.3058   -6.2863 H   0  0  0  0  0  0  0  0  0  0  0  0
    1.8722   -3.0107   -5.2593 H   0  0  0  0  0  0  0  0  0  0  0  0
    0.8825   -4.4614   -5.6380 H   0  0  0  0  0  0  0  0  0  0  0  0
    2.8887   -5.4993   -1.3169 H   0  0  0  0  0  0  0  0  0  0  0  0
    1.6281   -4.8354    0.7011 H   0  0  0  0  0  0  0  0  0  0  0  0
   -1.2371   -5.7071    0.4051 H   0  0  0  0  0  0  0  0  0  0  0  0
   -1.8023   -7.3134    2.1644 H   0  0  0  0  0  0  0  0  0  0  0  0
   -3.1162   -6.7869    7.0129 H   0  0  0  0  0  0  0  0  0  0  0  0
   -3.2060   -5.3309    5.9890 H   0  0  0  0  0  0  0  0  0  0  0  0
   -1.7114   -5.7081    6.9059 H   0  0  0  0  0  0  0  0  0  0  0  0
   -1.1124   -4.3098    5.1300 H   0  0  0  0  0  0  0  0  0  0  0  0
   -0.4917   -2.7330    3.3921 H   0  0  0  0  0  0  0  0  0  0  0  0
    2.8600    4.7397    0.8731 H   0  0  0  0  0  0  0  0  0  0  0  0
    5.0733    5.7809    0.7136 H   0  0  0  0  0  0  0  0  0  0  0  0
    8.2916    2.9323   -0.8420 H   0  0  0  0  0  0  0  0  0  0  0  0
    9.0902    2.8294    0.7605 H   0  0  0  0  0  0  0  0  0  0  0  0
    9.6528    4.0091   -0.4426 H   0  0  0  0  0  0  0  0  0  0  0  0
    6.9039    1.9245    0.9029 H   0  0  0  0  0  0  0  0  0  0  0  0
    4.7136    0.8877    1.0868 H   0  0  0  0  0  0  0  0  0  0  0  0
    0.5317    3.9735    0.2439 H   0  0  0  0  0  0  0  0  0  0  0  0
   -1.0795    5.1172    1.7337 H   0  0  0  0  0  0  0  0  0  0  0  0
   -2.1086    4.8513    6.7452 H   0  0  0  0  0  0  0  0  0  0  0  0
   -1.5342    3.2780    6.1480 H   0  0  0  0  0  0  0  0  0  0  0  0
   -0.3695    4.5974    6.5005 H   0  0  0  0  0  0  0  0  0  0  0  0
    0.5475    3.0043    5.0799 H   0  0  0  0  0  0  0  0  0  0  0  0
    2.1254    1.8757    3.5977 H   0  0  0  0  0  0  0  0  0  0  0  0
    3.9348    2.5873   -1.4170 H   0  0  0  0  0  0  0  0  0  0  0  0
    3.5250    4.0971   -3.0369 H   0  0  0  0  0  0  0  0  0  0  0  0
    4.8292    8.1375   -1.0325 H   0  0  0  0  0  0  0  0  0  0  0  0
    6.6023    8.0650   -0.9662 H   0  0  0  0  0  0  0  0  0  0  0  0
    6.7230    8.8186   -3.3374 H   0  0  0  0  0  0  0  0  0  0  0  0
    5.8367    9.9835   -2.3502 H   0  0  0  0  0  0  0  0  0  0  0  0
    4.9586    8.8808   -3.4147 H   0  0  0  0  0  0  0  0  0  0  0  0
    7.8122    4.1514   -3.2976 H   0  0  0  0  0  0  0  0  0  0  0  0
    4.9941   -1.1357   -7.0345 H   0  0  0  0  0  0  0  0  0  0  0  0
    4.8168   -5.8134   -7.1712 H   0  0  0  0  0  0  0  0  0  0  0  0
    5.0827   -6.3145   -5.4903 H   0  0  0  0  0  0  0  0  0  0  0  0
    7.2883   -5.6762   -7.5144 H   0  0  0  0  0  0  0  0  0  0  0  0
    7.5467   -6.1896   -5.8426 H   0  0  0  0  0  0  0  0  0  0  0  0
    6.7985   -7.2927   -6.9993 H   0  0  0  0  0  0  0  0  0  0  0  0
    6.4590   -2.4037   -3.2027 H   0  0  0  0  0  0  0  0  0  0  0  0
    7.3398   -0.2084   -7.0167 H   0  0  0  0  0  0  0  0  0  0  0  0
    8.6394    0.1805   -8.9965 H   0  0  0  0  0  0  0  0  0  0  0  0
   10.0295    1.2296  -10.9086 H   0  0  0  0  0  0  0  0  0  0  0  0
  1  2  3  0  0  0  0
  2  3  1  0  0  0  0
  3  4  1  0  0  0  0
  4  5  3  0  0  0  0
  3  6  2  0  0  0  0
  6  7  1  0  0  0  0
  7  8  3  0  0  0  0
  6  9  1  0  0  0  0
  9 10  2  0  0  0  0
 10 11  1  0  0  0  0
 11 12  2  0  0  0  0
 12 13  1  0  0  0  0
 12 14  1  0  0  0  0
 14 15  2  0  0  0  0
 15 16  1  0  0  0  0
 16 17  1  0  0  0  0
 17 18  2  0  0  0  0
 18 19  1  0  0  0  0
 19 20  2  0  0  0  0
 20 21  1  0  0  0  0
 21 22  1  0  0  0  0
 20 23  1  0  0  0  0
 23 24  2  0  0  0  0
 16 25  1  0  0  0  0
 25 26  2  0  0  0  0
 26 27  1  0  0  0  0
 27 28  2  0  0  0  0
 28 29  1  0  0  0  0
 29 30  1  0  0  0  0
 28 31  1  0  0  0  0
 31 32  2  0  0  0  0
 15 33  1  0  0  0  0
 33 34  1  0  0  0  0
 34 35  1  0  0  0  0
 35 36  2  0  0  0  0
 36 37  1  0  0  0  0
 37 38  1  0  0  0  0
 38 39  2  0  0  0  0
 39 40  1  0  0  0  0
 40 41  2  0  0  0  0
 41 42  1  0  0  0  0
 42 43  1  0  0  0  0
 41 44  1  0  0  0  0
 44 45  2  0  0  0  0
 37 46  1  0  0  0  0
 46 47  2  0  0  0  0
 47 48  1  0  0  0  0
 48 49  2  0  0  0  0
 49 50  1  0  0  0  0
 50 51  1  0  0  0  0
 49 52  1  0  0  0  0
 52 53  2  0  0  0  0
 36 54  1  0  0  0  0
 54 55  1  0  0  0  0
 35 56  1  0  0  0  0
 56 57  2  0  0  0  0
 57 58  1  0  0  0  0
 58 59  1  0  0  0  0
 59 60  2  0  0  0  0
 60 61  1  0  0  0  0
 61 62  2  0  0  0  0
 62 63  1  0  0  0  0
 63 64  1  0  0  0  0
 62 65  1  0  0  0  0
 65 66  2  0  0  0  0
 58 67  1  0  0  0  0
 67 68  2  0  0  0  0
 68 69  1  0  0  0  0
 69 70  2  0  0  0  0
 70 71  1  0  0  0  0
 71 72  1  0  0  0  0
 70 73  1  0  0  0  0
 73 74  2  0  0  0  0
 57 75  1  0  0  0  0
 75 76  1  0  0  0  0
 76 77  1  0  0  0  0
 77 78  2  0  0  0  0
 78 79  1  0  0  0  0
 79 80  1  0  0  0  0
 80 81  2  0  0  0  0
 81 82  1  0  0  0  0
 82 83  2  0  0  0  0
 83 84  1  0  0  0  0
 84 85  1  0  0  0  0
 83 86  1  0  0  0  0
 86 87  2  0  0  0  0
 79 88  1  0  0  0  0
 88 89  2  0  0  0  0
 89 90  1  0  0  0  0
 90 91  2  0  0  0  0
 91 92  1  0  0  0  0
 92 93  1  0  0  0  0
 91 94  1  0  0  0  0
 94 95  2  0  0  0  0
 78 96  1  0  0  0  0
 96 97  1  0  0  0  0
 77 98  1  0  0  0  0
 98 99  2  0  0  0  0
 99100  1  0  0  0  0
100101  2  0  0  0  0
101102  1  0  0  0  0
102103  2  0  0  0  0
103104  1  0  0  0  0
104105  1  0  0  0  0
104106  2  0  0  0  0
106107  1  0  0  0  0
107108  1  0  0  0  0
106109  1  0  0  0  0
109110  1  0  0  0  0
109111  2  0  0  0  0
101112  1  0  0  0  0
112113  2  0  0  0  0
113114  1  0  0  0  0
114115  1  0  0  0  0
115116  2  0  0  0  0
116117  1  0  0  0  0
117118  2  0  0  0  0
118119  1  0  0  0  0
119120  1  0  0  0  0
118121  1  0  0  0  0
121122  2  0  0  0  0
121123  1  0  0  0  0
117124  1  0  0  0  0
114125  2  0  0  0  0
125126  1  0  0  0  0
113127  1  0  0  0  0
127128  2  0  0  0  0
128129  1  0  0  0  0
128130  1  0  0  0  0
130131  2  0  0  0  0
131132  1  0  0  0  0
132133  2  0  0  0  0
133134  1  0  0  0  0
134135  2  0  0  0  0
135136  1  0  0  0  0
136137  3  0  0  0  0
135138  1  0  0  0  0
138139  3  0  0  0  0
134140  1  0  0  0  0
140141  3  0  0  0  0
133142  1  0  0  0  0
 13  9  1  0  0  0  0
 55 14  1  0  0  0  0
 97 56  1  0  0  0  0
126 98  1  0  0  0  0
142130  1  0  0  0  0
 24 17  1  0  0  0  0
 32 25  1  0  0  0  0
 54 33  2  0  0  0  0
 66 59  1  0  0  0  0
 74 67  1  0  0  0  0
 96 75  2  0  0  0  0
125100  1  0  0  0  0
 45 38  1  0  0  0  0
 53 46  1  0  0  0  0
 87 80  1  0  0  0  0
 95 88  1  0  0  0  0
111102  1  0  0  0  0
129112  1  0  0  0  0
122115  1  0  0  0  0
 10143  1  0  0  0  0
 11144  1  0  0  0  0
 18145  1  0  0  0  0
 19146  1  0  0  0  0
 22147  1  0  0  0  0
 22148  1  0  0  0  0
 22149  1  0  0  0  0
 23150  1  0  0  0  0
 24151  1  0  0  0  0
 26152  1  0  0  0  0
 27153  1  0  0  0  0
 30154  1  0  0  0  0
 30155  1  0  0  0  0
 30156  1  0  0  0  0
 31157  1  0  0  0  0
 32158  1  0  0  0  0
 39159  1  0  0  0  0
 40160  1  0  0  0  0
 43161  1  0  0  0  0
 43162  1  0  0  0  0
 43163  1  0  0  0  0
 44164  1  0  0  0  0
 45165  1  0  0  0  0
 47166  1  0  0  0  0
 48167  1  0  0  0  0
 51168  1  0  0  0  0
 51169  1  0  0  0  0
 51170  1  0  0  0  0
 52171  1  0  0  0  0
 53172  1  0  0  0  0
 60173  1  0  0  0  0
 61174  1  0  0  0  0
 64175  1  0  0  0  0
 64176  1  0  0  0  0
 64177  1  0  0  0  0
 65178  1  0  0  0  0
 66179  1  0  0  0  0
 68180  1  0  0  0  0
 69181  1  0  0  0  0
 72182  1  0  0  0  0
 72183  1  0  0  0  0
 72184  1  0  0  0  0
 73185  1  0  0  0  0
 74186  1  0  0  0  0
 81187  1  0  0  0  0
 82188  1  0  0  0  0
 85189  1  0  0  0  0
 85190  1  0  0  0  0
 85191  1  0  0  0  0
 86192  1  0  0  0  0
 87193  1  0  0  0  0
 89194  1  0  0  0  0
 90195  1  0  0  0  0
 93196  1  0  0  0  0
 93197  1  0  0  0  0
 93198  1  0  0  0  0
 94199  1  0  0  0  0
 95200  1  0  0  0  0
 99201  1  0  0  0  0
103202  1  0  0  0  0
107203  1  0  0  0  0
107204  1  0  0  0  0
108205  1  0  0  0  0
108206  1  0  0  0  0
108207  1  0  0  0  0
111208  1  0  0  0  0
116209  1  0  0  0  0
119210  1  0  0  0  0
119211  1  0  0  0  0
120212  1  0  0  0  0
120213  1  0  0  0  0
120214  1  0  0  0  0
122215  1  0  0  0  0
127216  1  0  0  0  0
131217  1  0  0  0  0
132218  1  0  0  0  0
M  END
