196

N         -2.58130       -5.89270      -13.12560
C         -1.93520       -4.94380      -13.15050
C         -1.12110       -3.80080      -13.23690
C         -0.52940       -3.60800      -14.50430
N         -0.06380       -3.47050      -15.54310
C         -0.87330       -2.91980      -12.20530
C          0.01530       -1.84750      -12.48600
N          0.72870       -0.98020      -12.70970
C         -1.40440       -2.97880      -10.88710
C         -2.34920       -3.84080      -10.35050
C         -2.59880       -3.60180       -9.00860
C         -1.85330       -2.55990       -8.47650
S         -0.84820       -1.84230       -9.69310
C         -1.79150       -2.12380       -7.10920
C         -1.11040       -0.96690       -6.74650
F         -0.60930       -0.15290       -7.69060
C         -0.86920       -0.61620       -5.42160
F         -0.17570        0.51110       -5.18440
C         -1.31400       -1.38610       -4.35970
C         -2.18130       -2.46640       -4.68200
N         -2.78210       -3.13060       -3.68380
C         -3.52240       -4.17730       -3.95020
C         -4.24390       -4.84240       -2.81770
C         -4.21610       -4.02150       -1.53630
C         -3.60420       -4.66180       -5.28620
N         -3.04330       -4.00380       -6.27150
C         -2.36660       -2.86870       -6.03060
C         -4.34620       -5.90720       -5.66660
C         -5.78880       -5.57050       -6.05520
C         -0.84080       -1.16970       -3.02050
C          0.47920       -0.91700       -2.65860
N          1.56040       -0.88560       -3.52840
C          2.48040        0.16570       -3.40800
C          3.80710        0.00430       -3.79710
C          4.70130        1.05430       -3.71000
C          4.28860        2.28190       -3.20870
S          5.32640        3.70000       -3.05900
C          6.86370        3.21410       -3.88250
C          2.96890        2.43700       -2.78980
C          2.07310        1.39890       -2.89660
C          1.58020       -1.76670       -4.61710
C          2.00330       -1.36330       -5.88530
C          1.87340       -2.21080       -6.96480
C          1.31480       -3.47710       -6.80940
S          1.10310       -4.45420       -8.26580
C         -0.09790       -5.71830       -7.75540
C          0.95740       -3.91000       -5.53850
C          1.09680       -3.06570       -4.45680
C          0.58140       -0.74560       -1.26080
S          1.86220       -0.37170       -0.16000
C          0.73130       -0.29860        1.19480
C         -0.55960       -0.59510        0.79590
N         -1.73120       -0.48650        1.58050
C         -2.38670        0.75380        1.38120
C         -1.69880        1.93830        1.62710
C         -2.30450        3.16830        1.44340
C         -3.61540        3.23740        0.99570
S         -4.51030        4.73830        0.74880
C         -3.30080        6.03910        1.12430
C         -4.29380        2.05530        0.70310
C         -3.68730        0.83270        0.88170
C         -2.47500       -1.64860        1.80440
C         -2.03770       -2.89300        1.35950
C         -2.77100       -4.03780        1.60680
C         -3.96480       -3.96420        2.30530
S         -5.01200       -5.34720        2.63790
C         -4.06390       -6.77070        2.03150
C         -4.38800       -2.72970        2.79270
C         -3.64980       -1.59320        2.56030
C         -0.62610       -0.86400       -0.59030
S         -1.92100       -1.28710       -1.65530
C          1.24170        0.23560        2.41210
C          0.67430        0.38570        3.67880
N         -0.35340       -0.35360        4.22650
C         -0.42290       -1.74600        4.09220
C         -1.54700       -2.42080        4.57920
C         -1.62390       -3.79260        4.52410
C         -0.59050       -4.53590        3.95970
S         -0.79910       -6.28960        3.90020
C          0.87780       -6.91260        3.58470
C          0.52110       -3.87690        3.46080
C          0.60750       -2.49970        3.53780
C         -1.04120        0.24210        5.31710
C         -1.78380        1.40030        5.12420
C         -2.43270        2.00350        6.18630
C         -2.35120        1.45150        7.45900
S         -3.15120        2.09990        8.88170
C         -3.74980        3.72540        8.34930
C         -1.60570        0.28630        7.65020
C         -0.95420       -0.30870        6.59640
C          1.38940        1.36710        4.41660
S          1.08530        2.19780        5.89830
C          2.57710        3.12550        5.71540
C          3.33550        2.69270        4.61840
N          4.64570        3.00860        4.35300
C          5.58730        3.25620        5.36930
C          6.69630        4.05060        5.06840
C          7.62700        4.34050        6.03880
C          7.47660        3.84770        7.33540
S          8.71230        4.31260        8.50020
C          8.06490        3.71730       10.08770
C          6.39450        3.02750        7.62730
C          5.46240        2.73200        6.65140
C          5.17770        2.64360        3.09040
C          4.70640        3.22880        1.91950
C          5.18320        2.79930        0.69300
C          6.12240        1.78300        0.64290
S          6.65570        1.12160       -0.92270
C          5.79060       -0.47430       -0.82420
C          6.64040        1.23960        1.80960
C          6.17110        1.66910        3.03170
C          2.58040        1.78130        3.83900
S          2.79260        1.06550        2.27900
C          2.77730        4.20050        6.60910
C          3.71180        5.23050        6.58740
C          3.57090        6.12270        7.63600
C          2.49820        5.83750        8.47090
C          2.09990        6.59260        9.60280
C          0.89720        6.49820       10.27610
C          0.64090        7.28260       11.41860
N          0.41780        7.90850       12.35350
C         -0.17520        5.69640        9.85180
N         -1.09560        5.10180        9.50670
C          3.03930        7.54580       10.07500
N          3.80890        8.30510       10.45360
S          1.67130        4.39590        7.93760
H         -2.84040       -4.61080      -10.91650
H         -3.29350       -4.16420       -8.41470
H         -5.27800       -5.02380       -3.11950
H         -3.78300       -5.82030       -2.64210
H         -4.78890       -4.51820       -0.75740
H         -3.19670       -3.88360       -1.19100
H         -4.64420       -3.03800       -1.70820
H         -4.34000       -6.62120       -4.84300
H         -3.84660       -6.35610       -6.52680
H         -6.32190       -5.11420       -5.22430
H         -6.31510       -6.47470       -6.34890
H         -5.79800       -4.87470       -6.89050
H          4.13880       -0.95020       -4.17900
H          5.72020        0.89940       -4.02520
H          7.34630        2.42140       -3.31840
H          7.48880        4.10160       -3.88140
H          6.65130        2.91150       -4.90370
H          2.64920        3.39280       -2.40360
H          1.04320        1.54990       -2.61220
H          2.38730       -0.36530       -6.02970
H          2.17100       -1.88330       -7.94900
H         -0.41670       -6.20420       -8.67250
H         -0.94760       -5.24250       -7.27390
H          0.37500       -6.44640       -7.10240
H          0.56840       -4.90310       -5.37950
H          0.80330       -3.40790       -3.47500
H         -0.67250        1.90540        1.95870
H         -1.73790        4.06100        1.65560
H         -2.44960        5.95870        0.45450
H         -2.99470        5.97690        2.16480
H         -3.81910        6.97700        0.94980
H         -5.30120        2.11070        0.32030
H         -4.21740       -0.07010        0.62040
H         -1.10490       -2.98300        0.82430
H         -2.39500       -4.98110        1.24580
H         -3.10790       -6.81850        2.54480
H         -3.93610       -6.70320        0.95480
H         -4.66030       -7.64360        2.27750
H         -5.30080       -2.67630        3.36600
H         -3.97610       -0.65050        2.97270
H         -2.35920       -1.86330        5.01680
H         -2.48990       -4.30200        4.91660
H          1.18000       -6.68840        2.56560
H          0.82360       -7.98790        3.72280
H          1.56620       -6.47990        4.30430
H          1.33960       -4.42070        3.01620
H          1.50520       -2.02340        3.17630
H         -1.85740        1.82670        4.13460
H         -3.00280        2.90030        6.00660
H         -4.17360        4.18120        9.23840
H         -4.51710        3.61560        7.58810
H         -2.91000        4.31890        8.00360
H         -1.53960       -0.13410        8.64160
H         -0.36710       -1.20150        6.75410
H          6.81260        4.44490        4.06980
H          8.47810        4.96250        5.80990
H          8.75540        4.08640       10.83960
H          8.04970        2.63130       10.10580
H          7.07620        4.13220       10.26030
H          6.26650        2.60330        8.60980
H          4.63800        2.07800        6.89170
H          3.95590        4.00310        1.97390
H          4.81990        3.23710       -0.22360
H          6.04640       -1.02320       -1.72390
H          6.12260       -1.01720        0.05550
H          4.71960       -0.29460       -0.78660
H          7.39840        0.47280        1.75660
H          6.55310        1.24150        3.94710
H          4.45320        5.34120        5.82030
H          4.20660        6.97810        7.78530
