
  xtb     02032220473D
 energy: -227.364681514703 gnorm: 0.000546432576 xtb: 6.4.1 (unknown)
113125  0     0  0            999 V2000
  -15.5968   -4.7759    5.1107 N   0  0  0  0  0  0  0  0  0  0  0  0
  -14.7157   -4.3531    4.5109 C   0  0  0  0  0  0  0  0  0  0  0  0
  -13.6140   -3.8504    3.7860 C   0  0  0  0  0  0  0  0  0  0  0  0
  -12.3642   -4.3253    4.2247 C   0  0  0  0  0  0  0  0  0  0  0  0
  -11.3770   -4.7504    4.6287 N   0  0  0  0  0  0  0  0  0  0  0  0
  -13.7995   -2.9698    2.7411 C   0  0  0  0  0  0  0  0  0  0  0  0
  -15.1398   -2.6089    2.4367 C   0  0  0  0  0  0  0  0  0  0  0  0
  -16.2176   -2.3133    2.1871 N   0  0  0  0  0  0  0  0  0  0  0  0
  -12.7918   -2.3801    1.9332 C   0  0  0  0  0  0  0  0  0  0  0  0
  -13.0153   -1.5036    0.8751 C   0  0  0  0  0  0  0  0  0  0  0  0
  -11.8478   -1.0796    0.2660 C   0  0  0  0  0  0  0  0  0  0  0  0
  -10.7050   -1.6188    0.8435 C   0  0  0  0  0  0  0  0  0  0  0  0
  -11.0884   -2.6722    2.1623 S   0  0  0  0  0  0  0  0  0  0  0  0
   -9.3482   -1.3913    0.4838 C   0  0  0  0  0  0  0  0  0  0  0  0
   -8.2989   -2.0070    1.1915 C   0  0  0  0  0  0  0  0  0  0  0  0
   -6.8996   -1.7759    0.9050 C   0  0  0  0  0  0  0  0  0  0  0  0
   -6.1149   -2.4768    1.7376 N   0  0  0  0  0  0  0  0  0  0  0  0
   -7.0271   -3.3172    2.7480 S   0  0  0  0  0  4  0  0  0  0  0  0
   -8.4617   -2.8571    2.2078 N   0  0  0  0  0  0  0  0  0  0  0  0
   -6.4822   -0.8832   -0.0952 C   0  0  0  0  0  0  0  0  0  0  0  0
   -7.5229   -0.3189   -0.8505 C   0  0  0  0  0  0  0  0  0  0  0  0
   -7.3671    0.4631   -1.9251 N   0  0  0  0  0  0  0  0  0  0  0  0
   -8.7956    0.8799   -2.4902 S   0  0  0  0  0  0  0  0  0  0  0  0
   -9.7141    0.0886   -1.4392 N   0  0  0  0  0  0  0  0  0  0  0  0
   -8.9291   -0.5576   -0.5721 C   0  0  0  0  0  0  0  0  0  0  0  0
   -5.0810   -0.5557   -0.2977 C   0  0  0  0  0  0  0  0  0  0  0  0
   -4.1037   -1.5447   -0.1809 C   0  0  0  0  0  0  0  0  0  0  0  0
   -2.7554   -1.2618   -0.3127 C   0  0  0  0  0  0  0  0  0  0  0  0
   -1.7676   -2.1728   -0.1841 O   0  0  0  0  0  0  0  0  0  0  0  0
   -2.0440   -3.5345    0.0864 C   0  0  0  0  0  0  0  0  0  0  0  0
   -2.4498   -4.3020   -1.1668 C   0  0  0  0  0  0  0  0  0  0  0  0
   -2.3318    0.0646   -0.5773 C   0  0  0  0  0  0  0  0  0  0  0  0
   -3.3115    1.0526   -0.6911 C   0  0  0  0  0  0  0  0  0  0  0  0
   -4.6457    0.7479   -0.5532 C   0  0  0  0  0  0  0  0  0  0  0  0
   -5.5258    1.7674   -0.5787 F   0  0  0  0  0  0  0  0  0  0  0  0
   -0.9315    0.3913   -0.6794 C   0  0  0  0  0  0  0  0  0  0  0  0
   -0.3809    1.6205   -0.9300 C   0  0  0  0  0  0  0  0  0  0  0  0
    1.0307    1.6314   -0.9133 C   0  0  0  0  0  0  0  0  0  0  0  0
    1.8896    2.7288   -1.1320 C   0  0  0  0  0  0  0  0  0  0  0  0
    1.3757    4.0088   -1.5834 C   0  0  0  0  0  0  0  0  0  0  0  0
    1.8118    5.5001   -0.8022 S   0  0  0  0  0  0  0  0  0  0  0  0
    0.8596    6.4431   -1.8963 C   0  0  0  0  0  0  0  0  0  0  0  0
    0.8335    7.9287   -1.8092 C   0  0  0  0  0  0  0  0  0  0  0  0
    2.0373    8.5355   -2.5345 C   0  0  0  0  0  0  0  0  0  0  0  0
    0.2544    5.6375   -2.8147 C   0  0  0  0  0  0  0  0  0  0  0  0
   -0.7616    6.2137   -4.0723 Cl  0  0  0  0  0  0  0  0  0  0  0  0
    0.5386    4.2572   -2.6378 C   0  0  0  0  0  0  0  0  0  0  0  0
   -0.0506    3.0532   -3.7104 Cl  0  0  0  0  0  0  0  0  0  0  0  0
    3.2397    2.5177   -0.8953 C   0  0  0  0  0  0  0  0  0  0  0  0
    3.7677    1.2465   -0.5434 C   0  0  0  0  0  0  0  0  0  0  0  0
    2.9221    0.1158   -0.4625 C   0  0  0  0  0  0  0  0  0  0  0  0
    3.4764   -1.2041   -0.2782 C   0  0  0  0  0  0  0  0  0  0  0  0
    4.6207   -1.7077   -0.8399 C   0  0  0  0  0  0  0  0  0  0  0  0
    4.8777   -3.0436   -0.4839 C   0  0  0  0  0  0  0  0  0  0  0  0
    3.9396   -3.5678    0.3541 C   0  0  0  0  0  0  0  0  0  0  0  0
    3.8550   -4.9491    0.9041 C   0  0  0  0  0  0  0  0  0  0  0  0
    2.7600   -5.7530    0.1991 C   0  0  0  0  0  0  0  0  0  0  0  0
    2.6975   -2.4104    0.7049 S   0  0  0  0  0  0  0  0  0  0  0  0
    1.5605    0.3544   -0.6025 C   0  0  0  0  0  0  0  0  0  0  0  0
    0.2944   -0.8245   -0.4248 S   0  0  0  0  0  0  0  0  0  0  0  0
    5.1466    1.3053   -0.2775 C   0  0  0  0  0  0  0  0  0  0  0  0
    5.7007    2.5520   -0.4568 C   0  0  0  0  0  0  0  0  0  0  0  0
    4.4917    3.7202   -0.9676 S   0  0  0  0  0  0  0  0  0  0  0  0
    7.0092    3.0039   -0.1767 C   0  0  0  0  0  0  0  0  0  0  0  0
    8.1353    2.2868    0.1059 C   0  0  0  0  0  0  0  0  0  0  0  0
    9.2399    2.9541    0.8480 C   0  0  0  0  0  0  0  0  0  0  0  0
    9.3922    4.1417    1.0131 O   0  0  0  0  0  0  0  0  0  0  0  0
   10.0629    1.8506    1.3882 C   0  0  0  0  0  0  0  0  0  0  0  0
   11.1201    1.9100    2.2488 C   0  0  0  0  0  0  0  0  0  0  0  0
   11.7330    0.7072    2.6679 C   0  0  0  0  0  0  0  0  0  0  0  0
   12.8205    0.7134    3.5627 C   0  0  0  0  0  0  0  0  0  0  0  0
   13.3895   -0.4632    3.9628 C   0  0  0  0  0  0  0  0  0  0  0  0
   14.4211   -0.4558    4.8178 F   0  0  0  0  0  0  0  0  0  0  0  0
   12.8989   -1.6945    3.4844 C   0  0  0  0  0  0  0  0  0  0  0  0
   13.4751   -2.8325    3.8941 F   0  0  0  0  0  0  0  0  0  0  0  0
   11.8465   -1.7328    2.6135 C   0  0  0  0  0  0  0  0  0  0  0  0
   11.2368   -0.5375    2.1827 C   0  0  0  0  0  0  0  0  0  0  0  0
   10.1480   -0.5671    1.2810 C   0  0  0  0  0  0  0  0  0  0  0  0
    9.5715    0.6108    0.8890 C   0  0  0  0  0  0  0  0  0  0  0  0
    8.4731    0.8892   -0.0326 C   0  0  0  0  0  0  0  0  0  0  0  0
    8.0271    0.0385   -1.0119 C   0  0  0  0  0  0  0  0  0  0  0  0
    7.1889    0.4628   -2.0623 C   0  0  0  0  0  0  0  0  0  0  0  0
    6.5330    0.7787   -2.9497 N   0  0  0  0  0  0  0  0  0  0  0  0
    8.3888   -1.3185   -1.1079 C   0  0  0  0  0  0  0  0  0  0  0  0
    8.6138   -2.4407   -1.2020 N   0  0  0  0  0  0  0  0  0  0  0  0
  -14.0014   -1.1957    0.5735 H   0  0  0  0  0  0  0  0  0  0  0  0
  -11.7967   -0.4040   -0.5676 H   0  0  0  0  0  0  0  0  0  0  0  0
   -4.4361   -2.5474    0.0252 H   0  0  0  0  0  0  0  0  0  0  0  0
   -1.0969   -3.9234    0.4705 H   0  0  0  0  0  0  0  0  0  0  0  0
   -2.8025   -3.6228    0.8723 H   0  0  0  0  0  0  0  0  0  0  0  0
   -1.6706   -4.2127   -1.9194 H   0  0  0  0  0  0  0  0  0  0  0  0
   -3.3755   -3.9124   -1.5830 H   0  0  0  0  0  0  0  0  0  0  0  0
   -2.5867   -5.3519   -0.9241 H   0  0  0  0  0  0  0  0  0  0  0  0
   -3.0395    2.0796   -0.8684 H   0  0  0  0  0  0  0  0  0  0  0  0
   -0.9583    2.5097   -1.0983 H   0  0  0  0  0  0  0  0  0  0  0  0
   -0.0900    8.2915   -2.2640 H   0  0  0  0  0  0  0  0  0  0  0  0
    0.8514    8.2315   -0.7609 H   0  0  0  0  0  0  0  0  0  0  0  0
    2.0120    9.6189   -2.4574 H   0  0  0  0  0  0  0  0  0  0  0  0
    2.0218    8.2603   -3.5860 H   0  0  0  0  0  0  0  0  0  0  0  0
    2.9636    8.1744   -2.0943 H   0  0  0  0  0  0  0  0  0  0  0  0
    5.2193   -1.1546   -1.5407 H   0  0  0  0  0  0  0  0  0  0  0  0
    5.7330   -3.5922   -0.8365 H   0  0  0  0  0  0  0  0  0  0  0  0
    3.6359   -4.9077    1.9737 H   0  0  0  0  0  0  0  0  0  0  0  0
    4.8194   -5.4420    0.7682 H   0  0  0  0  0  0  0  0  0  0  0  0
    2.9689   -5.8218   -0.8659 H   0  0  0  0  0  0  0  0  0  0  0  0
    2.7066   -6.7580    0.6095 H   0  0  0  0  0  0  0  0  0  0  0  0
    1.7948   -5.2690    0.3315 H   0  0  0  0  0  0  0  0  0  0  0  0
    5.6927    0.4706    0.1227 H   0  0  0  0  0  0  0  0  0  0  0  0
    7.1209    4.0790   -0.0724 H   0  0  0  0  0  0  0  0  0  0  0  0
   11.4829    2.8608    2.6084 H   0  0  0  0  0  0  0  0  0  0  0  0
   13.2074    1.6478    3.9381 H   0  0  0  0  0  0  0  0  0  0  0  0
   11.4855   -2.6840    2.2548 H   0  0  0  0  0  0  0  0  0  0  0  0
    9.7879   -1.5221    0.9322 H   0  0  0  0  0  0  0  0  0  0  0  0
  1  2  3  0  0  0  0
  2  3  1  0  0  0  0
  3  4  1  0  0  0  0
  4  5  3  0  0  0  0
  3  6  2  0  0  0  0
  6  7  1  0  0  0  0
  7  8  3  0  0  0  0
  6  9  1  0  0  0  0
  9 10  2  0  0  0  0
 10 11  1  0  0  0  0
 11 12  2  0  0  0  0
 12 13  1  0  0  0  0
 12 14  1  0  0  0  0
 14 15  2  0  0  0  0
 15 16  1  0  0  0  0
 16 17  1  0  0  0  0
 17 18  2  0  0  0  0
 18 19  2  0  0  0  0
 16 20  2  0  0  0  0
 20 21  1  0  0  0  0
 21 22  2  0  0  0  0
 22 23  1  0  0  0  0
 23 24  1  0  0  0  0
 24 25  2  0  0  0  0
 20 26  1  0  0  0  0
 26 27  2  0  0  0  0
 27 28  1  0  0  0  0
 28 29  1  0  0  0  0
 29 30  1  0  0  0  0
 30 31  1  0  0  0  0
 28 32  2  0  0  0  0
 32 33  1  0  0  0  0
 33 34  2  0  0  0  0
 34 35  1  0  0  0  0
 32 36  1  0  0  0  0
 36 37  2  0  0  0  0
 37 38  1  0  0  0  0
 38 39  2  0  0  0  0
 39 40  1  0  0  0  0
 40 41  1  0  0  0  0
 41 42  1  0  0  0  0
 42 43  1  0  0  0  0
 43 44  1  0  0  0  0
 42 45  2  0  0  0  0
 45 46  1  0  0  0  0
 45 47  1  0  0  0  0
 47 48  1  0  0  0  0
 39 49  1  0  0  0  0
 49 50  2  0  0  0  0
 50 51  1  0  0  0  0
 51 52  1  0  0  0  0
 52 53  2  0  0  0  0
 53 54  1  0  0  0  0
 54 55  2  0  0  0  0
 55 56  1  0  0  0  0
 56 57  1  0  0  0  0
 55 58  1  0  0  0  0
 51 59  2  0  0  0  0
 59 60  1  0  0  0  0
 50 61  1  0  0  0  0
 61 62  2  0  0  0  0
 62 63  1  0  0  0  0
 62 64  1  0  0  0  0
 64 65  2  0  0  0  0
 65 66  1  0  0  0  0
 66 67  2  0  0  0  0
 66 68  1  0  0  0  0
 68 69  2  0  0  0  0
 69 70  1  0  0  0  0
 70 71  2  0  0  0  0
 71 72  1  0  0  0  0
 72 73  1  0  0  0  0
 72 74  2  0  0  0  0
 74 75  1  0  0  0  0
 74 76  1  0  0  0  0
 76 77  2  0  0  0  0
 77 78  1  0  0  0  0
 78 79  2  0  0  0  0
 79 80  1  0  0  0  0
 80 81  2  0  0  0  0
 81 82  1  0  0  0  0
 82 83  3  0  0  0  0
 81 84  1  0  0  0  0
 84 85  3  0  0  0  0
 13  9  1  0  0  0  0
 25 14  1  0  0  0  0
 34 26  1  0  0  0  0
 60 36  1  0  0  0  0
 80 65  1  0  0  0  0
 19 15  1  0  0  0  0
 25 21  1  0  0  0  0
 59 38  1  0  0  0  0
 79 68  1  0  0  0  0
 47 40  2  0  0  0  0
 63 49  1  0  0  0  0
 77 70  1  0  0  0  0
 58 52  1  0  0  0  0
 10 86  1  0  0  0  0
 11 87  1  0  0  0  0
 27 88  1  0  0  0  0
 30 89  1  0  0  0  0
 30 90  1  0  0  0  0
 31 91  1  0  0  0  0
 31 92  1  0  0  0  0
 31 93  1  0  0  0  0
 33 94  1  0  0  0  0
 37 95  1  0  0  0  0
 43 96  1  0  0  0  0
 43 97  1  0  0  0  0
 44 98  1  0  0  0  0
 44 99  1  0  0  0  0
 44100  1  0  0  0  0
 53101  1  0  0  0  0
 54102  1  0  0  0  0
 56103  1  0  0  0  0
 56104  1  0  0  0  0
 57105  1  0  0  0  0
 57106  1  0  0  0  0
 57107  1  0  0  0  0
 61108  1  0  0  0  0
 64109  1  0  0  0  0
 69110  1  0  0  0  0
 71111  1  0  0  0  0
 76112  1  0  0  0  0
 78113  1  0  0  0  0
M  END
