
  xtb     02122216343D
 energy: -388.737785986439 gnorm: 0.000843054622 xtb: 6.4.1 (unknown)
236255  0     0  0            999 V2000
  -11.8944    2.3731    1.7692 N   0  0  0  0  0  0  0  0  0  0  0  0
  -12.2561    3.2099    1.0675 C   0  0  0  0  0  0  0  0  0  0  0  0
  -12.7959    4.2139    0.2547 C   0  0  0  0  0  0  0  0  0  0  0  0
  -14.1972    4.3367    0.3507 C   0  0  0  0  0  0  0  0  0  0  0  0
  -15.3375    4.4147    0.4499 N   0  0  0  0  0  0  0  0  0  0  0  0
  -12.0655    5.0553   -0.5652 C   0  0  0  0  0  0  0  0  0  0  0  0
  -12.8019    6.0351   -1.2825 C   0  0  0  0  0  0  0  0  0  0  0  0
  -13.3953    6.8226   -1.8655 N   0  0  0  0  0  0  0  0  0  0  0  0
  -10.6668    5.0627   -0.7694 C   0  0  0  0  0  0  0  0  0  0  0  0
   -9.9696    6.0082   -1.5156 C   0  0  0  0  0  0  0  0  0  0  0  0
   -8.6067    5.7992   -1.5252 C   0  0  0  0  0  0  0  0  0  0  0  0
   -8.1995    4.6916   -0.7832 C   0  0  0  0  0  0  0  0  0  0  0  0
   -9.5709    3.8851   -0.0842 S   0  0  0  0  0  0  0  0  0  0  0  0
   -6.8604    4.2548   -0.6727 C   0  0  0  0  0  0  0  0  0  0  0  0
   -6.2532    3.2409    0.0751 C   0  0  0  0  0  0  0  0  0  0  0  0
   -6.8253    2.4433    1.0390 N   0  0  0  0  0  0  0  0  0  0  0  0
   -6.2910    1.1517    1.2209 C   0  0  0  0  0  0  0  0  0  0  0  0
   -5.9660    0.6916    2.4931 C   0  0  0  0  0  0  0  0  0  0  0  0
   -5.4168   -0.5626    2.6684 C   0  0  0  0  0  0  0  0  0  0  0  0
   -5.1791   -1.3773    1.5691 C   0  0  0  0  0  0  0  0  0  0  0  0
   -4.4624   -2.9848    1.6794 S   0  0  0  0  0  0  0  0  0  0  0  0
   -4.3333   -3.3030    3.4611 C   0  0  0  0  0  0  0  0  0  0  0  0
   -5.5088   -0.9244    0.2928 C   0  0  0  0  0  0  0  0  0  0  0  0
   -6.0635    0.3243    0.1206 C   0  0  0  0  0  0  0  0  0  0  0  0
   -7.7541    2.9259    1.9679 C   0  0  0  0  0  0  0  0  0  0  0  0
   -7.7518    4.2629    2.3718 C   0  0  0  0  0  0  0  0  0  0  0  0
   -8.6994    4.7178    3.2604 C   0  0  0  0  0  0  0  0  0  0  0  0
   -9.6583    3.8494    3.7810 C   0  0  0  0  0  0  0  0  0  0  0  0
  -10.8607    4.5446    4.8594 S   0  0  0  0  0  0  0  0  0  0  0  0
  -12.0963    3.2269    5.0202 C   0  0  0  0  0  0  0  0  0  0  0  0
   -9.6251    2.5048    3.4277 C   0  0  0  0  0  0  0  0  0  0  0  0
   -8.6915    2.0543    2.5204 C   0  0  0  0  0  0  0  0  0  0  0  0
   -4.8810    3.1218   -0.2696 C   0  0  0  0  0  0  0  0  0  0  0  0
   -3.5985    2.1183    0.3009 S   0  0  0  0  0  0  0  0  0  0  0  0
   -2.4614    2.9154   -0.7811 C   0  0  0  0  0  0  0  0  0  0  0  0
   -3.0419    3.9322   -1.5061 C   0  0  0  0  0  0  0  0  0  0  0  0
   -2.3937    4.7778   -2.3933 N   0  0  0  0  0  0  0  0  0  0  0  0
   -3.0967    5.2023   -3.5298 C   0  0  0  0  0  0  0  0  0  0  0  0
   -2.9472    6.4941   -4.0358 C   0  0  0  0  0  0  0  0  0  0  0  0
   -3.6653    6.8963   -5.1389 C   0  0  0  0  0  0  0  0  0  0  0  0
   -4.5681    6.0310   -5.7524 C   0  0  0  0  0  0  0  0  0  0  0  0
   -5.4358    6.6458   -7.1648 S   0  0  0  0  0  0  0  0  0  0  0  0
   -6.8649    5.5299   -7.2956 C   0  0  0  0  0  0  0  0  0  0  0  0
   -4.7258    4.7474   -5.2508 C   0  0  0  0  0  0  0  0  0  0  0  0
   -3.9920    4.3384   -4.1551 C   0  0  0  0  0  0  0  0  0  0  0  0
   -1.1030    5.2406   -2.1133 C   0  0  0  0  0  0  0  0  0  0  0  0
   -0.6684    5.3985   -0.7973 C   0  0  0  0  0  0  0  0  0  0  0  0
    0.6139    5.8242   -0.5284 C   0  0  0  0  0  0  0  0  0  0  0  0
    1.4943    6.1140   -1.5663 C   0  0  0  0  0  0  0  0  0  0  0  0
    3.1333    6.6212   -1.1315 S   0  0  0  0  0  0  0  0  0  0  0  0
    3.7995    7.3141   -2.6697 C   0  0  0  0  0  0  0  0  0  0  0  0
    1.0587    5.9903   -2.8781 C   0  0  0  0  0  0  0  0  0  0  0  0
   -0.2265    5.5648   -3.1458 C   0  0  0  0  0  0  0  0  0  0  0  0
   -4.4294    4.0278   -1.2095 C   0  0  0  0  0  0  0  0  0  0  0  0
   -5.6955    5.0787   -1.7267 S   0  0  0  0  0  0  0  0  0  0  0  0
   -1.1257    2.3624   -0.7638 C   0  0  0  0  0  0  0  0  0  0  0  0
   -0.6500    1.3800   -1.5981 C   0  0  0  0  0  0  0  0  0  0  0  0
   -1.3338    0.8851   -2.7173 N   0  0  0  0  0  0  0  0  0  0  0  0
   -1.6575   -0.4780   -2.6680 C   0  0  0  0  0  0  0  0  0  0  0  0
   -2.0585   -1.0357   -1.4554 C   0  0  0  0  0  0  0  0  0  0  0  0
   -2.3207   -2.3867   -1.3479 C   0  0  0  0  0  0  0  0  0  0  0  0
   -2.1945   -3.2074   -2.4594 C   0  0  0  0  0  0  0  0  0  0  0  0
   -2.4954   -4.9477   -2.4284 S   0  0  0  0  0  0  0  0  0  0  0  0
   -2.4886   -5.3436   -0.6561 C   0  0  0  0  0  0  0  0  0  0  0  0
   -1.8207   -2.6512   -3.6807 C   0  0  0  0  0  0  0  0  0  0  0  0
   -1.5489   -1.3051   -3.7859 C   0  0  0  0  0  0  0  0  0  0  0  0
   -1.3622    1.6226   -3.9004 C   0  0  0  0  0  0  0  0  0  0  0  0
   -0.3331    2.5135   -4.2047 C   0  0  0  0  0  0  0  0  0  0  0  0
   -0.3691    3.2425   -5.3717 C   0  0  0  0  0  0  0  0  0  0  0  0
   -1.4414    3.1247   -6.2519 C   0  0  0  0  0  0  0  0  0  0  0  0
   -1.3945    4.1643   -7.6792 S   0  0  0  0  0  0  0  0  0  0  0  0
   -3.0035    3.8988   -8.4700 C   0  0  0  0  0  0  0  0  0  0  0  0
   -2.4585    2.2255   -5.9636 C   0  0  0  0  0  0  0  0  0  0  0  0
   -2.4169    1.4823   -4.7999 C   0  0  0  0  0  0  0  0  0  0  0  0
    0.5445    0.8070   -1.0924 C   0  0  0  0  0  0  0  0  0  0  0  0
    1.5287   -0.5219   -1.5759 S   0  0  0  0  0  0  0  0  0  0  0  0
    2.4720   -0.3880   -0.0887 C   0  0  0  0  0  0  0  0  0  0  0  0
    2.0316    0.6325    0.7227 C   0  0  0  0  0  0  0  0  0  0  0  0
    2.4921    0.9089    2.0031 N   0  0  0  0  0  0  0  0  0  0  0  0
    2.6145   -0.1329    2.9315 C   0  0  0  0  0  0  0  0  0  0  0  0
    1.7696   -1.2418    2.8802 C   0  0  0  0  0  0  0  0  0  0  0  0
    1.8661   -2.2389    3.8251 C   0  0  0  0  0  0  0  0  0  0  0  0
    2.8109   -2.1584    4.8446 C   0  0  0  0  0  0  0  0  0  0  0  0
    2.8346   -3.4746    6.0252 S   0  0  0  0  0  0  0  0  0  0  0  0
    3.9406   -2.8765    7.3320 C   0  0  0  0  0  0  0  0  0  0  0  0
    3.6649   -1.0651    4.8936 C   0  0  0  0  0  0  0  0  0  0  0  0
    3.5622   -0.0633    3.9493 C   0  0  0  0  0  0  0  0  0  0  0  0
    2.5209    2.2480    2.4159 C   0  0  0  0  0  0  0  0  0  0  0  0
    2.1734    2.6165    3.7161 C   0  0  0  0  0  0  0  0  0  0  0  0
    2.2195    3.9373    4.1001 C   0  0  0  0  0  0  0  0  0  0  0  0
    2.6035    4.9262    3.1964 C   0  0  0  0  0  0  0  0  0  0  0  0
    2.6353    6.5827    3.8096 S   0  0  0  0  0  0  0  0  0  0  0  0
    3.3232    7.5514    2.4385 C   0  0  0  0  0  0  0  0  0  0  0  0
    2.9278    4.5684    1.8961 C   0  0  0  0  0  0  0  0  0  0  0  0
    2.8840    3.2428    1.5125 C   0  0  0  0  0  0  0  0  0  0  0  0
    0.9480    1.3285    0.1212 C   0  0  0  0  0  0  0  0  0  0  0  0
   -0.0969    2.5990    0.6447 S   0  0  0  0  0  0  0  0  0  0  0  0
    3.4634   -1.4188    0.1197 C   0  0  0  0  0  0  0  0  0  0  0  0
    4.8099   -1.3801   -0.1662 C   0  0  0  0  0  0  0  0  0  0  0  0
    5.5089   -0.2808   -0.6529 N   0  0  0  0  0  0  0  0  0  0  0  0
    5.5972    0.9262    0.0492 C   0  0  0  0  0  0  0  0  0  0  0  0
    5.6479    0.9468    1.4399 C   0  0  0  0  0  0  0  0  0  0  0  0
    5.8472    2.1404    2.1046 C   0  0  0  0  0  0  0  0  0  0  0  0
    5.9918    3.3376    1.4140 C   0  0  0  0  0  0  0  0  0  0  0  0
    6.2643    4.6115    2.1526 C   0  0  0  0  0  0  0  0  0  0  0  0
    5.8991    3.3127    0.0282 C   0  0  0  0  0  0  0  0  0  0  0  0
    5.7014    2.1264   -0.6503 C   0  0  0  0  0  0  0  0  0  0  0  0
    6.3435   -0.5131   -1.7598 C   0  0  0  0  0  0  0  0  0  0  0  0
    5.9041   -1.3383   -2.7932 C   0  0  0  0  0  0  0  0  0  0  0  0
    6.7273   -1.6052   -3.8683 C   0  0  0  0  0  0  0  0  0  0  0  0
    7.9994   -1.0520   -3.9535 C   0  0  0  0  0  0  0  0  0  0  0  0
    8.8946   -1.3667   -5.1127 C   0  0  0  0  0  0  0  0  0  0  0  0
    8.4243   -0.2200   -2.9251 C   0  0  0  0  0  0  0  0  0  0  0  0
    7.6159    0.0458   -1.8379 C   0  0  0  0  0  0  0  0  0  0  0  0
    5.3939   -2.6682   -0.0391 C   0  0  0  0  0  0  0  0  0  0  0  0
    6.9876   -3.2786   -0.2918 S   0  0  0  0  0  0  0  0  0  0  0  0
    6.4305   -4.9251    0.0329 C   0  0  0  0  0  0  0  0  0  0  0  0
    5.0508   -4.9791    0.2592 C   0  0  0  0  0  0  0  0  0  0  0  0
    4.2877   -6.1162    0.3442 N   0  0  0  0  0  0  0  0  0  0  0  0
    3.1183   -6.0888    1.1303 C   0  0  0  0  0  0  0  0  0  0  0  0
    3.1756   -5.6385    2.4439 C   0  0  0  0  0  0  0  0  0  0  0  0
    2.0341   -5.6336    3.2219 C   0  0  0  0  0  0  0  0  0  0  0  0
    0.8152   -6.0522    2.7060 C   0  0  0  0  0  0  0  0  0  0  0  0
   -0.4303   -6.0242    3.5382 C   0  0  0  0  0  0  0  0  0  0  0  0
    0.7697   -6.5021    1.3899 C   0  0  0  0  0  0  0  0  0  0  0  0
    1.9047   -6.5274    0.6071 C   0  0  0  0  0  0  0  0  0  0  0  0
    4.5174   -7.2278   -0.4818 C   0  0  0  0  0  0  0  0  0  0  0  0
    4.2021   -8.5055   -0.0214 C   0  0  0  0  0  0  0  0  0  0  0  0
    4.4406   -9.6061   -0.8170 C   0  0  0  0  0  0  0  0  0  0  0  0
    5.0015   -9.4704   -2.0826 C   0  0  0  0  0  0  0  0  0  0  0  0
    5.2629  -10.6746   -2.9325 C   0  0  0  0  0  0  0  0  0  0  0  0
    5.2943   -8.1914   -2.5410 C   0  0  0  0  0  0  0  0  0  0  0  0
    5.0522   -7.0794   -1.7591 C   0  0  0  0  0  0  0  0  0  0  0  0
    4.4975   -3.6730    0.2763 C   0  0  0  0  0  0  0  0  0  0  0  0
    2.9073   -3.0444    0.5164 S   0  0  0  0  0  0  0  0  0  0  0  0
    7.4058   -5.9427    0.0934 C   0  0  0  0  0  0  0  0  0  0  0  0
    8.7402   -5.8172   -0.2865 C   0  0  0  0  0  0  0  0  0  0  0  0
    9.4890   -6.9547   -0.0618 C   0  0  0  0  0  0  0  0  0  0  0  0
    8.7579   -7.9922    0.5100 C   0  0  0  0  0  0  0  0  0  0  0  0
    9.2516   -9.2781    0.8304 C   0  0  0  0  0  0  0  0  0  0  0  0
    8.5368  -10.3426    1.3495 C   0  0  0  0  0  0  0  0  0  0  0  0
    9.1699  -11.5719    1.6200 C   0  0  0  0  0  0  0  0  0  0  0  0
    9.6660  -12.5818    1.8457 N   0  0  0  0  0  0  0  0  0  0  0  0
    7.1627  -10.3172    1.6362 C   0  0  0  0  0  0  0  0  0  0  0  0
    6.0415  -10.3594    1.8853 N   0  0  0  0  0  0  0  0  0  0  0  0
   10.6333   -9.4942    0.5855 C   0  0  0  0  0  0  0  0  0  0  0  0
   11.7484   -9.6638    0.3857 N   0  0  0  0  0  0  0  0  0  0  0  0
    7.1000   -7.5113    0.7699 S   0  0  0  0  0  0  0  0  0  0  0  0
  -10.4603    6.8264   -2.0128 H   0  0  0  0  0  0  0  0  0  0  0  0
   -7.9046    6.4323   -2.0381 H   0  0  0  0  0  0  0  0  0  0  0  0
   -6.1339    1.3273    3.3495 H   0  0  0  0  0  0  0  0  0  0  0  0
   -5.1663   -0.8836    3.6664 H   0  0  0  0  0  0  0  0  0  0  0  0
   -5.3134   -3.2210    3.9214 H   0  0  0  0  0  0  0  0  0  0  0  0
   -3.9694   -4.3221    3.5513 H   0  0  0  0  0  0  0  0  0  0  0  0
   -3.6222   -2.6172    3.9127 H   0  0  0  0  0  0  0  0  0  0  0  0
   -5.3248   -1.5615   -0.5584 H   0  0  0  0  0  0  0  0  0  0  0  0
   -6.3237    0.6687   -0.8693 H   0  0  0  0  0  0  0  0  0  0  0  0
   -7.0106    4.9433    1.9794 H   0  0  0  0  0  0  0  0  0  0  0  0
   -8.7109    5.7547    3.5596 H   0  0  0  0  0  0  0  0  0  0  0  0
  -11.7112    2.4269    5.6460 H   0  0  0  0  0  0  0  0  0  0  0  0
  -12.3627    2.8632    4.0310 H   0  0  0  0  0  0  0  0  0  0  0  0
  -12.9571    3.6855    5.4966 H   0  0  0  0  0  0  0  0  0  0  0  0
  -10.3313    1.8034    3.8359 H   0  0  0  0  0  0  0  0  0  0  0  0
   -8.6964    1.0175    2.2212 H   0  0  0  0  0  0  0  0  0  0  0  0
   -2.2764    7.1862   -3.5502 H   0  0  0  0  0  0  0  0  0  0  0  0
   -3.5478    7.8946   -5.5308 H   0  0  0  0  0  0  0  0  0  0  0  0
   -6.5627    4.5620   -7.6865 H   0  0  0  0  0  0  0  0  0  0  0  0
   -7.5461    6.0061   -7.9936 H   0  0  0  0  0  0  0  0  0  0  0  0
   -7.3380    5.4315   -6.3233 H   0  0  0  0  0  0  0  0  0  0  0  0
   -5.4149    4.0513   -5.7033 H   0  0  0  0  0  0  0  0  0  0  0  0
   -4.1091    3.3310   -3.7858 H   0  0  0  0  0  0  0  0  0  0  0  0
   -1.3408    5.1999    0.0235 H   0  0  0  0  0  0  0  0  0  0  0  0
    0.9347    5.9295    0.4958 H   0  0  0  0  0  0  0  0  0  0  0  0
    3.9861    6.5229   -3.3903 H   0  0  0  0  0  0  0  0  0  0  0  0
    3.1103    8.0547   -3.0642 H   0  0  0  0  0  0  0  0  0  0  0  0
    4.7366    7.7892   -2.3958 H   0  0  0  0  0  0  0  0  0  0  0  0
    1.7113    6.2134   -3.7068 H   0  0  0  0  0  0  0  0  0  0  0  0
   -0.5526    5.4738   -4.1690 H   0  0  0  0  0  0  0  0  0  0  0  0
   -2.1678   -0.4059   -0.5840 H   0  0  0  0  0  0  0  0  0  0  0  0
   -2.6312   -2.7816   -0.3947 H   0  0  0  0  0  0  0  0  0  0  0  0
   -1.5764   -4.9629   -0.2057 H   0  0  0  0  0  0  0  0  0  0  0  0
   -2.5112   -6.4277   -0.6010 H   0  0  0  0  0  0  0  0  0  0  0  0
   -3.3694   -4.9318   -0.1715 H   0  0  0  0  0  0  0  0  0  0  0  0
   -1.7266   -3.2932   -4.5432 H   0  0  0  0  0  0  0  0  0  0  0  0
   -1.2278   -0.8923   -4.7302 H   0  0  0  0  0  0  0  0  0  0  0  0
    0.4990    2.6222   -3.5247 H   0  0  0  0  0  0  0  0  0  0  0  0
    0.4430    3.9070   -5.6248 H   0  0  0  0  0  0  0  0  0  0  0  0
   -3.0437    4.6022   -9.2958 H   0  0  0  0  0  0  0  0  0  0  0  0
   -3.7922    4.1204   -7.7588 H   0  0  0  0  0  0  0  0  0  0  0  0
   -3.0755    2.8817   -8.8451 H   0  0  0  0  0  0  0  0  0  0  0  0
   -3.2916    2.0950   -6.6352 H   0  0  0  0  0  0  0  0  0  0  0  0
   -3.2120    0.7846   -4.5801 H   0  0  0  0  0  0  0  0  0  0  0  0
    1.0166   -1.3100    2.1091 H   0  0  0  0  0  0  0  0  0  0  0  0
    1.1989   -3.0848    3.7830 H   0  0  0  0  0  0  0  0  0  0  0  0
    4.9613   -2.8201    6.9646 H   0  0  0  0  0  0  0  0  0  0  0  0
    3.8782   -3.6137    8.1266 H   0  0  0  0  0  0  0  0  0  0  0  0
    3.5953   -1.9122    7.6933 H   0  0  0  0  0  0  0  0  0  0  0  0
    4.4155   -0.9772    5.6627 H   0  0  0  0  0  0  0  0  0  0  0  0
    4.2152    0.7928    4.0069 H   0  0  0  0  0  0  0  0  0  0  0  0
    1.8592    1.8638    4.4233 H   0  0  0  0  0  0  0  0  0  0  0  0
    1.9518    4.2211    5.1065 H   0  0  0  0  0  0  0  0  0  0  0  0
    2.6526    7.5330    1.5849 H   0  0  0  0  0  0  0  0  0  0  0  0
    4.3024    7.1678    2.1701 H   0  0  0  0  0  0  0  0  0  0  0  0
    3.4124    8.5651    2.8165 H   0  0  0  0  0  0  0  0  0  0  0  0
    3.2306    5.3042    1.1703 H   0  0  0  0  0  0  0  0  0  0  0  0
    3.1495    2.9776    0.5006 H   0  0  0  0  0  0  0  0  0  0  0  0
    5.5603    0.0188    1.9868 H   0  0  0  0  0  0  0  0  0  0  0  0
    5.9187    2.1477    3.1832 H   0  0  0  0  0  0  0  0  0  0  0  0
    7.2824    4.6089    2.5430 H   0  0  0  0  0  0  0  0  0  0  0  0
    5.5843    4.7194    2.9958 H   0  0  0  0  0  0  0  0  0  0  0  0
    6.1542    5.4696    1.4939 H   0  0  0  0  0  0  0  0  0  0  0  0
    5.9832    4.2346   -0.5291 H   0  0  0  0  0  0  0  0  0  0  0  0
    5.6456    2.1151   -1.7291 H   0  0  0  0  0  0  0  0  0  0  0  0
    4.9124   -1.7662   -2.7491 H   0  0  0  0  0  0  0  0  0  0  0  0
    6.3725   -2.2496   -4.6599 H   0  0  0  0  0  0  0  0  0  0  0  0
    9.6467   -0.5927   -5.2447 H   0  0  0  0  0  0  0  0  0  0  0  0
    9.4094   -2.3127   -4.9407 H   0  0  0  0  0  0  0  0  0  0  0  0
    8.3198   -1.4616   -6.0315 H   0  0  0  0  0  0  0  0  0  0  0  0
    9.4107    0.2190   -2.9681 H   0  0  0  0  0  0  0  0  0  0  0  0
    7.9700    0.6818   -1.0403 H   0  0  0  0  0  0  0  0  0  0  0  0
    4.1180   -5.3087    2.8561 H   0  0  0  0  0  0  0  0  0  0  0  0
    2.0996   -5.3091    4.2494 H   0  0  0  0  0  0  0  0  0  0  0  0
   -0.2266   -5.6214    4.5271 H   0  0  0  0  0  0  0  0  0  0  0  0
   -1.1918   -5.4105    3.0570 H   0  0  0  0  0  0  0  0  0  0  0  0
   -0.8357   -7.0291    3.6492 H   0  0  0  0  0  0  0  0  0  0  0  0
   -0.1693   -6.8394    0.9757 H   0  0  0  0  0  0  0  0  0  0  0  0
    1.8598   -6.8795   -0.4128 H   0  0  0  0  0  0  0  0  0  0  0  0
    3.7974   -8.6313    0.9703 H   0  0  0  0  0  0  0  0  0  0  0  0
    4.2081  -10.5892   -0.4377 H   0  0  0  0  0  0  0  0  0  0  0  0
    5.6047  -11.5080   -2.3225 H   0  0  0  0  0  0  0  0  0  0  0  0
    4.3453  -10.9834   -3.4345 H   0  0  0  0  0  0  0  0  0  0  0  0
    6.0099  -10.4617   -3.6934 H   0  0  0  0  0  0  0  0  0  0  0  0
    5.7174   -8.0606   -3.5267 H   0  0  0  0  0  0  0  0  0  0  0  0
    5.2799   -6.0932   -2.1373 H   0  0  0  0  0  0  0  0  0  0  0  0
    9.1256   -4.9138   -0.7249 H   0  0  0  0  0  0  0  0  0  0  0  0
   10.5320   -7.0521   -0.3077 H   0  0  0  0  0  0  0  0  0  0  0  0
  1  2  3  0  0  0  0
  2  3  1  0  0  0  0
  3  4  1  0  0  0  0
  4  5  3  0  0  0  0
  3  6  2  0  0  0  0
  6  7  1  0  0  0  0
  7  8  3  0  0  0  0
  6  9  1  0  0  0  0
  9 10  2  0  0  0  0
 10 11  1  0  0  0  0
 11 12  2  0  0  0  0
 12 13  1  0  0  0  0
 12 14  1  0  0  0  0
 14 15  2  0  0  0  0
 15 16  1  0  0  0  0
 16 17  1  0  0  0  0
 17 18  2  0  0  0  0
 18 19  1  0  0  0  0
 19 20  2  0  0  0  0
 20 21  1  0  0  0  0
 21 22  1  0  0  0  0
 20 23  1  0  0  0  0
 23 24  2  0  0  0  0
 16 25  1  0  0  0  0
 25 26  2  0  0  0  0
 26 27  1  0  0  0  0
 27 28  2  0  0  0  0
 28 29  1  0  0  0  0
 29 30  1  0  0  0  0
 28 31  1  0  0  0  0
 31 32  2  0  0  0  0
 15 33  1  0  0  0  0
 33 34  1  0  0  0  0
 34 35  1  0  0  0  0
 35 36  2  0  0  0  0
 36 37  1  0  0  0  0
 37 38  1  0  0  0  0
 38 39  2  0  0  0  0
 39 40  1  0  0  0  0
 40 41  2  0  0  0  0
 41 42  1  0  0  0  0
 42 43  1  0  0  0  0
 41 44  1  0  0  0  0
 44 45  2  0  0  0  0
 37 46  1  0  0  0  0
 46 47  2  0  0  0  0
 47 48  1  0  0  0  0
 48 49  2  0  0  0  0
 49 50  1  0  0  0  0
 50 51  1  0  0  0  0
 49 52  1  0  0  0  0
 52 53  2  0  0  0  0
 36 54  1  0  0  0  0
 54 55  1  0  0  0  0
 35 56  1  0  0  0  0
 56 57  2  0  0  0  0
 57 58  1  0  0  0  0
 58 59  1  0  0  0  0
 59 60  2  0  0  0  0
 60 61  1  0  0  0  0
 61 62  2  0  0  0  0
 62 63  1  0  0  0  0
 63 64  1  0  0  0  0
 62 65  1  0  0  0  0
 65 66  2  0  0  0  0
 58 67  1  0  0  0  0
 67 68  2  0  0  0  0
 68 69  1  0  0  0  0
 69 70  2  0  0  0  0
 70 71  1  0  0  0  0
 71 72  1  0  0  0  0
 70 73  1  0  0  0  0
 73 74  2  0  0  0  0
 57 75  1  0  0  0  0
 75 76  1  0  0  0  0
 76 77  1  0  0  0  0
 77 78  2  0  0  0  0
 78 79  1  0  0  0  0
 79 80  1  0  0  0  0
 80 81  2  0  0  0  0
 81 82  1  0  0  0  0
 82 83  2  0  0  0  0
 83 84  1  0  0  0  0
 84 85  1  0  0  0  0
 83 86  1  0  0  0  0
 86 87  2  0  0  0  0
 79 88  1  0  0  0  0
 88 89  2  0  0  0  0
 89 90  1  0  0  0  0
 90 91  2  0  0  0  0
 91 92  1  0  0  0  0
 92 93  1  0  0  0  0
 91 94  1  0  0  0  0
 94 95  2  0  0  0  0
 78 96  1  0  0  0  0
 96 97  1  0  0  0  0
 77 98  1  0  0  0  0
 98 99  2  0  0  0  0
 99100  1  0  0  0  0
100101  1  0  0  0  0
101102  2  0  0  0  0
102103  1  0  0  0  0
103104  2  0  0  0  0
104105  1  0  0  0  0
104106  1  0  0  0  0
106107  2  0  0  0  0
100108  1  0  0  0  0
108109  2  0  0  0  0
109110  1  0  0  0  0
110111  2  0  0  0  0
111112  1  0  0  0  0
111113  1  0  0  0  0
113114  2  0  0  0  0
 99115  1  0  0  0  0
115116  1  0  0  0  0
116117  1  0  0  0  0
117118  2  0  0  0  0
118119  1  0  0  0  0
119120  1  0  0  0  0
120121  2  0  0  0  0
121122  1  0  0  0  0
122123  2  0  0  0  0
123124  1  0  0  0  0
123125  1  0  0  0  0
125126  2  0  0  0  0
119127  1  0  0  0  0
127128  2  0  0  0  0
128129  1  0  0  0  0
129130  2  0  0  0  0
130131  1  0  0  0  0
130132  1  0  0  0  0
132133  2  0  0  0  0
118134  1  0  0  0  0
134135  1  0  0  0  0
117136  1  0  0  0  0
136137  2  0  0  0  0
137138  1  0  0  0  0
138139  2  0  0  0  0
139140  1  0  0  0  0
140141  2  0  0  0  0
141142  1  0  0  0  0
142143  3  0  0  0  0
141144  1  0  0  0  0
144145  3  0  0  0  0
140146  1  0  0  0  0
146147  3  0  0  0  0
139148  1  0  0  0  0
 13  9  1  0  0  0  0
 55 14  1  0  0  0  0
 97 56  1  0  0  0  0
135 98  1  0  0  0  0
148136  1  0  0  0  0
 24 17  1  0  0  0  0
 32 25  1  0  0  0  0
 54 33  2  0  0  0  0
 66 59  1  0  0  0  0
 74 67  1  0  0  0  0
 96 75  2  0  0  0  0
107101  1  0  0  0  0
114108  1  0  0  0  0
134115  2  0  0  0  0
 45 38  1  0  0  0  0
 53 46  1  0  0  0  0
 87 80  1  0  0  0  0
 95 88  1  0  0  0  0
126120  1  0  0  0  0
133127  1  0  0  0  0
 10149  1  0  0  0  0
 11150  1  0  0  0  0
 18151  1  0  0  0  0
 19152  1  0  0  0  0
 22153  1  0  0  0  0
 22154  1  0  0  0  0
 22155  1  0  0  0  0
 23156  1  0  0  0  0
 24157  1  0  0  0  0
 26158  1  0  0  0  0
 27159  1  0  0  0  0
 30160  1  0  0  0  0
 30161  1  0  0  0  0
 30162  1  0  0  0  0
 31163  1  0  0  0  0
 32164  1  0  0  0  0
 39165  1  0  0  0  0
 40166  1  0  0  0  0
 43167  1  0  0  0  0
 43168  1  0  0  0  0
 43169  1  0  0  0  0
 44170  1  0  0  0  0
 45171  1  0  0  0  0
 47172  1  0  0  0  0
 48173  1  0  0  0  0
 51174  1  0  0  0  0
 51175  1  0  0  0  0
 51176  1  0  0  0  0
 52177  1  0  0  0  0
 53178  1  0  0  0  0
 60179  1  0  0  0  0
 61180  1  0  0  0  0
 64181  1  0  0  0  0
 64182  1  0  0  0  0
 64183  1  0  0  0  0
 65184  1  0  0  0  0
 66185  1  0  0  0  0
 68186  1  0  0  0  0
 69187  1  0  0  0  0
 72188  1  0  0  0  0
 72189  1  0  0  0  0
 72190  1  0  0  0  0
 73191  1  0  0  0  0
 74192  1  0  0  0  0
 81193  1  0  0  0  0
 82194  1  0  0  0  0
 85195  1  0  0  0  0
 85196  1  0  0  0  0
 85197  1  0  0  0  0
 86198  1  0  0  0  0
 87199  1  0  0  0  0
 89200  1  0  0  0  0
 90201  1  0  0  0  0
 93202  1  0  0  0  0
 93203  1  0  0  0  0
 93204  1  0  0  0  0
 94205  1  0  0  0  0
 95206  1  0  0  0  0
102207  1  0  0  0  0
103208  1  0  0  0  0
105209  1  0  0  0  0
105210  1  0  0  0  0
105211  1  0  0  0  0
106212  1  0  0  0  0
107213  1  0  0  0  0
109214  1  0  0  0  0
110215  1  0  0  0  0
112216  1  0  0  0  0
112217  1  0  0  0  0
112218  1  0  0  0  0
113219  1  0  0  0  0
114220  1  0  0  0  0
121221  1  0  0  0  0
122222  1  0  0  0  0
124223  1  0  0  0  0
124224  1  0  0  0  0
124225  1  0  0  0  0
125226  1  0  0  0  0
126227  1  0  0  0  0
128228  1  0  0  0  0
129229  1  0  0  0  0
131230  1  0  0  0  0
131231  1  0  0  0  0
131232  1  0  0  0  0
132233  1  0  0  0  0
133234  1  0  0  0  0
137235  1  0  0  0  0
138236  1  0  0  0  0
M  END
