236

N        -11.89440        2.37310        1.76920
C        -12.25610        3.20990        1.06750
C        -12.79590        4.21390        0.25470
C        -14.19720        4.33670        0.35070
N        -15.33750        4.41470        0.44990
C        -12.06550        5.05530       -0.56520
C        -12.80190        6.03510       -1.28250
N        -13.39530        6.82260       -1.86550
C        -10.66680        5.06270       -0.76940
C         -9.96960        6.00820       -1.51560
C         -8.60670        5.79920       -1.52520
C         -8.19950        4.69160       -0.78320
S         -9.57090        3.88510       -0.08420
C         -6.86040        4.25480       -0.67270
C         -6.25320        3.24090        0.07510
N         -6.82530        2.44330        1.03900
C         -6.29100        1.15170        1.22090
C         -5.96600        0.69160        2.49310
C         -5.41680       -0.56260        2.66840
C         -5.17910       -1.37730        1.56910
S         -4.46240       -2.98480        1.67940
C         -4.33330       -3.30300        3.46110
C         -5.50880       -0.92440        0.29280
C         -6.06350        0.32430        0.12060
C         -7.75410        2.92590        1.96790
C         -7.75180        4.26290        2.37180
C         -8.69940        4.71780        3.26040
C         -9.65830        3.84940        3.78100
S        -10.86070        4.54460        4.85940
C        -12.09630        3.22690        5.02020
C         -9.62510        2.50480        3.42770
C         -8.69150        2.05430        2.52040
C         -4.88100        3.12180       -0.26960
S         -3.59850        2.11830        0.30090
C         -2.46140        2.91540       -0.78110
C         -3.04190        3.93220       -1.50610
N         -2.39370        4.77780       -2.39330
C         -3.09670        5.20230       -3.52980
C         -2.94720        6.49410       -4.03580
C         -3.66530        6.89630       -5.13890
C         -4.56810        6.03100       -5.75240
S         -5.43580        6.64580       -7.16480
C         -6.86490        5.52990       -7.29560
C         -4.72580        4.74740       -5.25080
C         -3.99200        4.33840       -4.15510
C         -1.10300        5.24060       -2.11330
C         -0.66840        5.39850       -0.79730
C          0.61390        5.82420       -0.52840
C          1.49430        6.11400       -1.56630
S          3.13330        6.62120       -1.13150
C          3.79950        7.31410       -2.66970
C          1.05870        5.99030       -2.87810
C         -0.22650        5.56480       -3.14580
C         -4.42940        4.02780       -1.20950
S         -5.69550        5.07870       -1.72670
C         -1.12570        2.36240       -0.76380
C         -0.65000        1.38000       -1.59810
N         -1.33380        0.88510       -2.71730
C         -1.65750       -0.47800       -2.66800
C         -2.05850       -1.03570       -1.45540
C         -2.32070       -2.38670       -1.34790
C         -2.19450       -3.20740       -2.45940
S         -2.49540       -4.94770       -2.42840
C         -2.48860       -5.34360       -0.65610
C         -1.82070       -2.65120       -3.68070
C         -1.54890       -1.30510       -3.78590
C         -1.36220        1.62260       -3.90040
C         -0.33310        2.51350       -4.20470
C         -0.36910        3.24250       -5.37170
C         -1.44140        3.12470       -6.25190
S         -1.39450        4.16430       -7.67920
C         -3.00350        3.89880       -8.47000
C         -2.45850        2.22550       -5.96360
C         -2.41690        1.48230       -4.79990
C          0.54450        0.80700       -1.09240
S          1.52870       -0.52190       -1.57590
C          2.47200       -0.38800       -0.08870
C          2.03160        0.63250        0.72270
N          2.49210        0.90890        2.00310
C          2.61450       -0.13290        2.93150
C          1.76960       -1.24180        2.88020
C          1.86610       -2.23890        3.82510
C          2.81090       -2.15840        4.84460
S          2.83460       -3.47460        6.02520
C          3.94060       -2.87650        7.33200
C          3.66490       -1.06510        4.89360
C          3.56220       -0.06330        3.94930
C          2.52090        2.24800        2.41590
C          2.17340        2.61650        3.71610
C          2.21950        3.93730        4.10010
C          2.60350        4.92620        3.19640
S          2.63530        6.58270        3.80960
C          3.32320        7.55140        2.43850
C          2.92780        4.56840        1.89610
C          2.88400        3.24280        1.51250
C          0.94800        1.32850        0.12120
S         -0.09690        2.59900        0.64470
C          3.46340       -1.41880        0.11970
C          4.80990       -1.38010       -0.16620
N          5.50890       -0.28080       -0.65290
C          5.59720        0.92620        0.04920
C          5.64790        0.94680        1.43990
C          5.84720        2.14040        2.10460
C          5.99180        3.33760        1.41400
C          6.26430        4.61150        2.15260
C          5.89910        3.31270        0.02820
C          5.70140        2.12640       -0.65030
C          6.34350       -0.51310       -1.75980
C          5.90410       -1.33830       -2.79320
C          6.72730       -1.60520       -3.86830
C          7.99940       -1.05200       -3.95350
C          8.89460       -1.36670       -5.11270
C          8.42430       -0.22000       -2.92510
C          7.61590        0.04580       -1.83790
C          5.39390       -2.66820       -0.03910
S          6.98760       -3.27860       -0.29180
C          6.43050       -4.92510        0.03290
C          5.05080       -4.97910        0.25920
N          4.28770       -6.11620        0.34420
C          3.11830       -6.08880        1.13030
C          3.17560       -5.63850        2.44390
C          2.03410       -5.63360        3.22190
C          0.81520       -6.05220        2.70600
C         -0.43030       -6.02420        3.53820
C          0.76970       -6.50210        1.38990
C          1.90470       -6.52740        0.60710
C          4.51740       -7.22780       -0.48180
C          4.20210       -8.50550       -0.02140
C          4.44060       -9.60610       -0.81700
C          5.00150       -9.47040       -2.08260
C          5.26290      -10.67460       -2.93250
C          5.29430       -8.19140       -2.54100
C          5.05220       -7.07940       -1.75910
C          4.49750       -3.67300        0.27630
S          2.90730       -3.04440        0.51640
C          7.40580       -5.94270        0.09340
C          8.74020       -5.81720       -0.28650
C          9.48900       -6.95470       -0.06180
C          8.75790       -7.99220        0.51000
C          9.25160       -9.27810        0.83040
C          8.53680      -10.34260        1.34950
C          9.16990      -11.57190        1.62000
N          9.66600      -12.58180        1.84570
C          7.16270      -10.31720        1.63620
N          6.04150      -10.35940        1.88530
C         10.63330       -9.49420        0.58550
N         11.74840       -9.66380        0.38570
S          7.10000       -7.51130        0.76990
H        -10.46030        6.82640       -2.01280
H         -7.90460        6.43230       -2.03810
H         -6.13390        1.32730        3.34950
H         -5.16630       -0.88360        3.66640
H         -5.31340       -3.22100        3.92140
H         -3.96940       -4.32210        3.55130
H         -3.62220       -2.61720        3.91270
H         -5.32480       -1.56150       -0.55840
H         -6.32370        0.66870       -0.86930
H         -7.01060        4.94330        1.97940
H         -8.71090        5.75470        3.55960
H        -11.71120        2.42690        5.64600
H        -12.36270        2.86320        4.03100
H        -12.95710        3.68550        5.49660
H        -10.33130        1.80340        3.83590
H         -8.69640        1.01750        2.22120
H         -2.27640        7.18620       -3.55020
H         -3.54780        7.89460       -5.53080
H         -6.56270        4.56200       -7.68650
H         -7.54610        6.00610       -7.99360
H         -7.33800        5.43150       -6.32330
H         -5.41490        4.05130       -5.70330
H         -4.10910        3.33100       -3.78580
H         -1.34080        5.19990        0.02350
H          0.93470        5.92950        0.49580
H          3.98610        6.52290       -3.39030
H          3.11030        8.05470       -3.06420
H          4.73660        7.78920       -2.39580
H          1.71130        6.21340       -3.70680
H         -0.55260        5.47380       -4.16900
H         -2.16780       -0.40590       -0.58400
H         -2.63120       -2.78160       -0.39470
H         -1.57640       -4.96290       -0.20570
H         -2.51120       -6.42770       -0.60100
H         -3.36940       -4.93180       -0.17150
H         -1.72660       -3.29320       -4.54320
H         -1.22780       -0.89230       -4.73020
H          0.49900        2.62220       -3.52470
H          0.44300        3.90700       -5.62480
H         -3.04370        4.60220       -9.29580
H         -3.79220        4.12040       -7.75880
H         -3.07550        2.88170       -8.84510
H         -3.29160        2.09500       -6.63520
H         -3.21200        0.78460       -4.58010
H          1.01660       -1.31000        2.10910
H          1.19890       -3.08480        3.78300
H          4.96130       -2.82010        6.96460
H          3.87820       -3.61370        8.12660
H          3.59530       -1.91220        7.69330
H          4.41550       -0.97720        5.66270
H          4.21520        0.79280        4.00690
H          1.85920        1.86380        4.42330
H          1.95180        4.22110        5.10650
H          2.65260        7.53300        1.58490
H          4.30240        7.16780        2.17010
H          3.41240        8.56510        2.81650
H          3.23060        5.30420        1.17030
H          3.14950        2.97760        0.50060
H          5.56030        0.01880        1.98680
H          5.91870        2.14770        3.18320
H          7.28240        4.60890        2.54300
H          5.58430        4.71940        2.99580
H          6.15420        5.46960        1.49390
H          5.98320        4.23460       -0.52910
H          5.64560        2.11510       -1.72910
H          4.91240       -1.76620       -2.74910
H          6.37250       -2.24960       -4.65990
H          9.64670       -0.59270       -5.24470
H          9.40940       -2.31270       -4.94070
H          8.31980       -1.46160       -6.03150
H          9.41070        0.21900       -2.96810
H          7.97000        0.68180       -1.04030
H          4.11800       -5.30870        2.85610
H          2.09960       -5.30910        4.24940
H         -0.22660       -5.62140        4.52710
H         -1.19180       -5.41050        3.05700
H         -0.83570       -7.02910        3.64920
H         -0.16930       -6.83940        0.97570
H          1.85980       -6.87950       -0.41280
H          3.79740       -8.63130        0.97030
H          4.20810      -10.58920       -0.43770
H          5.60470      -11.50800       -2.32250
H          4.34530      -10.98340       -3.43450
H          6.00990      -10.46170       -3.69340
H          5.71740       -8.06060       -3.52670
H          5.27990       -6.09320       -2.13730
H          9.12560       -4.91380       -0.72490
H         10.53200       -7.05210       -0.30770
