145

N        -11.38840       -4.77830       -2.50520
C        -10.53300       -5.52320       -2.68150
C         -9.52510       -6.47040       -2.94030
C         -9.99880       -7.67730       -3.50090
N        -10.40660       -8.64780       -3.95480
C         -8.18130       -6.28920       -2.70110
C         -7.32300       -7.36290       -3.06130
N         -6.62740       -8.22610       -3.34810
C         -7.56060       -5.14310       -2.12860
C         -8.12880       -3.99750       -1.60440
C         -7.18370       -3.09780       -1.11570
C         -5.89170       -3.54530       -1.25250
S         -5.81680       -5.08740       -2.00650
C         -4.68210       -2.80680       -0.88620
C         -4.16310       -1.88900       -1.80380
S         -4.88090       -1.86720       -3.42330
C         -5.39770       -0.12640       -3.66410
C         -6.90050       -0.00980       -3.50800
C         -3.01940       -1.15510       -1.49600
S         -2.31160       -0.13690       -2.76290
C         -0.61390       -0.80660       -2.90930
C         -0.60640       -2.31290       -3.06040
C         -2.44440       -1.25160       -0.22060
C         -2.95680       -2.18670        0.69460
C         -4.04800       -2.99950        0.34430
C         -4.54610       -4.08810        1.22510
O         -5.58580       -4.68200        1.01840
C         -3.64530       -4.41730        2.32960
C         -2.61160       -3.52600        2.73540
C         -2.40340       -2.24150        2.07220
O         -1.85580       -1.30040        2.61420
C         -1.91050       -4.00010        3.80520
S         -2.47190       -5.53790        4.31040
C         -3.69290       -5.53830        3.10980
C         -1.28490       -0.44170        0.13010
C         -1.17270        0.93620        0.14020
N         -2.15850        1.84570       -0.18930
C         -3.51510        1.57450       -0.01040
C         -4.45090        2.09810       -0.89950
C         -5.79170        1.79210       -0.77100
C         -6.21600        0.93790        0.23680
S         -7.89040        0.38950        0.40530
C         -8.84790        1.70850       -0.39800
C         -5.29050        0.44660        1.15370
C         -3.95830        0.77820        1.04720
C         -1.74690        3.08350       -0.71990
C         -0.77430        3.12700       -1.71380
C         -0.29570        4.33480       -2.18050
C         -0.78850        5.52190       -1.65700
S         -0.20520        7.11520       -2.13560
C          1.34870        6.74450       -2.99920
C         -1.80280        5.48210       -0.70100
C         -2.27820        4.27720       -0.23490
C          0.12440        1.32890        0.56710
S          0.92240        2.85280        0.75180
C          2.36170        2.04610        1.33510
C          2.25410        0.65730        1.30210
N          3.26850       -0.25370        1.52640
C          2.92680       -1.43780        2.20130
C          3.40810       -2.67220        1.76960
C          3.02770       -3.82500        2.42180
C          2.17020       -3.76690        3.51850
S          1.70900       -5.30310        4.26360
C          1.32110       -4.83360        5.97830
C          1.70040       -2.53570        3.95770
C          2.07580       -1.38120        3.30240
C          4.59540        0.05340        1.22260
C          5.63890       -0.40470        2.02320
C          6.93400        0.03280        1.81880
C          7.21310        0.93890        0.80440
S          8.79350        1.66260        0.51930
C          9.80680        1.05430        1.89560
C          6.18770        1.32450       -0.06060
C          4.90200        0.87890        0.13590
C          0.96110        0.27140        0.88080
S          0.18670       -1.25330        0.64520
C          3.50560        2.81370        1.70200
C          4.36580        2.45130        2.75840
C          5.66860        3.05460        2.95600
N          6.29060        2.53520        4.01580
S          5.33370        1.44360        4.70820
N          4.09580        1.53970        3.69550
C          6.16450        4.04840        2.08540
C          5.23170        4.51510        1.13770
N          5.45640        5.49550        0.26400
S          4.16340        5.68370       -0.66670
N          3.24990        4.52350       -0.03350
C          3.91750        3.93850        0.96500
C          7.50030        4.52210        2.08970
C          8.52620        4.18690        2.96650
C          9.73280        4.77530        2.64000
C          9.65960        5.57710        1.50330
C         10.74280        6.29220        0.93290
C         10.70800        7.10080       -0.18570
C         11.87260        7.75630       -0.63610
N         12.81020        8.29680       -1.01630
C          9.56150        7.34860       -0.96140
N          8.66410        7.58840       -1.63690
C         11.99720        6.15050        1.58390
N         13.00440        6.02470        2.11460
S          8.04400        5.59800        0.84930
H         -9.18780       -3.81960       -1.56650
H         -7.43030       -2.15950       -0.65090
H         -5.07770        0.14450       -4.66900
H         -4.86350        0.48040       -2.93670
H         -7.40820       -0.67470       -4.20300
H         -7.19990       -0.27690       -2.49720
H         -7.21270        1.01160       -3.71780
H         -0.24150       -0.31840       -3.81030
H         -0.02150       -0.48400       -2.05460
H          0.40390       -2.65130       -3.28030
H         -1.26320       -2.61980       -3.87150
H         -0.93700       -2.79700       -2.14290
H         -1.08220       -3.52310        4.28780
H         -4.37550       -6.36040        3.02390
H         -4.12110        2.73920       -1.70360
H         -6.49320        2.20990       -1.47480
H         -8.77040        1.63450       -1.47870
H         -9.87790        1.54990       -0.09440
H         -8.49800        2.67240       -0.04180
H         -5.63160       -0.18760        1.95800
H         -3.25450        0.43320        1.78810
H         -0.38790        2.20530       -2.12240
H          0.45970        4.33430       -2.94870
H          1.94720        6.07480       -2.38800
H          1.85640        7.69660       -3.11740
H          1.14460        6.31570       -3.97630
H         -2.19450        6.41000       -0.31370
H         -3.04640        4.24970        0.52340
H          4.07360       -2.71880        0.92060
H          3.38690       -4.78570        2.08660
H          0.33800       -4.37710        6.04600
H          1.32730       -5.76010        6.54370
H          2.09070       -4.16510        6.35080
H          1.04730       -2.46090        4.81280
H          1.71650       -0.42310        3.64550
H          5.42580       -1.07770        2.84080
H          7.71060       -0.32290        2.47610
H         10.76130        1.56310        1.80230
H          9.33840        1.31730        2.83900
H          9.95170       -0.01850        1.80650
H          6.41770        1.98540       -0.88260
H          4.11780        1.18760       -0.53900
H          8.36010        3.54020        3.80830
H         10.64470        4.63760        3.19510
