
  xtb     02042208163D
 energy: -266.108094263334 gnorm: 0.000687671303 xtb: 6.4.1 (unknown)
145158  0     0  0            999 V2000
  -11.3884   -4.7783   -2.5052 N   0  0  0  0  0  0  0  0  0  0  0  0
  -10.5330   -5.5232   -2.6815 C   0  0  0  0  0  0  0  0  0  0  0  0
   -9.5251   -6.4704   -2.9403 C   0  0  0  0  0  0  0  0  0  0  0  0
   -9.9988   -7.6773   -3.5009 C   0  0  0  0  0  0  0  0  0  0  0  0
  -10.4066   -8.6478   -3.9548 N   0  0  0  0  0  0  0  0  0  0  0  0
   -8.1813   -6.2892   -2.7011 C   0  0  0  0  0  0  0  0  0  0  0  0
   -7.3230   -7.3629   -3.0613 C   0  0  0  0  0  0  0  0  0  0  0  0
   -6.6274   -8.2261   -3.3481 N   0  0  0  0  0  0  0  0  0  0  0  0
   -7.5606   -5.1431   -2.1286 C   0  0  0  0  0  0  0  0  0  0  0  0
   -8.1288   -3.9975   -1.6044 C   0  0  0  0  0  0  0  0  0  0  0  0
   -7.1837   -3.0978   -1.1157 C   0  0  0  0  0  0  0  0  0  0  0  0
   -5.8917   -3.5453   -1.2525 C   0  0  0  0  0  0  0  0  0  0  0  0
   -5.8168   -5.0874   -2.0065 S   0  0  0  0  0  0  0  0  0  0  0  0
   -4.6821   -2.8068   -0.8862 C   0  0  0  0  0  0  0  0  0  0  0  0
   -4.1631   -1.8890   -1.8038 C   0  0  0  0  0  0  0  0  0  0  0  0
   -4.8809   -1.8672   -3.4233 S   0  0  0  0  0  0  0  0  0  0  0  0
   -5.3977   -0.1264   -3.6641 C   0  0  0  0  0  0  0  0  0  0  0  0
   -6.9005   -0.0098   -3.5080 C   0  0  0  0  0  0  0  0  0  0  0  0
   -3.0194   -1.1551   -1.4960 C   0  0  0  0  0  0  0  0  0  0  0  0
   -2.3116   -0.1369   -2.7629 S   0  0  0  0  0  0  0  0  0  0  0  0
   -0.6139   -0.8066   -2.9093 C   0  0  0  0  0  0  0  0  0  0  0  0
   -0.6064   -2.3129   -3.0604 C   0  0  0  0  0  0  0  0  0  0  0  0
   -2.4444   -1.2516   -0.2206 C   0  0  0  0  0  0  0  0  0  0  0  0
   -2.9568   -2.1867    0.6946 C   0  0  0  0  0  0  0  0  0  0  0  0
   -4.0480   -2.9995    0.3443 C   0  0  0  0  0  0  0  0  0  0  0  0
   -4.5461   -4.0881    1.2251 C   0  0  0  0  0  0  0  0  0  0  0  0
   -5.5858   -4.6820    1.0184 O   0  0  0  0  0  0  0  0  0  0  0  0
   -3.6453   -4.4173    2.3296 C   0  0  0  0  0  0  0  0  0  0  0  0
   -2.6116   -3.5260    2.7354 C   0  0  0  0  0  0  0  0  0  0  0  0
   -2.4034   -2.2415    2.0722 C   0  0  0  0  0  0  0  0  0  0  0  0
   -1.8558   -1.3004    2.6142 O   0  0  0  0  0  0  0  0  0  0  0  0
   -1.9105   -4.0001    3.8052 C   0  0  0  0  0  0  0  0  0  0  0  0
   -2.4719   -5.5379    4.3104 S   0  0  0  0  0  0  0  0  0  0  0  0
   -3.6929   -5.5383    3.1098 C   0  0  0  0  0  0  0  0  0  0  0  0
   -1.2849   -0.4417    0.1301 C   0  0  0  0  0  0  0  0  0  0  0  0
   -1.1727    0.9362    0.1402 C   0  0  0  0  0  0  0  0  0  0  0  0
   -2.1585    1.8457   -0.1893 N   0  0  0  0  0  0  0  0  0  0  0  0
   -3.5151    1.5745   -0.0104 C   0  0  0  0  0  0  0  0  0  0  0  0
   -4.4509    2.0981   -0.8995 C   0  0  0  0  0  0  0  0  0  0  0  0
   -5.7917    1.7921   -0.7710 C   0  0  0  0  0  0  0  0  0  0  0  0
   -6.2160    0.9379    0.2368 C   0  0  0  0  0  0  0  0  0  0  0  0
   -7.8904    0.3895    0.4053 S   0  0  0  0  0  0  0  0  0  0  0  0
   -8.8479    1.7085   -0.3980 C   0  0  0  0  0  0  0  0  0  0  0  0
   -5.2905    0.4466    1.1537 C   0  0  0  0  0  0  0  0  0  0  0  0
   -3.9583    0.7782    1.0472 C   0  0  0  0  0  0  0  0  0  0  0  0
   -1.7469    3.0835   -0.7199 C   0  0  0  0  0  0  0  0  0  0  0  0
   -0.7743    3.1270   -1.7138 C   0  0  0  0  0  0  0  0  0  0  0  0
   -0.2957    4.3348   -2.1805 C   0  0  0  0  0  0  0  0  0  0  0  0
   -0.7885    5.5219   -1.6570 C   0  0  0  0  0  0  0  0  0  0  0  0
   -0.2052    7.1152   -2.1356 S   0  0  0  0  0  0  0  0  0  0  0  0
    1.3487    6.7445   -2.9992 C   0  0  0  0  0  0  0  0  0  0  0  0
   -1.8028    5.4821   -0.7010 C   0  0  0  0  0  0  0  0  0  0  0  0
   -2.2782    4.2772   -0.2349 C   0  0  0  0  0  0  0  0  0  0  0  0
    0.1244    1.3289    0.5671 C   0  0  0  0  0  0  0  0  0  0  0  0
    0.9224    2.8528    0.7518 S   0  0  0  0  0  0  0  0  0  0  0  0
    2.3617    2.0461    1.3351 C   0  0  0  0  0  0  0  0  0  0  0  0
    2.2541    0.6573    1.3021 C   0  0  0  0  0  0  0  0  0  0  0  0
    3.2685   -0.2537    1.5264 N   0  0  0  0  0  0  0  0  0  0  0  0
    2.9268   -1.4378    2.2013 C   0  0  0  0  0  0  0  0  0  0  0  0
    3.4081   -2.6722    1.7696 C   0  0  0  0  0  0  0  0  0  0  0  0
    3.0277   -3.8250    2.4218 C   0  0  0  0  0  0  0  0  0  0  0  0
    2.1702   -3.7669    3.5185 C   0  0  0  0  0  0  0  0  0  0  0  0
    1.7090   -5.3031    4.2636 S   0  0  0  0  0  0  0  0  0  0  0  0
    1.3211   -4.8336    5.9783 C   0  0  0  0  0  0  0  0  0  0  0  0
    1.7004   -2.5357    3.9577 C   0  0  0  0  0  0  0  0  0  0  0  0
    2.0758   -1.3812    3.3024 C   0  0  0  0  0  0  0  0  0  0  0  0
    4.5954    0.0534    1.2226 C   0  0  0  0  0  0  0  0  0  0  0  0
    5.6389   -0.4047    2.0232 C   0  0  0  0  0  0  0  0  0  0  0  0
    6.9340    0.0328    1.8188 C   0  0  0  0  0  0  0  0  0  0  0  0
    7.2131    0.9389    0.8044 C   0  0  0  0  0  0  0  0  0  0  0  0
    8.7935    1.6626    0.5193 S   0  0  0  0  0  0  0  0  0  0  0  0
    9.8068    1.0543    1.8956 C   0  0  0  0  0  0  0  0  0  0  0  0
    6.1877    1.3245   -0.0606 C   0  0  0  0  0  0  0  0  0  0  0  0
    4.9020    0.8789    0.1359 C   0  0  0  0  0  0  0  0  0  0  0  0
    0.9611    0.2714    0.8808 C   0  0  0  0  0  0  0  0  0  0  0  0
    0.1867   -1.2533    0.6452 S   0  0  0  0  0  0  0  0  0  0  0  0
    3.5056    2.8137    1.7020 C   0  0  0  0  0  0  0  0  0  0  0  0
    4.3658    2.4513    2.7584 C   0  0  0  0  0  0  0  0  0  0  0  0
    5.6686    3.0546    2.9560 C   0  0  0  0  0  0  0  0  0  0  0  0
    6.2906    2.5352    4.0158 N   0  0  0  0  0  0  0  0  0  0  0  0
    5.3337    1.4436    4.7082 S   0  0  0  0  0  4  0  0  0  0  0  0
    4.0958    1.5397    3.6955 N   0  0  0  0  0  0  0  0  0  0  0  0
    6.1645    4.0484    2.0854 C   0  0  0  0  0  0  0  0  0  0  0  0
    5.2317    4.5151    1.1377 C   0  0  0  0  0  0  0  0  0  0  0  0
    5.4564    5.4955    0.2640 N   0  0  0  0  0  0  0  0  0  0  0  0
    4.1634    5.6837   -0.6667 S   0  0  0  0  0  0  0  0  0  0  0  0
    3.2499    4.5235   -0.0335 N   0  0  0  0  0  0  0  0  0  0  0  0
    3.9175    3.9385    0.9650 C   0  0  0  0  0  0  0  0  0  0  0  0
    7.5003    4.5221    2.0897 C   0  0  0  0  0  0  0  0  0  0  0  0
    8.5262    4.1869    2.9665 C   0  0  0  0  0  0  0  0  0  0  0  0
    9.7328    4.7753    2.6400 C   0  0  0  0  0  0  0  0  0  0  0  0
    9.6596    5.5771    1.5033 C   0  0  0  0  0  0  0  0  0  0  0  0
   10.7428    6.2922    0.9329 C   0  0  0  0  0  0  0  0  0  0  0  0
   10.7080    7.1008   -0.1857 C   0  0  0  0  0  0  0  0  0  0  0  0
   11.8726    7.7563   -0.6361 C   0  0  0  0  0  0  0  0  0  0  0  0
   12.8102    8.2968   -1.0163 N   0  0  0  0  0  0  0  0  0  0  0  0
    9.5615    7.3486   -0.9614 C   0  0  0  0  0  0  0  0  0  0  0  0
    8.6641    7.5884   -1.6369 N   0  0  0  0  0  0  0  0  0  0  0  0
   11.9972    6.1505    1.5839 C   0  0  0  0  0  0  0  0  0  0  0  0
   13.0044    6.0247    2.1146 N   0  0  0  0  0  0  0  0  0  0  0  0
    8.0440    5.5980    0.8493 S   0  0  0  0  0  0  0  0  0  0  0  0
   -9.1878   -3.8196   -1.5665 H   0  0  0  0  0  0  0  0  0  0  0  0
   -7.4303   -2.1595   -0.6509 H   0  0  0  0  0  0  0  0  0  0  0  0
   -5.0777    0.1445   -4.6690 H   0  0  0  0  0  0  0  0  0  0  0  0
   -4.8635    0.4804   -2.9367 H   0  0  0  0  0  0  0  0  0  0  0  0
   -7.4082   -0.6747   -4.2030 H   0  0  0  0  0  0  0  0  0  0  0  0
   -7.1999   -0.2769   -2.4972 H   0  0  0  0  0  0  0  0  0  0  0  0
   -7.2127    1.0116   -3.7178 H   0  0  0  0  0  0  0  0  0  0  0  0
   -0.2415   -0.3184   -3.8103 H   0  0  0  0  0  0  0  0  0  0  0  0
   -0.0215   -0.4840   -2.0546 H   0  0  0  0  0  0  0  0  0  0  0  0
    0.4039   -2.6513   -3.2803 H   0  0  0  0  0  0  0  0  0  0  0  0
   -1.2632   -2.6198   -3.8715 H   0  0  0  0  0  0  0  0  0  0  0  0
   -0.9370   -2.7970   -2.1429 H   0  0  0  0  0  0  0  0  0  0  0  0
   -1.0822   -3.5231    4.2878 H   0  0  0  0  0  0  0  0  0  0  0  0
   -4.3755   -6.3604    3.0239 H   0  0  0  0  0  0  0  0  0  0  0  0
   -4.1211    2.7392   -1.7036 H   0  0  0  0  0  0  0  0  0  0  0  0
   -6.4932    2.2099   -1.4748 H   0  0  0  0  0  0  0  0  0  0  0  0
   -8.7704    1.6345   -1.4787 H   0  0  0  0  0  0  0  0  0  0  0  0
   -9.8779    1.5499   -0.0944 H   0  0  0  0  0  0  0  0  0  0  0  0
   -8.4980    2.6724   -0.0418 H   0  0  0  0  0  0  0  0  0  0  0  0
   -5.6316   -0.1876    1.9580 H   0  0  0  0  0  0  0  0  0  0  0  0
   -3.2545    0.4332    1.7881 H   0  0  0  0  0  0  0  0  0  0  0  0
   -0.3879    2.2053   -2.1224 H   0  0  0  0  0  0  0  0  0  0  0  0
    0.4597    4.3343   -2.9487 H   0  0  0  0  0  0  0  0  0  0  0  0
    1.9472    6.0748   -2.3880 H   0  0  0  0  0  0  0  0  0  0  0  0
    1.8564    7.6966   -3.1174 H   0  0  0  0  0  0  0  0  0  0  0  0
    1.1446    6.3157   -3.9763 H   0  0  0  0  0  0  0  0  0  0  0  0
   -2.1945    6.4100   -0.3137 H   0  0  0  0  0  0  0  0  0  0  0  0
   -3.0464    4.2497    0.5234 H   0  0  0  0  0  0  0  0  0  0  0  0
    4.0736   -2.7188    0.9206 H   0  0  0  0  0  0  0  0  0  0  0  0
    3.3869   -4.7857    2.0866 H   0  0  0  0  0  0  0  0  0  0  0  0
    0.3380   -4.3771    6.0460 H   0  0  0  0  0  0  0  0  0  0  0  0
    1.3273   -5.7601    6.5437 H   0  0  0  0  0  0  0  0  0  0  0  0
    2.0907   -4.1651    6.3508 H   0  0  0  0  0  0  0  0  0  0  0  0
    1.0473   -2.4609    4.8128 H   0  0  0  0  0  0  0  0  0  0  0  0
    1.7165   -0.4231    3.6455 H   0  0  0  0  0  0  0  0  0  0  0  0
    5.4258   -1.0777    2.8408 H   0  0  0  0  0  0  0  0  0  0  0  0
    7.7106   -0.3229    2.4761 H   0  0  0  0  0  0  0  0  0  0  0  0
   10.7613    1.5631    1.8023 H   0  0  0  0  0  0  0  0  0  0  0  0
    9.3384    1.3173    2.8390 H   0  0  0  0  0  0  0  0  0  0  0  0
    9.9517   -0.0185    1.8065 H   0  0  0  0  0  0  0  0  0  0  0  0
    6.4177    1.9854   -0.8826 H   0  0  0  0  0  0  0  0  0  0  0  0
    4.1178    1.1876   -0.5390 H   0  0  0  0  0  0  0  0  0  0  0  0
    8.3601    3.5402    3.8083 H   0  0  0  0  0  0  0  0  0  0  0  0
   10.6447    4.6376    3.1951 H   0  0  0  0  0  0  0  0  0  0  0  0
  1  2  3  0  0  0  0
  2  3  1  0  0  0  0
  3  4  1  0  0  0  0
  4  5  3  0  0  0  0
  3  6  2  0  0  0  0
  6  7  1  0  0  0  0
  7  8  3  0  0  0  0
  6  9  1  0  0  0  0
  9 10  2  0  0  0  0
 10 11  1  0  0  0  0
 11 12  2  0  0  0  0
 12 13  1  0  0  0  0
 12 14  1  0  0  0  0
 14 15  2  0  0  0  0
 15 16  1  0  0  0  0
 16 17  1  0  0  0  0
 17 18  1  0  0  0  0
 15 19  1  0  0  0  0
 19 20  1  0  0  0  0
 20 21  1  0  0  0  0
 21 22  1  0  0  0  0
 19 23  2  0  0  0  0
 23 24  1  0  0  0  0
 24 25  2  0  0  0  0
 25 26  1  0  0  0  0
 26 27  2  0  0  0  0
 26 28  1  0  0  0  0
 28 29  1  0  0  0  0
 29 30  1  0  0  0  0
 30 31  2  0  0  0  0
 29 32  2  0  0  0  0
 32 33  1  0  0  0  0
 33 34  1  0  0  0  0
 23 35  1  0  0  0  0
 35 36  2  0  0  0  0
 36 37  1  0  0  0  0
 37 38  1  0  0  0  0
 38 39  2  0  0  0  0
 39 40  1  0  0  0  0
 40 41  2  0  0  0  0
 41 42  1  0  0  0  0
 42 43  1  0  0  0  0
 41 44  1  0  0  0  0
 44 45  2  0  0  0  0
 37 46  1  0  0  0  0
 46 47  2  0  0  0  0
 47 48  1  0  0  0  0
 48 49  2  0  0  0  0
 49 50  1  0  0  0  0
 50 51  1  0  0  0  0
 49 52  1  0  0  0  0
 52 53  2  0  0  0  0
 36 54  1  0  0  0  0
 54 55  1  0  0  0  0
 55 56  1  0  0  0  0
 56 57  2  0  0  0  0
 57 58  1  0  0  0  0
 58 59  1  0  0  0  0
 59 60  2  0  0  0  0
 60 61  1  0  0  0  0
 61 62  2  0  0  0  0
 62 63  1  0  0  0  0
 63 64  1  0  0  0  0
 62 65  1  0  0  0  0
 65 66  2  0  0  0  0
 58 67  1  0  0  0  0
 67 68  2  0  0  0  0
 68 69  1  0  0  0  0
 69 70  2  0  0  0  0
 70 71  1  0  0  0  0
 71 72  1  0  0  0  0
 70 73  1  0  0  0  0
 73 74  2  0  0  0  0
 57 75  1  0  0  0  0
 75 76  1  0  0  0  0
 56 77  1  0  0  0  0
 77 78  2  0  0  0  0
 78 79  1  0  0  0  0
 79 80  1  0  0  0  0
 80 81  2  0  0  0  0
 81 82  2  0  0  0  0
 79 83  2  0  0  0  0
 83 84  1  0  0  0  0
 84 85  2  0  0  0  0
 85 86  1  0  0  0  0
 86 87  1  0  0  0  0
 87 88  2  0  0  0  0
 83 89  1  0  0  0  0
 89 90  2  0  0  0  0
 90 91  1  0  0  0  0
 91 92  2  0  0  0  0
 92 93  1  0  0  0  0
 93 94  2  0  0  0  0
 94 95  1  0  0  0  0
 95 96  3  0  0  0  0
 94 97  1  0  0  0  0
 97 98  3  0  0  0  0
 93 99  1  0  0  0  0
 99100  3  0  0  0  0
 92101  1  0  0  0  0
 13  9  1  0  0  0  0
 25 14  1  0  0  0  0
 34 28  2  0  0  0  0
 76 35  1  0  0  0  0
 88 77  1  0  0  0  0
101 89  1  0  0  0  0
 30 24  1  0  0  0  0
 45 38  1  0  0  0  0
 53 46  1  0  0  0  0
 75 54  2  0  0  0  0
 82 78  1  0  0  0  0
 88 84  1  0  0  0  0
 66 59  1  0  0  0  0
 74 67  1  0  0  0  0
 10102  1  0  0  0  0
 11103  1  0  0  0  0
 17104  1  0  0  0  0
 17105  1  0  0  0  0
 18106  1  0  0  0  0
 18107  1  0  0  0  0
 18108  1  0  0  0  0
 21109  1  0  0  0  0
 21110  1  0  0  0  0
 22111  1  0  0  0  0
 22112  1  0  0  0  0
 22113  1  0  0  0  0
 32114  1  0  0  0  0
 34115  1  0  0  0  0
 39116  1  0  0  0  0
 40117  1  0  0  0  0
 43118  1  0  0  0  0
 43119  1  0  0  0  0
 43120  1  0  0  0  0
 44121  1  0  0  0  0
 45122  1  0  0  0  0
 47123  1  0  0  0  0
 48124  1  0  0  0  0
 51125  1  0  0  0  0
 51126  1  0  0  0  0
 51127  1  0  0  0  0
 52128  1  0  0  0  0
 53129  1  0  0  0  0
 60130  1  0  0  0  0
 61131  1  0  0  0  0
 64132  1  0  0  0  0
 64133  1  0  0  0  0
 64134  1  0  0  0  0
 65135  1  0  0  0  0
 66136  1  0  0  0  0
 68137  1  0  0  0  0
 69138  1  0  0  0  0
 72139  1  0  0  0  0
 72140  1  0  0  0  0
 72141  1  0  0  0  0
 73142  1  0  0  0  0
 74143  1  0  0  0  0
 90144  1  0  0  0  0
 91145  1  0  0  0  0
M  END
