
  xtb     02122218033D
 energy: -352.212331562121 gnorm: 0.000909156063 xtb: 6.4.1 (unknown)
197214  0     0  0            999 V2000
   -3.3713    1.7536    7.0806 C   0  0  0  0  0  0  0  0  0  0  0  0
   -2.9446    2.5655    8.1022 C   0  0  0  0  0  0  0  0  0  0  0  0
   -3.9227    3.1092    9.0798 C   0  0  0  0  0  0  0  0  0  0  0  0
   -5.1031    2.8485    9.1676 O   0  0  0  0  0  0  0  0  0  0  0  0
   -3.1460    4.0943    9.8345 C   0  0  0  0  0  0  0  0  0  0  0  0
   -3.4626    5.2287   11.0760 S   0  0  0  0  0  0  0  0  0  0  0  0
   -1.7992    5.7254   11.0245 C   0  0  0  0  0  0  0  0  0  0  0  0
   -1.2044    7.0929   12.1548 Br  0  0  0  0  0  0  0  0  0  0  0  0
   -1.0363    5.0471   10.1138 C   0  0  0  0  0  0  0  0  0  0  0  0
   -1.8219    4.1114    9.4217 C   0  0  0  0  0  0  0  0  0  0  0  0
   -1.6437    3.1060    8.3878 C   0  0  0  0  0  0  0  0  0  0  0  0
   -0.4275    2.6220    7.9602 C   0  0  0  0  0  0  0  0  0  0  0  0
   -0.2753    1.4202    7.2521 C   0  0  0  0  0  0  0  0  0  0  0  0
   -0.1018    0.4209    6.7108 N   0  0  0  0  0  0  0  0  0  0  0  0
    0.7782    3.2746    8.2723 C   0  0  0  0  0  0  0  0  0  0  0  0
    1.7635    3.8268    8.4808 N   0  0  0  0  0  0  0  0  0  0  0  0
   -2.7942    1.5251    5.8243 C   0  0  0  0  0  0  0  0  0  0  0  0
   -1.8899    2.2701    5.0387 C   0  0  0  0  0  0  0  0  0  0  0  0
   -1.3880    3.5250    5.2934 N   0  0  0  0  0  0  0  0  0  0  0  0
   -0.2225    3.9314    4.5918 C   0  0  0  0  0  0  0  0  0  0  0  0
    0.9458    3.1726    4.6554 C   0  0  0  0  0  0  0  0  0  0  0  0
    2.0648    3.5691    3.9592 C   0  0  0  0  0  0  0  0  0  0  0  0
    2.0471    4.7293    3.1859 C   0  0  0  0  0  0  0  0  0  0  0  0
    3.5381    5.1152    2.3366 S   0  0  0  0  0  0  0  0  0  0  0  0
    3.1170    6.5614    1.3255 C   0  0  0  0  0  0  0  0  0  0  0  0
    0.8887    5.4958    3.1368 C   0  0  0  0  0  0  0  0  0  0  0  0
   -0.2355    5.0970    3.8339 C   0  0  0  0  0  0  0  0  0  0  0  0
   -2.0800    4.5131    6.0032 C   0  0  0  0  0  0  0  0  0  0  0  0
   -3.4713    4.5490    6.0552 C   0  0  0  0  0  0  0  0  0  0  0  0
   -4.1271    5.4974    6.8140 C   0  0  0  0  0  0  0  0  0  0  0  0
   -3.4024    6.4459    7.5250 C   0  0  0  0  0  0  0  0  0  0  0  0
   -4.1332    7.6408    8.5900 S   0  0  0  0  0  0  0  0  0  0  0  0
   -5.8299    7.0330    8.8070 C   0  0  0  0  0  0  0  0  0  0  0  0
   -2.0119    6.4679    7.4081 C   0  0  0  0  0  0  0  0  0  0  0  0
   -1.3584    5.5119    6.6672 C   0  0  0  0  0  0  0  0  0  0  0  0
   -1.5864    1.5738    3.8488 C   0  0  0  0  0  0  0  0  0  0  0  0
   -0.5997    1.9362    2.4763 S   0  0  0  0  0  0  0  0  0  0  0  0
   -1.0573    0.4251    1.7107 C   0  0  0  0  0  0  0  0  0  0  0  0
   -1.9709   -0.2988    2.4760 C   0  0  0  0  0  0  0  0  0  0  0  0
   -2.5433   -1.5176    2.1252 N   0  0  0  0  0  0  0  0  0  0  0  0
   -2.5387   -2.5473    3.0757 C   0  0  0  0  0  0  0  0  0  0  0  0
   -1.5029   -2.6383    4.0066 C   0  0  0  0  0  0  0  0  0  0  0  0
   -1.4815   -3.6648    4.9242 C   0  0  0  0  0  0  0  0  0  0  0  0
   -2.4780   -4.6373    4.9188 C   0  0  0  0  0  0  0  0  0  0  0  0
   -2.3299   -5.9517    6.0896 S   0  0  0  0  0  0  0  0  0  0  0  0
   -3.3630   -7.2584    5.3636 C   0  0  0  0  0  0  0  0  0  0  0  0
   -3.5282   -4.5320    4.0174 C   0  0  0  0  0  0  0  0  0  0  0  0
   -3.5623   -3.4903    3.1131 C   0  0  0  0  0  0  0  0  0  0  0  0
   -3.0542   -1.7043    0.8390 C   0  0  0  0  0  0  0  0  0  0  0  0
   -3.5791   -0.6218    0.1307 C   0  0  0  0  0  0  0  0  0  0  0  0
   -3.9570   -0.7676   -1.1853 C   0  0  0  0  0  0  0  0  0  0  0  0
   -3.8355   -1.9987   -1.8259 C   0  0  0  0  0  0  0  0  0  0  0  0
   -4.2733   -2.0533   -3.5369 S   0  0  0  0  0  0  0  0  0  0  0  0
   -3.6482   -3.6646   -4.0907 C   0  0  0  0  0  0  0  0  0  0  0  0
   -3.3810   -3.0949   -1.1061 C   0  0  0  0  0  0  0  0  0  0  0  0
   -2.9900   -2.9478    0.2085 C   0  0  0  0  0  0  0  0  0  0  0  0
   -2.2545    0.3678    3.6861 C   0  0  0  0  0  0  0  0  0  0  0  0
   -3.3131    0.0445    5.0034 S   0  0  0  0  0  0  0  0  0  0  0  0
   -0.3935    0.0217    0.5254 C   0  0  0  0  0  0  0  0  0  0  0  0
    0.3138    0.8072   -0.3825 C   0  0  0  0  0  0  0  0  0  0  0  0
    0.3380    2.1953   -0.3880 N   0  0  0  0  0  0  0  0  0  0  0  0
    1.5611    2.8369   -0.6226 C   0  0  0  0  0  0  0  0  0  0  0  0
    2.7313    2.3349   -0.0532 C   0  0  0  0  0  0  0  0  0  0  0  0
    3.9362    2.9597   -0.2793 C   0  0  0  0  0  0  0  0  0  0  0  0
    4.0013    4.1021   -1.0741 C   0  0  0  0  0  0  0  0  0  0  0  0
    5.5902    4.8486   -1.2588 S   0  0  0  0  0  0  0  0  0  0  0  0
    5.3576    6.0243   -2.6248 C   0  0  0  0  0  0  0  0  0  0  0  0
    2.8390    4.6051   -1.6432 C   0  0  0  0  0  0  0  0  0  0  0  0
    1.6313    3.9723   -1.4240 C   0  0  0  0  0  0  0  0  0  0  0  0
   -0.8500    2.9223   -0.2858 C   0  0  0  0  0  0  0  0  0  0  0  0
   -0.8626    4.1733    0.3365 C   0  0  0  0  0  0  0  0  0  0  0  0
   -2.0418    4.8655    0.4822 C   0  0  0  0  0  0  0  0  0  0  0  0
   -3.2414    4.3292    0.0158 C   0  0  0  0  0  0  0  0  0  0  0  0
   -4.6951    5.2918    0.2967 S   0  0  0  0  0  0  0  0  0  0  0  0
   -6.0019    4.3759   -0.5681 C   0  0  0  0  0  0  0  0  0  0  0  0
   -3.2322    3.0938   -0.6166 C   0  0  0  0  0  0  0  0  0  0  0  0
   -2.0465    2.4018   -0.7702 C   0  0  0  0  0  0  0  0  0  0  0  0
    0.9704    0.0111   -1.3476 C   0  0  0  0  0  0  0  0  0  0  0  0
    1.8726    0.3546   -2.7844 S   0  0  0  0  0  0  0  0  0  0  0  0
    1.9691   -1.3579   -3.1484 C   0  0  0  0  0  0  0  0  0  0  0  0
    1.2429   -2.1437   -2.2516 C   0  0  0  0  0  0  0  0  0  0  0  0
    0.8974   -3.4649   -2.4472 N   0  0  0  0  0  0  0  0  0  0  0  0
    0.7252   -3.9437   -3.7591 C   0  0  0  0  0  0  0  0  0  0  0  0
    1.2189   -5.1958   -4.1236 C   0  0  0  0  0  0  0  0  0  0  0  0
    1.2005   -5.5866   -5.4442 C   0  0  0  0  0  0  0  0  0  0  0  0
    0.6829   -4.7422   -6.4253 C   0  0  0  0  0  0  0  0  0  0  0  0
    0.8537   -5.2638   -8.1006 S   0  0  0  0  0  0  0  0  0  0  0  0
    0.4141   -3.7793   -9.0468 C   0  0  0  0  0  0  0  0  0  0  0  0
    0.0891   -3.5435   -6.0474 C   0  0  0  0  0  0  0  0  0  0  0  0
    0.1098   -3.1508   -4.7245 C   0  0  0  0  0  0  0  0  0  0  0  0
    0.5409   -4.2631   -1.3552 C   0  0  0  0  0  0  0  0  0  0  0  0
    1.2369   -4.1692   -0.1523 C   0  0  0  0  0  0  0  0  0  0  0  0
    0.8262   -4.8805    0.9582 C   0  0  0  0  0  0  0  0  0  0  0  0
   -0.2822   -5.7124    0.8796 C   0  0  0  0  0  0  0  0  0  0  0  0
   -0.9464   -6.6043    2.2483 S   0  0  0  0  0  0  0  0  0  0  0  0
    0.2867   -6.3787    3.5574 C   0  0  0  0  0  0  0  0  0  0  0  0
   -0.9404   -5.8601   -0.3411 C   0  0  0  0  0  0  0  0  0  0  0  0
   -0.5352   -5.1469   -1.4460 C   0  0  0  0  0  0  0  0  0  0  0  0
    0.7334   -1.3486   -1.2026 C   0  0  0  0  0  0  0  0  0  0  0  0
   -0.2552   -1.6915    0.1654 S   0  0  0  0  0  0  0  0  0  0  0  0
    2.6650   -1.8125   -4.3142 C   0  0  0  0  0  0  0  0  0  0  0  0
    2.6124   -1.0816   -5.5343 C   0  0  0  0  0  0  0  0  0  0  0  0
    1.9940    0.1159   -5.5513 N   0  0  0  0  0  0  0  0  0  0  0  0
    1.9136    0.7601   -6.6753 C   0  0  0  0  0  0  0  0  0  0  0  0
    2.4565    0.2217   -7.8781 C   0  0  0  0  0  0  0  0  0  0  0  0
    2.3650    0.9560   -8.9789 O   0  0  0  0  0  0  0  0  0  0  0  0
    2.9548    0.4447  -10.1754 C   0  0  0  0  0  0  0  0  0  0  0  0
    2.0538   -0.5600  -10.8770 C   0  0  0  0  0  0  0  0  0  0  0  0
    3.0424   -0.9543   -7.8915 N   0  0  0  0  0  0  0  0  0  0  0  0
    3.1373   -1.6307   -6.7292 C   0  0  0  0  0  0  0  0  0  0  0  0
    3.7861   -2.8968   -6.7286 C   0  0  0  0  0  0  0  0  0  0  0  0
    3.8789   -3.5582   -5.5092 C   0  0  0  0  0  0  0  0  0  0  0  0
    3.3514   -3.0230   -4.3382 C   0  0  0  0  0  0  0  0  0  0  0  0
    3.5171   -3.7137   -3.1949 F   0  0  0  0  0  0  0  0  0  0  0  0
    4.3859   -4.7955   -5.4511 F   0  0  0  0  0  0  0  0  0  0  0  0
    4.2450   -3.4494   -7.9726 C   0  0  0  0  0  0  0  0  0  0  0  0
    5.3817   -4.1627   -8.1584 C   0  0  0  0  0  0  0  0  0  0  0  0
    6.5065   -4.2477   -7.1719 C   0  0  0  0  0  0  0  0  0  0  0  0
    6.6277   -3.6393   -6.1352 O   0  0  0  0  0  0  0  0  0  0  0  0
    7.4763   -5.1229   -7.8269 C   0  0  0  0  0  0  0  0  0  0  0  0
    9.0071   -5.7669   -7.4270 S   0  0  0  0  0  0  0  0  0  0  0  0
    9.0724   -6.5316   -8.9892 C   0  0  0  0  0  0  0  0  0  0  0  0
   10.5605   -7.5673   -9.4553 Br  0  0  0  0  0  0  0  0  0  0  0  0
    7.9808   -6.2972   -9.7791 C   0  0  0  0  0  0  0  0  0  0  0  0
    7.0579   -5.4785   -9.1034 C   0  0  0  0  0  0  0  0  0  0  0  0
    5.7696   -4.8699   -9.3694 C   0  0  0  0  0  0  0  0  0  0  0  0
    5.0803   -4.9794  -10.5477 C   0  0  0  0  0  0  0  0  0  0  0  0
    3.8435   -4.3742  -10.8383 C   0  0  0  0  0  0  0  0  0  0  0  0
    2.8476   -3.9015  -11.1612 N   0  0  0  0  0  0  0  0  0  0  0  0
    5.5867   -5.7205  -11.6372 C   0  0  0  0  0  0  0  0  0  0  0  0
    5.9814   -6.3138  -12.5363 N   0  0  0  0  0  0  0  0  0  0  0  0
   -4.3230    1.2606    7.2536 H   0  0  0  0  0  0  0  0  0  0  0  0
    0.0109    5.2293    9.9568 H   0  0  0  0  0  0  0  0  0  0  0  0
    0.9712    2.2673    5.2409 H   0  0  0  0  0  0  0  0  0  0  0  0
    2.9699    2.9846    4.0067 H   0  0  0  0  0  0  0  0  0  0  0  0
    2.3052    6.3144    0.6472 H   0  0  0  0  0  0  0  0  0  0  0  0
    2.8665    7.4061    1.9603 H   0  0  0  0  0  0  0  0  0  0  0  0
    4.0169    6.7811    0.7595 H   0  0  0  0  0  0  0  0  0  0  0  0
    0.8461    6.4047    2.5584 H   0  0  0  0  0  0  0  0  0  0  0  0
   -1.1365    5.6905    3.7847 H   0  0  0  0  0  0  0  0  0  0  0  0
   -4.0510    3.8327    5.4940 H   0  0  0  0  0  0  0  0  0  0  0  0
   -5.2041    5.4844    6.8403 H   0  0  0  0  0  0  0  0  0  0  0  0
   -6.4056    7.1940    7.9001 H   0  0  0  0  0  0  0  0  0  0  0  0
   -5.8127    5.9825    9.0832 H   0  0  0  0  0  0  0  0  0  0  0  0
   -6.2492    7.6221    9.6168 H   0  0  0  0  0  0  0  0  0  0  0  0
   -1.4522    7.2289    7.9295 H   0  0  0  0  0  0  0  0  0  0  0  0
   -0.2797    5.5158    6.6156 H   0  0  0  0  0  0  0  0  0  0  0  0
   -0.7067   -1.9093    4.0015 H   0  0  0  0  0  0  0  0  0  0  0  0
   -0.6840   -3.7298    5.6488 H   0  0  0  0  0  0  0  0  0  0  0  0
   -4.4158   -7.0295    5.5017 H   0  0  0  0  0  0  0  0  0  0  0  0
   -3.1142   -8.1670    5.9030 H   0  0  0  0  0  0  0  0  0  0  0  0
   -3.1155   -7.3672    4.3114 H   0  0  0  0  0  0  0  0  0  0  0  0
   -4.3315   -5.2505    4.0158 H   0  0  0  0  0  0  0  0  0  0  0  0
   -4.3929   -3.4060    2.4286 H   0  0  0  0  0  0  0  0  0  0  0  0
   -3.6648    0.3403    0.6139 H   0  0  0  0  0  0  0  0  0  0  0  0
   -4.3452    0.0731   -1.7403 H   0  0  0  0  0  0  0  0  0  0  0  0
   -3.7949   -3.6817   -5.1663 H   0  0  0  0  0  0  0  0  0  0  0  0
   -2.5889   -3.7465   -3.8630 H   0  0  0  0  0  0  0  0  0  0  0  0
   -4.2169   -4.4683   -3.6318 H   0  0  0  0  0  0  0  0  0  0  0  0
   -3.3021   -4.0683   -1.5609 H   0  0  0  0  0  0  0  0  0  0  0  0
   -2.5885   -3.7981    0.7372 H   0  0  0  0  0  0  0  0  0  0  0  0
    2.6835    1.4596    0.5767 H   0  0  0  0  0  0  0  0  0  0  0  0
    4.8412    2.5813    0.1690 H   0  0  0  0  0  0  0  0  0  0  0  0
    6.3503    6.3917   -2.8654 H   0  0  0  0  0  0  0  0  0  0  0  0
    4.9355    5.5096   -3.4826 H   0  0  0  0  0  0  0  0  0  0  0  0
    4.7278    6.8529   -2.3133 H   0  0  0  0  0  0  0  0  0  0  0  0
    2.8588    5.4872   -2.2635 H   0  0  0  0  0  0  0  0  0  0  0  0
    0.7325    4.3613   -1.8794 H   0  0  0  0  0  0  0  0  0  0  0  0
    0.0575    4.5782    0.7279 H   0  0  0  0  0  0  0  0  0  0  0  0
   -2.0536    5.8270    0.9722 H   0  0  0  0  0  0  0  0  0  0  0  0
   -6.8993    4.9768   -0.4594 H   0  0  0  0  0  0  0  0  0  0  0  0
   -5.7494    4.2768   -1.6198 H   0  0  0  0  0  0  0  0  0  0  0  0
   -6.1514    3.4055   -0.1033 H   0  0  0  0  0  0  0  0  0  0  0  0
   -4.1405    2.6574   -0.9998 H   0  0  0  0  0  0  0  0  0  0  0  0
   -2.0499    1.4439   -1.2687 H   0  0  0  0  0  0  0  0  0  0  0  0
    1.6617   -5.8312   -3.3720 H   0  0  0  0  0  0  0  0  0  0  0  0
    1.6234   -6.5347   -5.7372 H   0  0  0  0  0  0  0  0  0  0  0  0
    0.7472   -3.9693  -10.0630 H   0  0  0  0  0  0  0  0  0  0  0  0
   -0.6608   -3.6239   -9.0279 H   0  0  0  0  0  0  0  0  0  0  0  0
    0.9440   -2.9236   -8.6380 H   0  0  0  0  0  0  0  0  0  0  0  0
   -0.3881   -2.9036   -6.7717 H   0  0  0  0  0  0  0  0  0  0  0  0
   -0.3285   -2.2040   -4.4434 H   0  0  0  0  0  0  0  0  0  0  0  0
    2.1084   -3.5355   -0.0912 H   0  0  0  0  0  0  0  0  0  0  0  0
    1.3772   -4.7715    1.8777 H   0  0  0  0  0  0  0  0  0  0  0  0
    1.2478   -6.7574    3.2223 H   0  0  0  0  0  0  0  0  0  0  0  0
    0.3406   -5.3303    3.8353 H   0  0  0  0  0  0  0  0  0  0  0  0
   -0.0679   -6.9598    4.4031 H   0  0  0  0  0  0  0  0  0  0  0  0
   -1.7830   -6.5321   -0.4035 H   0  0  0  0  0  0  0  0  0  0  0  0
   -1.0541   -5.2627   -2.3862 H   0  0  0  0  0  0  0  0  0  0  0  0
    1.4231    1.7219   -6.6745 H   0  0  0  0  0  0  0  0  0  0  0  0
    3.9181   -0.0133   -9.9305 H   0  0  0  0  0  0  0  0  0  0  0  0
    3.1096    1.3280  -10.7991 H   0  0  0  0  0  0  0  0  0  0  0  0
    1.0721   -0.1270  -11.0524 H   0  0  0  0  0  0  0  0  0  0  0  0
    2.4931   -0.8385  -11.8299 H   0  0  0  0  0  0  0  0  0  0  0  0
    1.9449   -1.4576  -10.2763 H   0  0  0  0  0  0  0  0  0  0  0  0
    3.6134   -3.2322   -8.8235 H   0  0  0  0  0  0  0  0  0  0  0  0
    7.8672   -6.6923  -10.7716 H   0  0  0  0  0  0  0  0  0  0  0  0
  1  2  2  0  0  0  0
  2  3  1  0  0  0  0
  3  4  2  0  0  0  0
  3  5  1  0  0  0  0
  5  6  1  0  0  0  0
  6  7  1  0  0  0  0
  7  8  1  0  0  0  0
  7  9  2  0  0  0  0
  9 10  1  0  0  0  0
 10 11  1  0  0  0  0
 11 12  2  0  0  0  0
 12 13  1  0  0  0  0
 13 14  3  0  0  0  0
 12 15  1  0  0  0  0
 15 16  3  0  0  0  0
  1 17  1  0  0  0  0
 17 18  2  0  0  0  0
 18 19  1  0  0  0  0
 19 20  1  0  0  0  0
 20 21  2  0  0  0  0
 21 22  1  0  0  0  0
 22 23  2  0  0  0  0
 23 24  1  0  0  0  0
 24 25  1  0  0  0  0
 23 26  1  0  0  0  0
 26 27  2  0  0  0  0
 19 28  1  0  0  0  0
 28 29  2  0  0  0  0
 29 30  1  0  0  0  0
 30 31  2  0  0  0  0
 31 32  1  0  0  0  0
 32 33  1  0  0  0  0
 31 34  1  0  0  0  0
 34 35  2  0  0  0  0
 18 36  1  0  0  0  0
 36 37  1  0  0  0  0
 37 38  1  0  0  0  0
 38 39  2  0  0  0  0
 39 40  1  0  0  0  0
 40 41  1  0  0  0  0
 41 42  2  0  0  0  0
 42 43  1  0  0  0  0
 43 44  2  0  0  0  0
 44 45  1  0  0  0  0
 45 46  1  0  0  0  0
 44 47  1  0  0  0  0
 47 48  2  0  0  0  0
 40 49  1  0  0  0  0
 49 50  2  0  0  0  0
 50 51  1  0  0  0  0
 51 52  2  0  0  0  0
 52 53  1  0  0  0  0
 53 54  1  0  0  0  0
 52 55  1  0  0  0  0
 55 56  2  0  0  0  0
 39 57  1  0  0  0  0
 57 58  1  0  0  0  0
 38 59  1  0  0  0  0
 59 60  2  0  0  0  0
 60 61  1  0  0  0  0
 61 62  1  0  0  0  0
 62 63  2  0  0  0  0
 63 64  1  0  0  0  0
 64 65  2  0  0  0  0
 65 66  1  0  0  0  0
 66 67  1  0  0  0  0
 65 68  1  0  0  0  0
 68 69  2  0  0  0  0
 61 70  1  0  0  0  0
 70 71  2  0  0  0  0
 71 72  1  0  0  0  0
 72 73  2  0  0  0  0
 73 74  1  0  0  0  0
 74 75  1  0  0  0  0
 73 76  1  0  0  0  0
 76 77  2  0  0  0  0
 60 78  1  0  0  0  0
 78 79  1  0  0  0  0
 79 80  1  0  0  0  0
 80 81  2  0  0  0  0
 81 82  1  0  0  0  0
 82 83  1  0  0  0  0
 83 84  2  0  0  0  0
 84 85  1  0  0  0  0
 85 86  2  0  0  0  0
 86 87  1  0  0  0  0
 87 88  1  0  0  0  0
 86 89  1  0  0  0  0
 89 90  2  0  0  0  0
 82 91  1  0  0  0  0
 91 92  2  0  0  0  0
 92 93  1  0  0  0  0
 93 94  2  0  0  0  0
 94 95  1  0  0  0  0
 95 96  1  0  0  0  0
 94 97  1  0  0  0  0
 97 98  2  0  0  0  0
 81 99  1  0  0  0  0
 99100  1  0  0  0  0
 80101  1  0  0  0  0
101102  1  0  0  0  0
102103  2  0  0  0  0
103104  1  0  0  0  0
104105  2  0  0  0  0
105106  1  0  0  0  0
106107  1  0  0  0  0
107108  1  0  0  0  0
105109  1  0  0  0  0
109110  2  0  0  0  0
110111  1  0  0  0  0
111112  2  0  0  0  0
112113  1  0  0  0  0
113114  1  0  0  0  0
112115  1  0  0  0  0
111116  1  0  0  0  0
116117  2  0  0  0  0
117118  1  0  0  0  0
118119  2  0  0  0  0
118120  1  0  0  0  0
120121  1  0  0  0  0
121122  1  0  0  0  0
122123  1  0  0  0  0
122124  2  0  0  0  0
124125  1  0  0  0  0
125126  1  0  0  0  0
126127  2  0  0  0  0
127128  1  0  0  0  0
128129  3  0  0  0  0
127130  1  0  0  0  0
130131  3  0  0  0  0
 11  2  1  0  0  0  0
 58 17  1  0  0  0  0
100 59  1  0  0  0  0
113101  2  0  0  0  0
126117  1  0  0  0  0
 10  5  2  0  0  0  0
 27 20  1  0  0  0  0
 35 28  1  0  0  0  0
 57 36  2  0  0  0  0
 69 62  1  0  0  0  0
 77 70  1  0  0  0  0
 99 78  2  0  0  0  0
110102  1  0  0  0  0
125120  2  0  0  0  0
 48 41  1  0  0  0  0
 56 49  1  0  0  0  0
 90 83  1  0  0  0  0
 98 91  1  0  0  0  0
  1132  1  0  0  0  0
  9133  1  0  0  0  0
 21134  1  0  0  0  0
 22135  1  0  0  0  0
 25136  1  0  0  0  0
 25137  1  0  0  0  0
 25138  1  0  0  0  0
 26139  1  0  0  0  0
 27140  1  0  0  0  0
 29141  1  0  0  0  0
 30142  1  0  0  0  0
 33143  1  0  0  0  0
 33144  1  0  0  0  0
 33145  1  0  0  0  0
 34146  1  0  0  0  0
 35147  1  0  0  0  0
 42148  1  0  0  0  0
 43149  1  0  0  0  0
 46150  1  0  0  0  0
 46151  1  0  0  0  0
 46152  1  0  0  0  0
 47153  1  0  0  0  0
 48154  1  0  0  0  0
 50155  1  0  0  0  0
 51156  1  0  0  0  0
 54157  1  0  0  0  0
 54158  1  0  0  0  0
 54159  1  0  0  0  0
 55160  1  0  0  0  0
 56161  1  0  0  0  0
 63162  1  0  0  0  0
 64163  1  0  0  0  0
 67164  1  0  0  0  0
 67165  1  0  0  0  0
 67166  1  0  0  0  0
 68167  1  0  0  0  0
 69168  1  0  0  0  0
 71169  1  0  0  0  0
 72170  1  0  0  0  0
 75171  1  0  0  0  0
 75172  1  0  0  0  0
 75173  1  0  0  0  0
 76174  1  0  0  0  0
 77175  1  0  0  0  0
 84176  1  0  0  0  0
 85177  1  0  0  0  0
 88178  1  0  0  0  0
 88179  1  0  0  0  0
 88180  1  0  0  0  0
 89181  1  0  0  0  0
 90182  1  0  0  0  0
 92183  1  0  0  0  0
 93184  1  0  0  0  0
 96185  1  0  0  0  0
 96186  1  0  0  0  0
 96187  1  0  0  0  0
 97188  1  0  0  0  0
 98189  1  0  0  0  0
104190  1  0  0  0  0
107191  1  0  0  0  0
107192  1  0  0  0  0
108193  1  0  0  0  0
108194  1  0  0  0  0
108195  1  0  0  0  0
116196  1  0  0  0  0
124197  1  0  0  0  0
M  END
