
  xtb     02052210203D
 energy: -339.384545150900 gnorm: 0.001049380068 xtb: 6.4.1 (unknown)
188206  0     0  0            999 V2000
   -0.9924   -3.2715   -9.0949 C   0  0  0  0  0  0  0  0  0  0  0  0
   -0.4307   -4.3459   -9.7310 C   0  0  0  0  0  0  0  0  0  0  0  0
    0.4123   -5.4172   -9.1457 C   0  0  0  0  0  0  0  0  0  0  0  0
    0.8427   -5.5276   -8.0174 O   0  0  0  0  0  0  0  0  0  0  0  0
    0.7065   -6.2968  -10.2800 C   0  0  0  0  0  0  0  0  0  0  0  0
    1.5830   -7.7457  -10.5029 S   0  0  0  0  0  0  0  0  0  0  0  0
    1.2134   -7.6835  -12.2035 C   0  0  0  0  0  0  0  0  0  0  0  0
    1.8355   -9.0368  -13.3393 Br  0  0  0  0  0  0  0  0  0  0  0  0
    0.4650   -6.6032  -12.5780 C   0  0  0  0  0  0  0  0  0  0  0  0
    0.1762   -5.7998  -11.4588 C   0  0  0  0  0  0  0  0  0  0  0  0
   -0.5233   -4.5610  -11.1666 C   0  0  0  0  0  0  0  0  0  0  0  0
   -1.1349   -3.7875  -12.1185 C   0  0  0  0  0  0  0  0  0  0  0  0
   -1.1303   -4.1567  -13.4807 C   0  0  0  0  0  0  0  0  0  0  0  0
   -1.1408   -4.4328  -14.5946 N   0  0  0  0  0  0  0  0  0  0  0  0
   -1.8104   -2.5669  -11.9173 C   0  0  0  0  0  0  0  0  0  0  0  0
   -2.3717   -1.5660  -11.8651 N   0  0  0  0  0  0  0  0  0  0  0  0
   -1.0669   -2.9462   -7.7224 C   0  0  0  0  0  0  0  0  0  0  0  0
   -1.2797   -1.5885   -7.3683 C   0  0  0  0  0  0  0  0  0  0  0  0
   -1.2197   -1.1088   -6.0060 C   0  0  0  0  0  0  0  0  0  0  0  0
   -1.4064    0.2096   -5.9298 N   0  0  0  0  0  0  0  0  0  0  0  0
   -1.6399    0.7886   -7.4145 S   0  0  0  0  0  4  0  0  0  0  0  0
   -1.4864   -0.5909   -8.2261 N   0  0  0  0  0  0  0  0  0  0  0  0
   -0.8519   -1.9541   -4.9391 C   0  0  0  0  0  0  0  0  0  0  0  0
   -0.8018   -3.3261   -5.2631 C   0  0  0  0  0  0  0  0  0  0  0  0
   -0.7101   -4.3214   -4.3781 N   0  0  0  0  0  0  0  0  0  0  0  0
   -0.8806   -5.7187   -5.1535 S   0  0  0  0  0  0  0  0  0  0  0  0
   -1.0713   -5.1447   -6.6376 N   0  0  0  0  0  0  0  0  0  0  0  0
   -0.9766   -3.8182   -6.6132 C   0  0  0  0  0  0  0  0  0  0  0  0
   -0.5455   -1.4452   -3.6514 C   0  0  0  0  0  0  0  0  0  0  0  0
    0.4564   -1.8818   -2.7756 C   0  0  0  0  0  0  0  0  0  0  0  0
    1.4669   -2.7536   -3.1253 N   0  0  0  0  0  0  0  0  0  0  0  0
    1.9118   -2.7859   -4.4569 C   0  0  0  0  0  0  0  0  0  0  0  0
    1.9828   -1.6041   -5.1956 C   0  0  0  0  0  0  0  0  0  0  0  0
    2.2576   -1.6285   -6.5466 C   0  0  0  0  0  0  0  0  0  0  0  0
    2.5137   -2.8378   -7.1836 C   0  0  0  0  0  0  0  0  0  0  0  0
    2.7922   -2.9818   -8.9183 S   0  0  0  0  0  0  0  0  0  0  0  0
    2.0654   -1.4577   -9.5908 C   0  0  0  0  0  0  0  0  0  0  0  0
    2.5691   -4.0048   -6.4262 C   0  0  0  0  0  0  0  0  0  0  0  0
    2.2496   -3.9841   -5.0862 C   0  0  0  0  0  0  0  0  0  0  0  0
    1.9178   -3.6996   -2.1998 C   0  0  0  0  0  0  0  0  0  0  0  0
    3.2307   -4.1651   -2.2432 C   0  0  0  0  0  0  0  0  0  0  0  0
    3.6531   -5.1672   -1.3933 C   0  0  0  0  0  0  0  0  0  0  0  0
    2.7760   -5.7012   -0.4576 C   0  0  0  0  0  0  0  0  0  0  0  0
    3.1829   -7.0081    0.6504 S   0  0  0  0  0  0  0  0  0  0  0  0
    4.8568   -7.5055    0.1619 C   0  0  0  0  0  0  0  0  0  0  0  0
    1.4772   -5.2005   -0.3759 C   0  0  0  0  0  0  0  0  0  0  0  0
    1.0479   -4.2213   -1.2408 C   0  0  0  0  0  0  0  0  0  0  0  0
    0.3855   -1.1756   -1.5530 C   0  0  0  0  0  0  0  0  0  0  0  0
    1.2659   -1.2173   -0.0556 S   0  0  0  0  0  0  0  0  0  0  0  0
    0.2952    0.1074    0.5792 C   0  0  0  0  0  0  0  0  0  0  0  0
   -0.6997    0.4922   -0.3133 C   0  0  0  0  0  0  0  0  0  0  0  0
   -1.7243    1.3723    0.0097 N   0  0  0  0  0  0  0  0  0  0  0  0
   -2.4287    1.1504    1.2041 C   0  0  0  0  0  0  0  0  0  0  0  0
   -2.5724   -0.1407    1.7127 C   0  0  0  0  0  0  0  0  0  0  0  0
   -3.2025   -0.3434    2.9199 C   0  0  0  0  0  0  0  0  0  0  0  0
   -3.6977    0.7348    3.6528 C   0  0  0  0  0  0  0  0  0  0  0  0
   -4.3950    0.3491    5.2283 S   0  0  0  0  0  0  0  0  0  0  0  0
   -5.1452    1.9048    5.7743 C   0  0  0  0  0  0  0  0  0  0  0  0
   -3.5916    2.0162    3.1303 C   0  0  0  0  0  0  0  0  0  0  0  0
   -2.9633    2.2171    1.9165 C   0  0  0  0  0  0  0  0  0  0  0  0
   -2.1494    2.2640   -0.9747 C   0  0  0  0  0  0  0  0  0  0  0  0
   -1.2039    2.7880   -1.8567 C   0  0  0  0  0  0  0  0  0  0  0  0
   -1.5933    3.5719   -2.9214 C   0  0  0  0  0  0  0  0  0  0  0  0
   -2.9376    3.8583   -3.1137 C   0  0  0  0  0  0  0  0  0  0  0  0
   -3.5009    4.8039   -4.5011 S   0  0  0  0  0  0  0  0  0  0  0  0
   -2.3542    4.2454   -5.8002 C   0  0  0  0  0  0  0  0  0  0  0  0
   -3.8766    3.4028   -2.1953 C   0  0  0  0  0  0  0  0  0  0  0  0
   -3.4907    2.6079   -1.1378 C   0  0  0  0  0  0  0  0  0  0  0  0
   -0.6145   -0.2127   -1.5288 C   0  0  0  0  0  0  0  0  0  0  0  0
   -1.4676   -0.0959   -3.0253 S   0  0  0  0  0  0  0  0  0  0  0  0
    0.5298    0.7982    1.8066 C   0  0  0  0  0  0  0  0  0  0  0  0
    0.8524    0.3525    3.0788 C   0  0  0  0  0  0  0  0  0  0  0  0
    1.1427   -0.9514    3.4558 N   0  0  0  0  0  0  0  0  0  0  0  0
    2.1878   -1.6387    2.8312 C   0  0  0  0  0  0  0  0  0  0  0  0
    3.2070   -0.9503    2.1754 C   0  0  0  0  0  0  0  0  0  0  0  0
    4.2500   -1.6329    1.5817 C   0  0  0  0  0  0  0  0  0  0  0  0
    4.2916   -3.0170    1.6365 C   0  0  0  0  0  0  0  0  0  0  0  0
    5.6153   -3.9558    0.9417 S   0  0  0  0  0  0  0  0  0  0  0  0
    6.2650   -2.8536   -0.3476 C   0  0  0  0  0  0  0  0  0  0  0  0
    3.2819   -3.7121    2.2977 C   0  0  0  0  0  0  0  0  0  0  0  0
    2.2382   -3.0326    2.8831 C   0  0  0  0  0  0  0  0  0  0  0  0
    0.7165   -1.3286    4.7457 C   0  0  0  0  0  0  0  0  0  0  0  0
    1.5922   -1.8966    5.6697 C   0  0  0  0  0  0  0  0  0  0  0  0
    1.1540   -2.1914    6.9416 C   0  0  0  0  0  0  0  0  0  0  0  0
   -0.1629   -1.9330    7.3166 C   0  0  0  0  0  0  0  0  0  0  0  0
   -0.6100   -2.3073    8.9825 S   0  0  0  0  0  0  0  0  0  0  0  0
   -2.4053   -2.5651    8.8856 C   0  0  0  0  0  0  0  0  0  0  0  0
   -1.0409   -1.3737    6.3969 C   0  0  0  0  0  0  0  0  0  0  0  0
   -0.5987   -1.0714    5.1245 C   0  0  0  0  0  0  0  0  0  0  0  0
    0.8617    1.4240    4.0035 C   0  0  0  0  0  0  0  0  0  0  0  0
    1.1453    1.5017    5.6984 S   0  0  0  0  0  0  0  0  0  0  0  0
    1.0681    3.2709    5.6553 C   0  0  0  0  0  0  0  0  0  0  0  0
    0.8615    3.7530    4.3516 C   0  0  0  0  0  0  0  0  0  0  0  0
    0.7959    5.0596    3.9622 N   0  0  0  0  0  0  0  0  0  0  0  0
   -0.0859    5.4009    2.9054 C   0  0  0  0  0  0  0  0  0  0  0  0
    0.4007    6.0008    1.7511 C   0  0  0  0  0  0  0  0  0  0  0  0
   -0.4568    6.3164    0.7144 C   0  0  0  0  0  0  0  0  0  0  0  0
   -1.8175    6.0621    0.8368 C   0  0  0  0  0  0  0  0  0  0  0  0
   -3.0110    6.3910   -0.4148 S   0  0  0  0  0  0  0  0  0  0  0  0
   -2.0280    6.9616   -1.8257 C   0  0  0  0  0  0  0  0  0  0  0  0
   -2.3069    5.5058    2.0195 C   0  0  0  0  0  0  0  0  0  0  0  0
   -1.4498    5.1559    3.0390 C   0  0  0  0  0  0  0  0  0  0  0  0
    1.5463    6.0729    4.5630 C   0  0  0  0  0  0  0  0  0  0  0  0
    1.0270    7.3649    4.6639 C   0  0  0  0  0  0  0  0  0  0  0  0
    1.7500    8.3537    5.2914 C   0  0  0  0  0  0  0  0  0  0  0  0
    3.0046    8.0799    5.8355 C   0  0  0  0  0  0  0  0  0  0  0  0
    3.8268    9.3954    6.6693 S   0  0  0  0  0  0  0  0  0  0  0  0
    5.0199    8.5247    7.7272 C   0  0  0  0  0  0  0  0  0  0  0  0
    3.5483    6.8098    5.6879 C   0  0  0  0  0  0  0  0  0  0  0  0
    2.8267    5.8187    5.0533 C   0  0  0  0  0  0  0  0  0  0  0  0
    0.6662    2.6766    3.4511 C   0  0  0  0  0  0  0  0  0  0  0  0
    0.3549    2.5586    1.7561 S   0  0  0  0  0  0  0  0  0  0  0  0
    1.2182    3.9545    6.8725 C   0  0  0  0  0  0  0  0  0  0  0  0
    0.8861    3.4522    8.1047 C   0  0  0  0  0  0  0  0  0  0  0  0
    1.5539    3.9521    9.3350 C   0  0  0  0  0  0  0  0  0  0  0  0
    2.2949    4.9062    9.4287 O   0  0  0  0  0  0  0  0  0  0  0  0
    1.1407    2.9930   10.3639 C   0  0  0  0  0  0  0  0  0  0  0  0
    1.5106    2.6988   12.0086 S   0  0  0  0  0  0  0  0  0  0  0  0
    0.4348    1.3304   11.9906 C   0  0  0  0  0  0  0  0  0  0  0  0
    0.2129    0.3015   13.5378 Br  0  0  0  0  0  0  0  0  0  0  0  0
   -0.1858    1.1167   10.7903 C   0  0  0  0  0  0  0  0  0  0  0  0
    0.2293    2.0771    9.8550 C   0  0  0  0  0  0  0  0  0  0  0  0
   -0.0467    2.4159    8.4705 C   0  0  0  0  0  0  0  0  0  0  0  0
   -1.1721    2.0254    7.7851 C   0  0  0  0  0  0  0  0  0  0  0  0
   -2.1484    1.1859    8.3483 C   0  0  0  0  0  0  0  0  0  0  0  0
   -2.9932    0.5443    8.7888 N   0  0  0  0  0  0  0  0  0  0  0  0
   -1.5554    2.5565    6.5434 C   0  0  0  0  0  0  0  0  0  0  0  0
   -1.9462    3.0121    5.5628 N   0  0  0  0  0  0  0  0  0  0  0  0
   -1.4095   -2.4953   -9.7272 H   0  0  0  0  0  0  0  0  0  0  0  0
    0.1543   -6.4167  -13.5892 H   0  0  0  0  0  0  0  0  0  0  0  0
    1.7891   -0.6575   -4.7120 H   0  0  0  0  0  0  0  0  0  0  0  0
    2.2749   -0.6991   -7.0939 H   0  0  0  0  0  0  0  0  0  0  0  0
    2.6916   -0.6016   -9.3568 H   0  0  0  0  0  0  0  0  0  0  0  0
    1.0580   -1.3309   -9.2051 H   0  0  0  0  0  0  0  0  0  0  0  0
    2.0318   -1.5981  -10.6669 H   0  0  0  0  0  0  0  0  0  0  0  0
    2.8103   -4.9366   -6.9094 H   0  0  0  0  0  0  0  0  0  0  0  0
    2.2230   -4.9083   -4.5294 H   0  0  0  0  0  0  0  0  0  0  0  0
    3.9201   -3.7509   -2.9646 H   0  0  0  0  0  0  0  0  0  0  0  0
    4.6679   -5.5212   -1.4674 H   0  0  0  0  0  0  0  0  0  0  0  0
    4.8614   -7.8052   -0.8818 H   0  0  0  0  0  0  0  0  0  0  0  0
    5.1024   -8.3553    0.7911 H   0  0  0  0  0  0  0  0  0  0  0  0
    5.5515   -6.6924    0.3510 H   0  0  0  0  0  0  0  0  0  0  0  0
    0.8017   -5.6144    0.3566 H   0  0  0  0  0  0  0  0  0  0  0  0
    0.0240   -3.8832   -1.2101 H   0  0  0  0  0  0  0  0  0  0  0  0
   -2.1928   -0.9867    1.1592 H   0  0  0  0  0  0  0  0  0  0  0  0
   -3.3251   -1.3434    3.3084 H   0  0  0  0  0  0  0  0  0  0  0  0
   -4.3772    2.6638    5.8903 H   0  0  0  0  0  0  0  0  0  0  0  0
   -5.5980    1.6874    6.7369 H   0  0  0  0  0  0  0  0  0  0  0  0
   -5.9060    2.2136    5.0632 H   0  0  0  0  0  0  0  0  0  0  0  0
   -3.9743    2.8685    3.6653 H   0  0  0  0  0  0  0  0  0  0  0  0
   -2.8623    3.2132    1.5179 H   0  0  0  0  0  0  0  0  0  0  0  0
   -0.1571    2.5690   -1.7038 H   0  0  0  0  0  0  0  0  0  0  0  0
   -0.8460    3.9511   -3.6015 H   0  0  0  0  0  0  0  0  0  0  0  0
   -2.8500    4.4384   -6.7463 H   0  0  0  0  0  0  0  0  0  0  0  0
   -2.1746    3.1811   -5.6787 H   0  0  0  0  0  0  0  0  0  0  0  0
   -1.4249    4.8063   -5.7547 H   0  0  0  0  0  0  0  0  0  0  0  0
   -4.9158    3.6555   -2.3353 H   0  0  0  0  0  0  0  0  0  0  0  0
   -4.2313    2.2214   -0.4550 H   0  0  0  0  0  0  0  0  0  0  0  0
    3.1971    0.1293    2.1479 H   0  0  0  0  0  0  0  0  0  0  0  0
    5.0316   -1.0701    1.0968 H   0  0  0  0  0  0  0  0  0  0  0  0
    5.4346   -2.4539   -0.9220 H   0  0  0  0  0  0  0  0  0  0  0  0
    6.8592   -2.0598    0.0958 H   0  0  0  0  0  0  0  0  0  0  0  0
    6.8973   -3.4686   -0.9804 H   0  0  0  0  0  0  0  0  0  0  0  0
    3.3235   -4.7885    2.3473 H   0  0  0  0  0  0  0  0  0  0  0  0
    1.4540   -3.5746    3.3886 H   0  0  0  0  0  0  0  0  0  0  0  0
    2.6171   -2.0910    5.3914 H   0  0  0  0  0  0  0  0  0  0  0  0
    1.8311   -2.6186    7.6650 H   0  0  0  0  0  0  0  0  0  0  0  0
   -2.6808   -3.0611    9.8112 H   0  0  0  0  0  0  0  0  0  0  0  0
   -2.9188   -1.6098    8.8093 H   0  0  0  0  0  0  0  0  0  0  0  0
   -2.6272   -3.2044    8.0371 H   0  0  0  0  0  0  0  0  0  0  0  0
   -2.0648   -1.1594    6.6587 H   0  0  0  0  0  0  0  0  0  0  0  0
   -1.2757   -0.6165    4.4169 H   0  0  0  0  0  0  0  0  0  0  0  0
    1.4567    6.2099    1.6631 H   0  0  0  0  0  0  0  0  0  0  0  0
   -0.0534    6.7635   -0.1793 H   0  0  0  0  0  0  0  0  0  0  0  0
   -1.2853    6.2102   -2.0757 H   0  0  0  0  0  0  0  0  0  0  0  0
   -1.5703    7.9207   -1.6008 H   0  0  0  0  0  0  0  0  0  0  0  0
   -2.7327    7.0673   -2.6451 H   0  0  0  0  0  0  0  0  0  0  0  0
   -3.3719    5.3620    2.1234 H   0  0  0  0  0  0  0  0  0  0  0  0
   -1.8203    4.6926    3.9405 H   0  0  0  0  0  0  0  0  0  0  0  0
    0.0455    7.5777    4.2685 H   0  0  0  0  0  0  0  0  0  0  0  0
    1.3429    9.3480    5.3886 H   0  0  0  0  0  0  0  0  0  0  0  0
    4.5152    7.7179    8.2501 H   0  0  0  0  0  0  0  0  0  0  0  0
    5.8534    8.1555    7.1366 H   0  0  0  0  0  0  0  0  0  0  0  0
    5.3761    9.2636    8.4382 H   0  0  0  0  0  0  0  0  0  0  0  0
    4.5326    6.5803    6.0622 H   0  0  0  0  0  0  0  0  0  0  0  0
    3.2598    4.8366    4.9313 H   0  0  0  0  0  0  0  0  0  0  0  0
    1.7102    4.9208    6.8711 H   0  0  0  0  0  0  0  0  0  0  0  0
   -0.8670    0.3068   10.6048 H   0  0  0  0  0  0  0  0  0  0  0  0
  1  2  2  0  0  0  0
  2  3  1  0  0  0  0
  3  4  2  0  0  0  0
  3  5  1  0  0  0  0
  5  6  1  0  0  0  0
  6  7  1  0  0  0  0
  7  8  1  0  0  0  0
  7  9  2  0  0  0  0
  9 10  1  0  0  0  0
 10 11  1  0  0  0  0
 11 12  2  0  0  0  0
 12 13  1  0  0  0  0
 13 14  3  0  0  0  0
 12 15  1  0  0  0  0
 15 16  3  0  0  0  0
  1 17  1  0  0  0  0
 17 18  2  0  0  0  0
 18 19  1  0  0  0  0
 19 20  1  0  0  0  0
 20 21  2  0  0  0  0
 21 22  2  0  0  0  0
 19 23  2  0  0  0  0
 23 24  1  0  0  0  0
 24 25  2  0  0  0  0
 25 26  1  0  0  0  0
 26 27  1  0  0  0  0
 27 28  2  0  0  0  0
 23 29  1  0  0  0  0
 29 30  2  0  0  0  0
 30 31  1  0  0  0  0
 31 32  1  0  0  0  0
 32 33  2  0  0  0  0
 33 34  1  0  0  0  0
 34 35  2  0  0  0  0
 35 36  1  0  0  0  0
 36 37  1  0  0  0  0
 35 38  1  0  0  0  0
 38 39  2  0  0  0  0
 31 40  1  0  0  0  0
 40 41  2  0  0  0  0
 41 42  1  0  0  0  0
 42 43  2  0  0  0  0
 43 44  1  0  0  0  0
 44 45  1  0  0  0  0
 43 46  1  0  0  0  0
 46 47  2  0  0  0  0
 30 48  1  0  0  0  0
 48 49  1  0  0  0  0
 49 50  1  0  0  0  0
 50 51  2  0  0  0  0
 51 52  1  0  0  0  0
 52 53  1  0  0  0  0
 53 54  2  0  0  0  0
 54 55  1  0  0  0  0
 55 56  2  0  0  0  0
 56 57  1  0  0  0  0
 57 58  1  0  0  0  0
 56 59  1  0  0  0  0
 59 60  2  0  0  0  0
 52 61  1  0  0  0  0
 61 62  2  0  0  0  0
 62 63  1  0  0  0  0
 63 64  2  0  0  0  0
 64 65  1  0  0  0  0
 65 66  1  0  0  0  0
 64 67  1  0  0  0  0
 67 68  2  0  0  0  0
 51 69  1  0  0  0  0
 69 70  1  0  0  0  0
 50 71  1  0  0  0  0
 71 72  2  0  0  0  0
 72 73  1  0  0  0  0
 73 74  1  0  0  0  0
 74 75  2  0  0  0  0
 75 76  1  0  0  0  0
 76 77  2  0  0  0  0
 77 78  1  0  0  0  0
 78 79  1  0  0  0  0
 77 80  1  0  0  0  0
 80 81  2  0  0  0  0
 73 82  1  0  0  0  0
 82 83  2  0  0  0  0
 83 84  1  0  0  0  0
 84 85  2  0  0  0  0
 85 86  1  0  0  0  0
 86 87  1  0  0  0  0
 85 88  1  0  0  0  0
 88 89  2  0  0  0  0
 72 90  1  0  0  0  0
 90 91  1  0  0  0  0
 91 92  1  0  0  0  0
 92 93  2  0  0  0  0
 93 94  1  0  0  0  0
 94 95  1  0  0  0  0
 95 96  2  0  0  0  0
 96 97  1  0  0  0  0
 97 98  2  0  0  0  0
 98 99  1  0  0  0  0
 99100  1  0  0  0  0
 98101  1  0  0  0  0
101102  2  0  0  0  0
 94103  1  0  0  0  0
103104  2  0  0  0  0
104105  1  0  0  0  0
105106  2  0  0  0  0
106107  1  0  0  0  0
107108  1  0  0  0  0
106109  1  0  0  0  0
109110  2  0  0  0  0
 93111  1  0  0  0  0
111112  1  0  0  0  0
 92113  1  0  0  0  0
113114  2  0  0  0  0
114115  1  0  0  0  0
115116  2  0  0  0  0
115117  1  0  0  0  0
117118  1  0  0  0  0
118119  1  0  0  0  0
119120  1  0  0  0  0
119121  2  0  0  0  0
121122  1  0  0  0  0
122123  1  0  0  0  0
123124  2  0  0  0  0
124125  1  0  0  0  0
125126  3  0  0  0  0
124127  1  0  0  0  0
127128  3  0  0  0  0
 11  2  1  0  0  0  0
 28 17  1  0  0  0  0
 70 29  1  0  0  0  0
112 71  1  0  0  0  0
123114  1  0  0  0  0
 10  5  2  0  0  0  0
 22 18  1  0  0  0  0
 28 24  1  0  0  0  0
 39 32  1  0  0  0  0
 47 40  1  0  0  0  0
 69 48  2  0  0  0  0
 81 74  1  0  0  0  0
 89 82  1  0  0  0  0
111 90  2  0  0  0  0
122117  2  0  0  0  0
 60 53  1  0  0  0  0
 68 61  1  0  0  0  0
102 95  1  0  0  0  0
110103  1  0  0  0  0
  1129  1  0  0  0  0
  9130  1  0  0  0  0
 33131  1  0  0  0  0
 34132  1  0  0  0  0
 37133  1  0  0  0  0
 37134  1  0  0  0  0
 37135  1  0  0  0  0
 38136  1  0  0  0  0
 39137  1  0  0  0  0
 41138  1  0  0  0  0
 42139  1  0  0  0  0
 45140  1  0  0  0  0
 45141  1  0  0  0  0
 45142  1  0  0  0  0
 46143  1  0  0  0  0
 47144  1  0  0  0  0
 54145  1  0  0  0  0
 55146  1  0  0  0  0
 58147  1  0  0  0  0
 58148  1  0  0  0  0
 58149  1  0  0  0  0
 59150  1  0  0  0  0
 60151  1  0  0  0  0
 62152  1  0  0  0  0
 63153  1  0  0  0  0
 66154  1  0  0  0  0
 66155  1  0  0  0  0
 66156  1  0  0  0  0
 67157  1  0  0  0  0
 68158  1  0  0  0  0
 75159  1  0  0  0  0
 76160  1  0  0  0  0
 79161  1  0  0  0  0
 79162  1  0  0  0  0
 79163  1  0  0  0  0
 80164  1  0  0  0  0
 81165  1  0  0  0  0
 83166  1  0  0  0  0
 84167  1  0  0  0  0
 87168  1  0  0  0  0
 87169  1  0  0  0  0
 87170  1  0  0  0  0
 88171  1  0  0  0  0
 89172  1  0  0  0  0
 96173  1  0  0  0  0
 97174  1  0  0  0  0
100175  1  0  0  0  0
100176  1  0  0  0  0
100177  1  0  0  0  0
101178  1  0  0  0  0
102179  1  0  0  0  0
104180  1  0  0  0  0
105181  1  0  0  0  0
108182  1  0  0  0  0
108183  1  0  0  0  0
108184  1  0  0  0  0
109185  1  0  0  0  0
110186  1  0  0  0  0
113187  1  0  0  0  0
121188  1  0  0  0  0
M  END
