188

C         -0.99240       -3.27150       -9.09490
C         -0.43070       -4.34590       -9.73100
C          0.41230       -5.41720       -9.14570
O          0.84270       -5.52760       -8.01740
C          0.70650       -6.29680      -10.28000
S          1.58300       -7.74570      -10.50290
C          1.21340       -7.68350      -12.20350
Br         1.83550       -9.03680      -13.33930
C          0.46500       -6.60320      -12.57800
C          0.17620       -5.79980      -11.45880
C         -0.52330       -4.56100      -11.16660
C         -1.13490       -3.78750      -12.11850
C         -1.13030       -4.15670      -13.48070
N         -1.14080       -4.43280      -14.59460
C         -1.81040       -2.56690      -11.91730
N         -2.37170       -1.56600      -11.86510
C         -1.06690       -2.94620       -7.72240
C         -1.27970       -1.58850       -7.36830
C         -1.21970       -1.10880       -6.00600
N         -1.40640        0.20960       -5.92980
S         -1.63990        0.78860       -7.41450
N         -1.48640       -0.59090       -8.22610
C         -0.85190       -1.95410       -4.93910
C         -0.80180       -3.32610       -5.26310
N         -0.71010       -4.32140       -4.37810
S         -0.88060       -5.71870       -5.15350
N         -1.07130       -5.14470       -6.63760
C         -0.97660       -3.81820       -6.61320
C         -0.54550       -1.44520       -3.65140
C          0.45640       -1.88180       -2.77560
N          1.46690       -2.75360       -3.12530
C          1.91180       -2.78590       -4.45690
C          1.98280       -1.60410       -5.19560
C          2.25760       -1.62850       -6.54660
C          2.51370       -2.83780       -7.18360
S          2.79220       -2.98180       -8.91830
C          2.06540       -1.45770       -9.59080
C          2.56910       -4.00480       -6.42620
C          2.24960       -3.98410       -5.08620
C          1.91780       -3.69960       -2.19980
C          3.23070       -4.16510       -2.24320
C          3.65310       -5.16720       -1.39330
C          2.77600       -5.70120       -0.45760
S          3.18290       -7.00810        0.65040
C          4.85680       -7.50550        0.16190
C          1.47720       -5.20050       -0.37590
C          1.04790       -4.22130       -1.24080
C          0.38550       -1.17560       -1.55300
S          1.26590       -1.21730       -0.05560
C          0.29520        0.10740        0.57920
C         -0.69970        0.49220       -0.31330
N         -1.72430        1.37230        0.00970
C         -2.42870        1.15040        1.20410
C         -2.57240       -0.14070        1.71270
C         -3.20250       -0.34340        2.91990
C         -3.69770        0.73480        3.65280
S         -4.39500        0.34910        5.22830
C         -5.14520        1.90480        5.77430
C         -3.59160        2.01620        3.13030
C         -2.96330        2.21710        1.91650
C         -2.14940        2.26400       -0.97470
C         -1.20390        2.78800       -1.85670
C         -1.59330        3.57190       -2.92140
C         -2.93760        3.85830       -3.11370
S         -3.50090        4.80390       -4.50110
C         -2.35420        4.24540       -5.80020
C         -3.87660        3.40280       -2.19530
C         -3.49070        2.60790       -1.13780
C         -0.61450       -0.21270       -1.52880
S         -1.46760       -0.09590       -3.02530
C          0.52980        0.79820        1.80660
C          0.85240        0.35250        3.07880
N          1.14270       -0.95140        3.45580
C          2.18780       -1.63870        2.83120
C          3.20700       -0.95030        2.17540
C          4.25000       -1.63290        1.58170
C          4.29160       -3.01700        1.63650
S          5.61530       -3.95580        0.94170
C          6.26500       -2.85360       -0.34760
C          3.28190       -3.71210        2.29770
C          2.23820       -3.03260        2.88310
C          0.71650       -1.32860        4.74570
C          1.59220       -1.89660        5.66970
C          1.15400       -2.19140        6.94160
C         -0.16290       -1.93300        7.31660
S         -0.61000       -2.30730        8.98250
C         -2.40530       -2.56510        8.88560
C         -1.04090       -1.37370        6.39690
C         -0.59870       -1.07140        5.12450
C          0.86170        1.42400        4.00350
S          1.14530        1.50170        5.69840
C          1.06810        3.27090        5.65530
C          0.86150        3.75300        4.35160
N          0.79590        5.05960        3.96220
C         -0.08590        5.40090        2.90540
C          0.40070        6.00080        1.75110
C         -0.45680        6.31640        0.71440
C         -1.81750        6.06210        0.83680
S         -3.01100        6.39100       -0.41480
C         -2.02800        6.96160       -1.82570
C         -2.30690        5.50580        2.01950
C         -1.44980        5.15590        3.03900
C          1.54630        6.07290        4.56300
C          1.02700        7.36490        4.66390
C          1.75000        8.35370        5.29140
C          3.00460        8.07990        5.83550
S          3.82680        9.39540        6.66930
C          5.01990        8.52470        7.72720
C          3.54830        6.80980        5.68790
C          2.82670        5.81870        5.05330
C          0.66620        2.67660        3.45110
S          0.35490        2.55860        1.75610
C          1.21820        3.95450        6.87250
C          0.88610        3.45220        8.10470
C          1.55390        3.95210        9.33500
O          2.29490        4.90620        9.42870
C          1.14070        2.99300       10.36390
S          1.51060        2.69880       12.00860
C          0.43480        1.33040       11.99060
Br         0.21290        0.30150       13.53780
C         -0.18580        1.11670       10.79030
C          0.22930        2.07710        9.85500
C         -0.04670        2.41590        8.47050
C         -1.17210        2.02540        7.78510
C         -2.14840        1.18590        8.34830
N         -2.99320        0.54430        8.78880
C         -1.55540        2.55650        6.54340
N         -1.94620        3.01210        5.56280
H         -1.40950       -2.49530       -9.72720
H          0.15430       -6.41670      -13.58920
H          1.78910       -0.65750       -4.71200
H          2.27490       -0.69910       -7.09390
H          2.69160       -0.60160       -9.35680
H          1.05800       -1.33090       -9.20510
H          2.03180       -1.59810      -10.66690
H          2.81030       -4.93660       -6.90940
H          2.22300       -4.90830       -4.52940
H          3.92010       -3.75090       -2.96460
H          4.66790       -5.52120       -1.46740
H          4.86140       -7.80520       -0.88180
H          5.10240       -8.35530        0.79110
H          5.55150       -6.69240        0.35100
H          0.80170       -5.61440        0.35660
H          0.02400       -3.88320       -1.21010
H         -2.19280       -0.98670        1.15920
H         -3.32510       -1.34340        3.30840
H         -4.37720        2.66380        5.89030
H         -5.59800        1.68740        6.73690
H         -5.90600        2.21360        5.06320
H         -3.97430        2.86850        3.66530
H         -2.86230        3.21320        1.51790
H         -0.15710        2.56900       -1.70380
H         -0.84600        3.95110       -3.60150
H         -2.85000        4.43840       -6.74630
H         -2.17460        3.18110       -5.67870
H         -1.42490        4.80630       -5.75470
H         -4.91580        3.65550       -2.33530
H         -4.23130        2.22140       -0.45500
H          3.19710        0.12930        2.14790
H          5.03160       -1.07010        1.09680
H          5.43460       -2.45390       -0.92200
H          6.85920       -2.05980        0.09580
H          6.89730       -3.46860       -0.98040
H          3.32350       -4.78850        2.34730
H          1.45400       -3.57460        3.38860
H          2.61710       -2.09100        5.39140
H          1.83110       -2.61860        7.66500
H         -2.68080       -3.06110        9.81120
H         -2.91880       -1.60980        8.80930
H         -2.62720       -3.20440        8.03710
H         -2.06480       -1.15940        6.65870
H         -1.27570       -0.61650        4.41690
H          1.45670        6.20990        1.66310
H         -0.05340        6.76350       -0.17930
H         -1.28530        6.21020       -2.07570
H         -1.57030        7.92070       -1.60080
H         -2.73270        7.06730       -2.64510
H         -3.37190        5.36200        2.12340
H         -1.82030        4.69260        3.94050
H          0.04550        7.57770        4.26850
H          1.34290        9.34800        5.38860
H          4.51520        7.71790        8.25010
H          5.85340        8.15550        7.13660
H          5.37610        9.26360        8.43820
H          4.53260        6.58030        6.06220
H          3.25980        4.83660        4.93130
H          1.71020        4.92080        6.87110
H         -0.86700        0.30680       10.60480
