209

C         -7.86390        1.68830        9.02900
C         -7.48240        2.71190        9.85210
C         -8.51410        3.45520       10.62380
O         -9.67960        3.15760       10.76390
C         -7.79350        4.62970       11.11900
S         -8.19450        6.04710       11.98960
C         -6.52970        6.54590       11.90760
Br        -6.00840        8.17060       12.68020
C         -5.70800        5.66760       11.25640
C         -6.44500        4.56360       10.79590
C         -6.19030        3.30610       10.11010
C         -4.95670        2.70860       10.02860
C         -3.78780        3.38160       10.43560
N         -2.84030        3.93600       10.76980
C         -4.76450        1.36410        9.66070
N         -4.59130        0.25090        9.43420
C         -7.17310        1.16210        7.92360
C         -7.35080       -0.09880        7.33610
C         -8.35080       -1.06740        7.88540
C         -9.75280       -0.76820        7.34500
C         -6.50380       -0.28820        6.24740
C         -5.71520        0.84340        5.99010
S         -5.98050        2.13440        7.07060
C         -4.84050        0.58710        4.92290
C         -5.01520       -0.72910        4.50100
C         -6.08700       -1.42230        5.31570
C         -7.18260       -1.89550        4.33150
C         -8.12910       -2.99110        4.80690
C         -5.47670       -2.54600        6.18030
C         -4.69350       -3.59700        5.40340
C         -4.16210       -1.06470        3.45930
C         -3.30380       -0.02810        3.11840
S         -3.62570        1.42200        4.04560
C         -2.29040       -0.09340        2.12630
C         -1.11850        0.64260        1.96960
N         -0.60940        1.61040        2.81200
C         -0.71600        1.53410        4.20460
C         -0.79050        0.31060        4.86530
C         -0.97300        0.25660        6.23340
C         -1.06080        1.42990        6.97180
S         -1.31270        1.49980        8.71340
C         -1.44620       -0.23870        9.21220
C         -0.94170        2.65700        6.31800
C         -0.77530        2.71150        4.95440
C          0.22860        2.58410        2.23250
C          1.48070        2.86530        2.77750
C          2.34480        3.71140        2.11950
C          1.97840        4.28730        0.90480
S          3.19030        5.24700        0.05190
C          2.68860        5.06470       -1.68490
C          0.69880        4.08170        0.40610
C         -0.16910        3.23560        1.06700
C         -0.43220        0.23520        0.79590
S          1.04390        0.72020        0.04780
C          0.80490       -0.44980       -1.24930
C         -0.34870       -1.18660       -1.08640
N         -0.77200       -2.26780       -1.87050
C         -1.00880       -3.44500       -1.14180
C         -0.08690       -3.83040       -0.17090
C         -0.29500       -4.95630        0.60190
C         -1.43360       -5.72590        0.41230
S         -1.81980       -7.18040        1.33770
C         -0.43430       -7.34360        2.49940
C         -2.35670       -5.34820       -0.56120
C         -2.15360       -4.22160       -1.32500
C         -1.41030       -2.04610       -3.09710
C         -1.46860       -3.06530       -4.04380
C         -2.16100       -2.89420       -5.22570
C         -2.78570       -1.68400       -5.49470
S         -3.71290       -1.35010       -6.95680
C         -3.72900       -2.93050       -7.84680
C         -2.69230       -0.64690       -4.57010
C         -2.02050       -0.82640       -3.38220
C         -1.03620       -0.78880        0.09050
S         -2.48730       -1.31620        0.86240
C          1.88050       -0.47670       -2.20100
C          1.92230       -0.27780       -3.56100
N          0.82000       -0.00680       -4.40160
C          0.63400       -0.83690       -5.50260
C          1.20700       -2.10840       -5.52140
C          0.99330       -2.97140       -6.57710
C          0.21030       -2.57450       -7.64910
S         -0.14410       -3.62170       -9.03670
C          1.24220       -4.79390       -9.03550
C         -0.38120       -1.31590       -7.63230
C         -0.18860       -0.46460       -6.56750
C          0.61120        1.40070       -4.49310
C          0.06610        2.07270       -3.40390
C         -0.07470        3.44220       -3.43030
C          0.33360        4.17410       -4.54290
S          0.15580        5.92490       -4.44630
C          0.66010        6.51680       -6.08330
C          0.87070        3.50730       -5.63500
C          1.01990        2.13390       -5.60100
C          3.25730       -0.16120       -4.01740
S          3.95100        0.18760       -5.55570
C          5.56390        0.29560       -4.83470
C          5.54500       -0.01130       -3.46130
N          6.60470        0.03620       -2.59950
C          7.90350       -0.28720       -3.00620
C          8.99400        0.46120       -2.56200
C         10.25460        0.19920       -3.05060
C         10.45220       -0.80670       -3.99450
S         12.06810       -1.00860       -4.66800
C         11.69470       -1.57750       -6.35460
C          9.38170       -1.60660       -4.37720
C          8.11940       -1.35100       -3.88230
C          6.38540        0.51210       -1.28820
C          6.95500       -0.14500       -0.20480
C          6.72070        0.29790        1.08290
C          5.91020        1.40530        1.29980
S          5.51130        2.03840        2.89360
C          6.46260        0.99840        4.03830
C          5.35990        2.08090        0.21030
C          5.59690        1.64360       -1.07270
C          4.21790       -0.23360       -3.02450
S          3.48860       -0.52240       -1.48610
C          6.65060        0.67200       -5.63390
C          6.64280        1.46350       -6.75380
C          7.77540        1.36500       -7.70800
O          8.79770        0.72660       -7.56520
C          7.34040        2.17310       -8.84800
S          7.95270        2.55820      -10.39820
C          6.54570        3.53760      -10.69190
Br         6.35740        4.42880      -12.32850
C          5.65700        3.57370       -9.65190
C          6.11790        2.77870       -8.58990
C          5.70050        2.43760       -7.23720
C          4.75570        3.13840       -6.52440
C          4.53990        3.03700       -5.13780
N          4.35750        3.06080       -4.00290
C          3.97380        4.14690       -7.11400
N          3.30890        4.97170       -7.55910
H         -8.85870        1.30100        9.22050
H         -4.65380        5.82310       11.11980
H         -8.06030       -2.08130        7.61420
H         -8.35830       -1.00640        8.97450
H         -9.75480       -0.77210        6.25760
H        -10.45730       -1.51700        7.69900
H        -10.09610        0.20860        7.67580
H         -7.76480       -1.01650        4.04400
H         -6.67960       -2.25410        3.43110
H         -8.84710       -3.19860        4.01590
H         -8.68300       -2.69500        5.68980
H         -7.59500       -3.91250        5.02140
H         -4.81400       -2.07830        6.91270
H         -6.28030       -3.02990        6.73460
H         -3.77930       -3.17510        4.99510
H         -4.42090       -4.41150        6.07120
H         -5.27990       -4.00830        4.58650
H         -4.11670       -2.01720        2.96230
H         -0.71840       -0.60880        4.30250
H         -1.04680       -0.70730        6.71030
H         -1.56500       -0.21880       10.29100
H         -2.32760       -0.68370        8.75980
H         -0.53840       -0.77380        8.95000
H         -0.99990        3.56440        6.89860
H         -0.70780        3.66420        4.45190
H          1.78440        2.38820        3.69680
H          3.32680        3.90330        2.52230
H          3.55880        5.33190       -2.27590
H          1.86600        5.73330       -1.92200
H          2.42170        4.03010       -1.87770
H          0.37820        4.57260       -0.49830
H         -1.15850        3.05820        0.66990
H          0.80390       -3.23830       -0.01740
H          0.44110       -5.21900        1.34460
H         -0.65170       -8.22840        3.08960
H          0.49450       -7.48410        1.95430
H         -0.38640       -6.47210        3.14580
H         -3.24580       -5.94450       -0.69860
H         -2.89090       -3.92760       -2.05580
H         -0.98020       -4.00690       -3.84120
H         -2.19710       -3.70760       -5.93160
H         -4.17570       -3.69930       -7.22340
H         -4.34590       -2.76300       -8.72430
H         -2.72230       -3.19970       -8.15340
H         -3.17240        0.29520       -4.78620
H         -1.99100       -0.02700       -2.65790
H          1.81230       -2.43750       -4.68950
H          1.44000       -3.95290       -6.54760
H          2.17410       -4.24760       -8.92520
H          1.11960       -5.52570       -8.24190
H          1.21190       -5.29140       -9.99980
H         -1.00600       -1.01300       -8.45840
H         -0.68580        0.49220       -6.55860
H         -0.23870        1.51670       -2.53250
H         -0.50900        3.96170       -2.59030
H          1.69520        6.25310       -6.28020
H          0.55320        7.59670       -6.04730
H         -0.00090        6.10480       -6.84020
H          1.19440        4.04470       -6.51070
H          1.46760        1.62830       -6.44480
H          8.83660        1.27040       -1.86520
H         11.09660        0.79510       -2.73510
H         12.59810       -1.40700       -6.93150
H         10.87740       -0.98530       -6.75620
H         11.45600       -2.63720       -6.35620
H          9.52300       -2.42300       -5.06660
H          7.28490       -1.96610       -4.18690
H          7.57780       -1.01160       -0.37210
H          7.16910       -0.23670        1.90440
H          6.12370       -0.03170        3.97730
H          7.52350        1.08090        3.82150
H          6.25810        1.39410        5.02830
H          4.75370        2.95590        0.38330
H          5.17910        2.17680       -1.91380
H          7.62190        0.25380       -5.39560
H          4.73930        4.13200       -9.67210
