
  xtb     02092209063D
 energy: -355.101413143514 gnorm: 0.000437823082 xtb: 6.4.1 (unknown)
209227  0     0  0            999 V2000
   -7.8639    1.6883    9.0290 C   0  0  0  0  0  0  0  0  0  0  0  0
   -7.4824    2.7119    9.8521 C   0  0  0  0  0  0  0  0  0  0  0  0
   -8.5141    3.4552   10.6238 C   0  0  0  0  0  0  0  0  0  0  0  0
   -9.6796    3.1576   10.7639 O   0  0  0  0  0  0  0  0  0  0  0  0
   -7.7935    4.6297   11.1190 C   0  0  0  0  0  0  0  0  0  0  0  0
   -8.1945    6.0471   11.9896 S   0  0  0  0  0  0  0  0  0  0  0  0
   -6.5297    6.5459   11.9076 C   0  0  0  0  0  0  0  0  0  0  0  0
   -6.0084    8.1706   12.6802 Br  0  0  0  0  0  0  0  0  0  0  0  0
   -5.7080    5.6676   11.2564 C   0  0  0  0  0  0  0  0  0  0  0  0
   -6.4450    4.5636   10.7959 C   0  0  0  0  0  0  0  0  0  0  0  0
   -6.1903    3.3061   10.1101 C   0  0  0  0  0  0  0  0  0  0  0  0
   -4.9567    2.7086   10.0286 C   0  0  0  0  0  0  0  0  0  0  0  0
   -3.7878    3.3816   10.4356 C   0  0  0  0  0  0  0  0  0  0  0  0
   -2.8403    3.9360   10.7698 N   0  0  0  0  0  0  0  0  0  0  0  0
   -4.7645    1.3641    9.6607 C   0  0  0  0  0  0  0  0  0  0  0  0
   -4.5913    0.2509    9.4342 N   0  0  0  0  0  0  0  0  0  0  0  0
   -7.1731    1.1621    7.9236 C   0  0  0  0  0  0  0  0  0  0  0  0
   -7.3508   -0.0988    7.3361 C   0  0  0  0  0  0  0  0  0  0  0  0
   -8.3508   -1.0674    7.8854 C   0  0  0  0  0  0  0  0  0  0  0  0
   -9.7528   -0.7682    7.3450 C   0  0  0  0  0  0  0  0  0  0  0  0
   -6.5038   -0.2882    6.2474 C   0  0  0  0  0  0  0  0  0  0  0  0
   -5.7152    0.8434    5.9901 C   0  0  0  0  0  0  0  0  0  0  0  0
   -5.9805    2.1344    7.0706 S   0  0  0  0  0  0  0  0  0  0  0  0
   -4.8405    0.5871    4.9229 C   0  0  0  0  0  0  0  0  0  0  0  0
   -5.0152   -0.7291    4.5010 C   0  0  0  0  0  0  0  0  0  0  0  0
   -6.0870   -1.4223    5.3157 C   0  0  0  0  0  0  0  0  0  0  0  0
   -7.1826   -1.8955    4.3315 C   0  0  0  0  0  0  0  0  0  0  0  0
   -8.1291   -2.9911    4.8069 C   0  0  0  0  0  0  0  0  0  0  0  0
   -5.4767   -2.5460    6.1803 C   0  0  0  0  0  0  0  0  0  0  0  0
   -4.6935   -3.5970    5.4034 C   0  0  0  0  0  0  0  0  0  0  0  0
   -4.1621   -1.0647    3.4593 C   0  0  0  0  0  0  0  0  0  0  0  0
   -3.3038   -0.0281    3.1184 C   0  0  0  0  0  0  0  0  0  0  0  0
   -3.6257    1.4220    4.0456 S   0  0  0  0  0  0  0  0  0  0  0  0
   -2.2904   -0.0934    2.1263 C   0  0  0  0  0  0  0  0  0  0  0  0
   -1.1185    0.6426    1.9696 C   0  0  0  0  0  0  0  0  0  0  0  0
   -0.6094    1.6104    2.8120 N   0  0  0  0  0  0  0  0  0  0  0  0
   -0.7160    1.5341    4.2046 C   0  0  0  0  0  0  0  0  0  0  0  0
   -0.7905    0.3106    4.8653 C   0  0  0  0  0  0  0  0  0  0  0  0
   -0.9730    0.2566    6.2334 C   0  0  0  0  0  0  0  0  0  0  0  0
   -1.0608    1.4299    6.9718 C   0  0  0  0  0  0  0  0  0  0  0  0
   -1.3127    1.4998    8.7134 S   0  0  0  0  0  0  0  0  0  0  0  0
   -1.4462   -0.2387    9.2122 C   0  0  0  0  0  0  0  0  0  0  0  0
   -0.9417    2.6570    6.3180 C   0  0  0  0  0  0  0  0  0  0  0  0
   -0.7753    2.7115    4.9544 C   0  0  0  0  0  0  0  0  0  0  0  0
    0.2286    2.5841    2.2325 C   0  0  0  0  0  0  0  0  0  0  0  0
    1.4807    2.8653    2.7775 C   0  0  0  0  0  0  0  0  0  0  0  0
    2.3448    3.7114    2.1195 C   0  0  0  0  0  0  0  0  0  0  0  0
    1.9784    4.2873    0.9048 C   0  0  0  0  0  0  0  0  0  0  0  0
    3.1903    5.2470    0.0519 S   0  0  0  0  0  0  0  0  0  0  0  0
    2.6886    5.0647   -1.6849 C   0  0  0  0  0  0  0  0  0  0  0  0
    0.6988    4.0817    0.4061 C   0  0  0  0  0  0  0  0  0  0  0  0
   -0.1691    3.2356    1.0670 C   0  0  0  0  0  0  0  0  0  0  0  0
   -0.4322    0.2352    0.7959 C   0  0  0  0  0  0  0  0  0  0  0  0
    1.0439    0.7202    0.0478 S   0  0  0  0  0  0  0  0  0  0  0  0
    0.8049   -0.4498   -1.2493 C   0  0  0  0  0  0  0  0  0  0  0  0
   -0.3487   -1.1866   -1.0864 C   0  0  0  0  0  0  0  0  0  0  0  0
   -0.7720   -2.2678   -1.8705 N   0  0  0  0  0  0  0  0  0  0  0  0
   -1.0088   -3.4450   -1.1418 C   0  0  0  0  0  0  0  0  0  0  0  0
   -0.0869   -3.8304   -0.1709 C   0  0  0  0  0  0  0  0  0  0  0  0
   -0.2950   -4.9563    0.6019 C   0  0  0  0  0  0  0  0  0  0  0  0
   -1.4336   -5.7259    0.4123 C   0  0  0  0  0  0  0  0  0  0  0  0
   -1.8198   -7.1804    1.3377 S   0  0  0  0  0  0  0  0  0  0  0  0
   -0.4343   -7.3436    2.4994 C   0  0  0  0  0  0  0  0  0  0  0  0
   -2.3567   -5.3482   -0.5612 C   0  0  0  0  0  0  0  0  0  0  0  0
   -2.1536   -4.2216   -1.3250 C   0  0  0  0  0  0  0  0  0  0  0  0
   -1.4103   -2.0461   -3.0971 C   0  0  0  0  0  0  0  0  0  0  0  0
   -1.4686   -3.0653   -4.0438 C   0  0  0  0  0  0  0  0  0  0  0  0
   -2.1610   -2.8942   -5.2257 C   0  0  0  0  0  0  0  0  0  0  0  0
   -2.7857   -1.6840   -5.4947 C   0  0  0  0  0  0  0  0  0  0  0  0
   -3.7129   -1.3501   -6.9568 S   0  0  0  0  0  0  0  0  0  0  0  0
   -3.7290   -2.9305   -7.8468 C   0  0  0  0  0  0  0  0  0  0  0  0
   -2.6923   -0.6469   -4.5701 C   0  0  0  0  0  0  0  0  0  0  0  0
   -2.0205   -0.8264   -3.3822 C   0  0  0  0  0  0  0  0  0  0  0  0
   -1.0362   -0.7888    0.0905 C   0  0  0  0  0  0  0  0  0  0  0  0
   -2.4873   -1.3162    0.8624 S   0  0  0  0  0  0  0  0  0  0  0  0
    1.8805   -0.4767   -2.2010 C   0  0  0  0  0  0  0  0  0  0  0  0
    1.9223   -0.2778   -3.5610 C   0  0  0  0  0  0  0  0  0  0  0  0
    0.8200   -0.0068   -4.4016 N   0  0  0  0  0  0  0  0  0  0  0  0
    0.6340   -0.8369   -5.5026 C   0  0  0  0  0  0  0  0  0  0  0  0
    1.2070   -2.1084   -5.5214 C   0  0  0  0  0  0  0  0  0  0  0  0
    0.9933   -2.9714   -6.5771 C   0  0  0  0  0  0  0  0  0  0  0  0
    0.2103   -2.5745   -7.6491 C   0  0  0  0  0  0  0  0  0  0  0  0
   -0.1441   -3.6217   -9.0367 S   0  0  0  0  0  0  0  0  0  0  0  0
    1.2422   -4.7939   -9.0355 C   0  0  0  0  0  0  0  0  0  0  0  0
   -0.3812   -1.3159   -7.6323 C   0  0  0  0  0  0  0  0  0  0  0  0
   -0.1886   -0.4646   -6.5675 C   0  0  0  0  0  0  0  0  0  0  0  0
    0.6112    1.4007   -4.4931 C   0  0  0  0  0  0  0  0  0  0  0  0
    0.0661    2.0727   -3.4039 C   0  0  0  0  0  0  0  0  0  0  0  0
   -0.0747    3.4422   -3.4303 C   0  0  0  0  0  0  0  0  0  0  0  0
    0.3336    4.1741   -4.5429 C   0  0  0  0  0  0  0  0  0  0  0  0
    0.1558    5.9249   -4.4463 S   0  0  0  0  0  0  0  0  0  0  0  0
    0.6601    6.5168   -6.0833 C   0  0  0  0  0  0  0  0  0  0  0  0
    0.8707    3.5073   -5.6350 C   0  0  0  0  0  0  0  0  0  0  0  0
    1.0199    2.1339   -5.6010 C   0  0  0  0  0  0  0  0  0  0  0  0
    3.2573   -0.1612   -4.0174 C   0  0  0  0  0  0  0  0  0  0  0  0
    3.9510    0.1876   -5.5557 S   0  0  0  0  0  0  0  0  0  0  0  0
    5.5639    0.2956   -4.8347 C   0  0  0  0  0  0  0  0  0  0  0  0
    5.5450   -0.0113   -3.4613 C   0  0  0  0  0  0  0  0  0  0  0  0
    6.6047    0.0362   -2.5995 N   0  0  0  0  0  0  0  0  0  0  0  0
    7.9035   -0.2872   -3.0062 C   0  0  0  0  0  0  0  0  0  0  0  0
    8.9940    0.4612   -2.5620 C   0  0  0  0  0  0  0  0  0  0  0  0
   10.2546    0.1992   -3.0506 C   0  0  0  0  0  0  0  0  0  0  0  0
   10.4522   -0.8067   -3.9945 C   0  0  0  0  0  0  0  0  0  0  0  0
   12.0681   -1.0086   -4.6680 S   0  0  0  0  0  0  0  0  0  0  0  0
   11.6947   -1.5775   -6.3546 C   0  0  0  0  0  0  0  0  0  0  0  0
    9.3817   -1.6066   -4.3772 C   0  0  0  0  0  0  0  0  0  0  0  0
    8.1194   -1.3510   -3.8823 C   0  0  0  0  0  0  0  0  0  0  0  0
    6.3854    0.5121   -1.2882 C   0  0  0  0  0  0  0  0  0  0  0  0
    6.9550   -0.1450   -0.2048 C   0  0  0  0  0  0  0  0  0  0  0  0
    6.7207    0.2979    1.0829 C   0  0  0  0  0  0  0  0  0  0  0  0
    5.9102    1.4053    1.2998 C   0  0  0  0  0  0  0  0  0  0  0  0
    5.5113    2.0384    2.8936 S   0  0  0  0  0  0  0  0  0  0  0  0
    6.4626    0.9984    4.0383 C   0  0  0  0  0  0  0  0  0  0  0  0
    5.3599    2.0809    0.2103 C   0  0  0  0  0  0  0  0  0  0  0  0
    5.5969    1.6436   -1.0727 C   0  0  0  0  0  0  0  0  0  0  0  0
    4.2179   -0.2336   -3.0245 C   0  0  0  0  0  0  0  0  0  0  0  0
    3.4886   -0.5224   -1.4861 S   0  0  0  0  0  0  0  0  0  0  0  0
    6.6506    0.6720   -5.6339 C   0  0  0  0  0  0  0  0  0  0  0  0
    6.6428    1.4635   -6.7538 C   0  0  0  0  0  0  0  0  0  0  0  0
    7.7754    1.3650   -7.7080 C   0  0  0  0  0  0  0  0  0  0  0  0
    8.7977    0.7266   -7.5652 O   0  0  0  0  0  0  0  0  0  0  0  0
    7.3404    2.1731   -8.8480 C   0  0  0  0  0  0  0  0  0  0  0  0
    7.9527    2.5582  -10.3982 S   0  0  0  0  0  0  0  0  0  0  0  0
    6.5457    3.5376  -10.6919 C   0  0  0  0  0  0  0  0  0  0  0  0
    6.3574    4.4288  -12.3285 Br  0  0  0  0  0  0  0  0  0  0  0  0
    5.6570    3.5737   -9.6519 C   0  0  0  0  0  0  0  0  0  0  0  0
    6.1179    2.7787   -8.5899 C   0  0  0  0  0  0  0  0  0  0  0  0
    5.7005    2.4376   -7.2372 C   0  0  0  0  0  0  0  0  0  0  0  0
    4.7557    3.1384   -6.5244 C   0  0  0  0  0  0  0  0  0  0  0  0
    4.5399    3.0370   -5.1378 C   0  0  0  0  0  0  0  0  0  0  0  0
    4.3575    3.0608   -4.0029 N   0  0  0  0  0  0  0  0  0  0  0  0
    3.9738    4.1469   -7.1140 C   0  0  0  0  0  0  0  0  0  0  0  0
    3.3089    4.9717   -7.5591 N   0  0  0  0  0  0  0  0  0  0  0  0
   -8.8587    1.3010    9.2205 H   0  0  0  0  0  0  0  0  0  0  0  0
   -4.6538    5.8231   11.1198 H   0  0  0  0  0  0  0  0  0  0  0  0
   -8.0603   -2.0813    7.6142 H   0  0  0  0  0  0  0  0  0  0  0  0
   -8.3583   -1.0064    8.9745 H   0  0  0  0  0  0  0  0  0  0  0  0
   -9.7548   -0.7721    6.2576 H   0  0  0  0  0  0  0  0  0  0  0  0
  -10.4573   -1.5170    7.6990 H   0  0  0  0  0  0  0  0  0  0  0  0
  -10.0961    0.2086    7.6758 H   0  0  0  0  0  0  0  0  0  0  0  0
   -7.7648   -1.0165    4.0440 H   0  0  0  0  0  0  0  0  0  0  0  0
   -6.6796   -2.2541    3.4311 H   0  0  0  0  0  0  0  0  0  0  0  0
   -8.8471   -3.1986    4.0159 H   0  0  0  0  0  0  0  0  0  0  0  0
   -8.6830   -2.6950    5.6898 H   0  0  0  0  0  0  0  0  0  0  0  0
   -7.5950   -3.9125    5.0214 H   0  0  0  0  0  0  0  0  0  0  0  0
   -4.8140   -2.0783    6.9127 H   0  0  0  0  0  0  0  0  0  0  0  0
   -6.2803   -3.0299    6.7346 H   0  0  0  0  0  0  0  0  0  0  0  0
   -3.7793   -3.1751    4.9951 H   0  0  0  0  0  0  0  0  0  0  0  0
   -4.4209   -4.4115    6.0712 H   0  0  0  0  0  0  0  0  0  0  0  0
   -5.2799   -4.0083    4.5865 H   0  0  0  0  0  0  0  0  0  0  0  0
   -4.1167   -2.0172    2.9623 H   0  0  0  0  0  0  0  0  0  0  0  0
   -0.7184   -0.6088    4.3025 H   0  0  0  0  0  0  0  0  0  0  0  0
   -1.0468   -0.7073    6.7103 H   0  0  0  0  0  0  0  0  0  0  0  0
   -1.5650   -0.2188   10.2910 H   0  0  0  0  0  0  0  0  0  0  0  0
   -2.3276   -0.6837    8.7598 H   0  0  0  0  0  0  0  0  0  0  0  0
   -0.5384   -0.7738    8.9500 H   0  0  0  0  0  0  0  0  0  0  0  0
   -0.9999    3.5644    6.8986 H   0  0  0  0  0  0  0  0  0  0  0  0
   -0.7078    3.6642    4.4519 H   0  0  0  0  0  0  0  0  0  0  0  0
    1.7844    2.3882    3.6968 H   0  0  0  0  0  0  0  0  0  0  0  0
    3.3268    3.9033    2.5223 H   0  0  0  0  0  0  0  0  0  0  0  0
    3.5588    5.3319   -2.2759 H   0  0  0  0  0  0  0  0  0  0  0  0
    1.8660    5.7333   -1.9220 H   0  0  0  0  0  0  0  0  0  0  0  0
    2.4217    4.0301   -1.8777 H   0  0  0  0  0  0  0  0  0  0  0  0
    0.3782    4.5726   -0.4983 H   0  0  0  0  0  0  0  0  0  0  0  0
   -1.1585    3.0582    0.6699 H   0  0  0  0  0  0  0  0  0  0  0  0
    0.8039   -3.2383   -0.0174 H   0  0  0  0  0  0  0  0  0  0  0  0
    0.4411   -5.2190    1.3446 H   0  0  0  0  0  0  0  0  0  0  0  0
   -0.6517   -8.2284    3.0896 H   0  0  0  0  0  0  0  0  0  0  0  0
    0.4945   -7.4841    1.9543 H   0  0  0  0  0  0  0  0  0  0  0  0
   -0.3864   -6.4721    3.1458 H   0  0  0  0  0  0  0  0  0  0  0  0
   -3.2458   -5.9445   -0.6986 H   0  0  0  0  0  0  0  0  0  0  0  0
   -2.8909   -3.9276   -2.0558 H   0  0  0  0  0  0  0  0  0  0  0  0
   -0.9802   -4.0069   -3.8412 H   0  0  0  0  0  0  0  0  0  0  0  0
   -2.1971   -3.7076   -5.9316 H   0  0  0  0  0  0  0  0  0  0  0  0
   -4.1757   -3.6993   -7.2234 H   0  0  0  0  0  0  0  0  0  0  0  0
   -4.3459   -2.7630   -8.7243 H   0  0  0  0  0  0  0  0  0  0  0  0
   -2.7223   -3.1997   -8.1534 H   0  0  0  0  0  0  0  0  0  0  0  0
   -3.1724    0.2952   -4.7862 H   0  0  0  0  0  0  0  0  0  0  0  0
   -1.9910   -0.0270   -2.6579 H   0  0  0  0  0  0  0  0  0  0  0  0
    1.8123   -2.4375   -4.6895 H   0  0  0  0  0  0  0  0  0  0  0  0
    1.4400   -3.9529   -6.5476 H   0  0  0  0  0  0  0  0  0  0  0  0
    2.1741   -4.2476   -8.9252 H   0  0  0  0  0  0  0  0  0  0  0  0
    1.1196   -5.5257   -8.2419 H   0  0  0  0  0  0  0  0  0  0  0  0
    1.2119   -5.2914   -9.9998 H   0  0  0  0  0  0  0  0  0  0  0  0
   -1.0060   -1.0130   -8.4584 H   0  0  0  0  0  0  0  0  0  0  0  0
   -0.6858    0.4922   -6.5586 H   0  0  0  0  0  0  0  0  0  0  0  0
   -0.2387    1.5167   -2.5325 H   0  0  0  0  0  0  0  0  0  0  0  0
   -0.5090    3.9617   -2.5903 H   0  0  0  0  0  0  0  0  0  0  0  0
    1.6952    6.2531   -6.2802 H   0  0  0  0  0  0  0  0  0  0  0  0
    0.5532    7.5967   -6.0473 H   0  0  0  0  0  0  0  0  0  0  0  0
   -0.0009    6.1048   -6.8402 H   0  0  0  0  0  0  0  0  0  0  0  0
    1.1944    4.0447   -6.5107 H   0  0  0  0  0  0  0  0  0  0  0  0
    1.4676    1.6283   -6.4448 H   0  0  0  0  0  0  0  0  0  0  0  0
    8.8366    1.2704   -1.8652 H   0  0  0  0  0  0  0  0  0  0  0  0
   11.0966    0.7951   -2.7351 H   0  0  0  0  0  0  0  0  0  0  0  0
   12.5981   -1.4070   -6.9315 H   0  0  0  0  0  0  0  0  0  0  0  0
   10.8774   -0.9853   -6.7562 H   0  0  0  0  0  0  0  0  0  0  0  0
   11.4560   -2.6372   -6.3562 H   0  0  0  0  0  0  0  0  0  0  0  0
    9.5230   -2.4230   -5.0666 H   0  0  0  0  0  0  0  0  0  0  0  0
    7.2849   -1.9661   -4.1869 H   0  0  0  0  0  0  0  0  0  0  0  0
    7.5778   -1.0116   -0.3721 H   0  0  0  0  0  0  0  0  0  0  0  0
    7.1691   -0.2367    1.9044 H   0  0  0  0  0  0  0  0  0  0  0  0
    6.1237   -0.0317    3.9773 H   0  0  0  0  0  0  0  0  0  0  0  0
    7.5235    1.0809    3.8215 H   0  0  0  0  0  0  0  0  0  0  0  0
    6.2581    1.3941    5.0283 H   0  0  0  0  0  0  0  0  0  0  0  0
    4.7537    2.9559    0.3833 H   0  0  0  0  0  0  0  0  0  0  0  0
    5.1791    2.1768   -1.9138 H   0  0  0  0  0  0  0  0  0  0  0  0
    7.6219    0.2538   -5.3956 H   0  0  0  0  0  0  0  0  0  0  0  0
    4.7393    4.1320   -9.6721 H   0  0  0  0  0  0  0  0  0  0  0  0
  1  2  2  0  0  0  0
  2  3  1  0  0  0  0
  3  4  2  0  0  0  0
  3  5  1  0  0  0  0
  5  6  1  0  0  0  0
  6  7  1  0  0  0  0
  7  8  1  0  0  0  0
  7  9  2  0  0  0  0
  9 10  1  0  0  0  0
 10 11  1  0  0  0  0
 11 12  2  0  0  0  0
 12 13  1  0  0  0  0
 13 14  3  0  0  0  0
 12 15  1  0  0  0  0
 15 16  3  0  0  0  0
  1 17  1  0  0  0  0
 17 18  2  0  0  0  0
 18 19  1  0  0  0  0
 19 20  1  0  0  0  0
 18 21  1  0  0  0  0
 21 22  2  0  0  0  0
 22 23  1  0  0  0  0
 22 24  1  0  0  0  0
 24 25  2  0  0  0  0
 25 26  1  0  0  0  0
 26 27  1  0  0  0  0
 27 28  1  0  0  0  0
 26 29  1  0  0  0  0
 29 30  1  0  0  0  0
 25 31  1  0  0  0  0
 31 32  2  0  0  0  0
 32 33  1  0  0  0  0
 32 34  1  0  0  0  0
 34 35  2  0  0  0  0
 35 36  1  0  0  0  0
 36 37  1  0  0  0  0
 37 38  2  0  0  0  0
 38 39  1  0  0  0  0
 39 40  2  0  0  0  0
 40 41  1  0  0  0  0
 41 42  1  0  0  0  0
 40 43  1  0  0  0  0
 43 44  2  0  0  0  0
 36 45  1  0  0  0  0
 45 46  2  0  0  0  0
 46 47  1  0  0  0  0
 47 48  2  0  0  0  0
 48 49  1  0  0  0  0
 49 50  1  0  0  0  0
 48 51  1  0  0  0  0
 51 52  2  0  0  0  0
 35 53  1  0  0  0  0
 53 54  1  0  0  0  0
 54 55  1  0  0  0  0
 55 56  2  0  0  0  0
 56 57  1  0  0  0  0
 57 58  1  0  0  0  0
 58 59  2  0  0  0  0
 59 60  1  0  0  0  0
 60 61  2  0  0  0  0
 61 62  1  0  0  0  0
 62 63  1  0  0  0  0
 61 64  1  0  0  0  0
 64 65  2  0  0  0  0
 57 66  1  0  0  0  0
 66 67  2  0  0  0  0
 67 68  1  0  0  0  0
 68 69  2  0  0  0  0
 69 70  1  0  0  0  0
 70 71  1  0  0  0  0
 69 72  1  0  0  0  0
 72 73  2  0  0  0  0
 56 74  1  0  0  0  0
 74 75  1  0  0  0  0
 55 76  1  0  0  0  0
 76 77  2  0  0  0  0
 77 78  1  0  0  0  0
 78 79  1  0  0  0  0
 79 80  2  0  0  0  0
 80 81  1  0  0  0  0
 81 82  2  0  0  0  0
 82 83  1  0  0  0  0
 83 84  1  0  0  0  0
 82 85  1  0  0  0  0
 85 86  2  0  0  0  0
 78 87  1  0  0  0  0
 87 88  2  0  0  0  0
 88 89  1  0  0  0  0
 89 90  2  0  0  0  0
 90 91  1  0  0  0  0
 91 92  1  0  0  0  0
 90 93  1  0  0  0  0
 93 94  2  0  0  0  0
 77 95  1  0  0  0  0
 95 96  1  0  0  0  0
 96 97  1  0  0  0  0
 97 98  2  0  0  0  0
 98 99  1  0  0  0  0
 99100  1  0  0  0  0
100101  2  0  0  0  0
101102  1  0  0  0  0
102103  2  0  0  0  0
103104  1  0  0  0  0
104105  1  0  0  0  0
103106  1  0  0  0  0
106107  2  0  0  0  0
 99108  1  0  0  0  0
108109  2  0  0  0  0
109110  1  0  0  0  0
110111  2  0  0  0  0
111112  1  0  0  0  0
112113  1  0  0  0  0
111114  1  0  0  0  0
114115  2  0  0  0  0
 98116  1  0  0  0  0
116117  1  0  0  0  0
 97118  1  0  0  0  0
118119  2  0  0  0  0
119120  1  0  0  0  0
120121  2  0  0  0  0
120122  1  0  0  0  0
122123  1  0  0  0  0
123124  1  0  0  0  0
124125  1  0  0  0  0
124126  2  0  0  0  0
126127  1  0  0  0  0
127128  1  0  0  0  0
128129  2  0  0  0  0
129130  1  0  0  0  0
130131  3  0  0  0  0
129132  1  0  0  0  0
132133  3  0  0  0  0
 11  2  1  0  0  0  0
 23 17  1  0  0  0  0
 33 24  1  0  0  0  0
 75 34  1  0  0  0  0
117 76  1  0  0  0  0
128119  1  0  0  0  0
 10  5  2  0  0  0  0
 26 21  1  0  0  0  0
 44 37  1  0  0  0  0
 52 45  1  0  0  0  0
 74 53  2  0  0  0  0
 86 79  1  0  0  0  0
 94 87  1  0  0  0  0
116 95  2  0  0  0  0
127122  2  0  0  0  0
 65 58  1  0  0  0  0
 73 66  1  0  0  0  0
107100  1  0  0  0  0
115108  1  0  0  0  0
  1134  1  0  0  0  0
  9135  1  0  0  0  0
 19136  1  0  0  0  0
 19137  1  0  0  0  0
 20138  1  0  0  0  0
 20139  1  0  0  0  0
 20140  1  0  0  0  0
 27141  1  0  0  0  0
 27142  1  0  0  0  0
 28143  1  0  0  0  0
 28144  1  0  0  0  0
 28145  1  0  0  0  0
 29146  1  0  0  0  0
 29147  1  0  0  0  0
 30148  1  0  0  0  0
 30149  1  0  0  0  0
 30150  1  0  0  0  0
 31151  1  0  0  0  0
 38152  1  0  0  0  0
 39153  1  0  0  0  0
 42154  1  0  0  0  0
 42155  1  0  0  0  0
 42156  1  0  0  0  0
 43157  1  0  0  0  0
 44158  1  0  0  0  0
 46159  1  0  0  0  0
 47160  1  0  0  0  0
 50161  1  0  0  0  0
 50162  1  0  0  0  0
 50163  1  0  0  0  0
 51164  1  0  0  0  0
 52165  1  0  0  0  0
 59166  1  0  0  0  0
 60167  1  0  0  0  0
 63168  1  0  0  0  0
 63169  1  0  0  0  0
 63170  1  0  0  0  0
 64171  1  0  0  0  0
 65172  1  0  0  0  0
 67173  1  0  0  0  0
 68174  1  0  0  0  0
 71175  1  0  0  0  0
 71176  1  0  0  0  0
 71177  1  0  0  0  0
 72178  1  0  0  0  0
 73179  1  0  0  0  0
 80180  1  0  0  0  0
 81181  1  0  0  0  0
 84182  1  0  0  0  0
 84183  1  0  0  0  0
 84184  1  0  0  0  0
 85185  1  0  0  0  0
 86186  1  0  0  0  0
 88187  1  0  0  0  0
 89188  1  0  0  0  0
 92189  1  0  0  0  0
 92190  1  0  0  0  0
 92191  1  0  0  0  0
 93192  1  0  0  0  0
 94193  1  0  0  0  0
101194  1  0  0  0  0
102195  1  0  0  0  0
105196  1  0  0  0  0
105197  1  0  0  0  0
105198  1  0  0  0  0
106199  1  0  0  0  0
107200  1  0  0  0  0
109201  1  0  0  0  0
110202  1  0  0  0  0
113203  1  0  0  0  0
113204  1  0  0  0  0
113205  1  0  0  0  0
114206  1  0  0  0  0
115207  1  0  0  0  0
118208  1  0  0  0  0
126209  1  0  0  0  0
M  END
