
  xtb     02142205363D
 energy: -407.016600612646 gnorm: 0.000448999194 xtb: 6.4.1 (unknown)
248269  0     0  0            999 V2000
    3.3069   -6.6376    6.3708 C   0  0  0  0  0  0  0  0  0  0  0  0
    4.5774   -6.9290    6.7880 C   0  0  0  0  0  0  0  0  0  0  0  0
    4.7978   -7.3838    8.1911 C   0  0  0  0  0  0  0  0  0  0  0  0
    3.9618   -7.7963    8.9645 O   0  0  0  0  0  0  0  0  0  0  0  0
    6.2256   -7.1554    8.4008 C   0  0  0  0  0  0  0  0  0  0  0  0
    7.3242   -7.2641    9.7079 S   0  0  0  0  0  0  0  0  0  0  0  0
    8.6271   -6.7275    8.6810 C   0  0  0  0  0  0  0  0  0  0  0  0
    9.9922   -6.5651    9.2411 C   0  0  0  0  0  0  0  0  0  0  0  0
    8.2207   -6.4940    7.3971 C   0  0  0  0  0  0  0  0  0  0  0  0
    6.8446   -6.7285    7.2338 C   0  0  0  0  0  0  0  0  0  0  0  0
    5.8602   -6.7091    6.1678 C   0  0  0  0  0  0  0  0  0  0  0  0
    6.1647   -6.7414    4.8254 C   0  0  0  0  0  0  0  0  0  0  0  0
    7.4691   -6.5168    4.3603 C   0  0  0  0  0  0  0  0  0  0  0  0
    8.5270   -6.3011    3.9647 N   0  0  0  0  0  0  0  0  0  0  0  0
    5.2374   -7.0711    3.8215 C   0  0  0  0  0  0  0  0  0  0  0  0
    4.5283   -7.4063    2.9805 N   0  0  0  0  0  0  0  0  0  0  0  0
    2.9163   -5.7410    5.3672 C   0  0  0  0  0  0  0  0  0  0  0  0
    1.6011   -5.4717    4.9462 C   0  0  0  0  0  0  0  0  0  0  0  0
    0.5324   -6.2809    5.2160 N   0  0  0  0  0  0  0  0  0  0  0  0
   -0.7764   -5.7930    5.0816 C   0  0  0  0  0  0  0  0  0  0  0  0
   -1.1167   -4.5314    5.5623 C   0  0  0  0  0  0  0  0  0  0  0  0
   -2.3788   -4.0099    5.3454 C   0  0  0  0  0  0  0  0  0  0  0  0
   -3.3271   -4.7512    4.6548 C   0  0  0  0  0  0  0  0  0  0  0  0
   -4.9361   -4.1715    4.2268 S   0  0  0  0  0  0  0  0  0  0  0  0
   -4.9554   -2.4544    4.8081 C   0  0  0  0  0  0  0  0  0  0  0  0
   -3.0135   -6.0482    4.2468 C   0  0  0  0  0  0  0  0  0  0  0  0
   -1.7570   -6.5651    4.4567 C   0  0  0  0  0  0  0  0  0  0  0  0
    0.7129   -7.6818    5.3155 C   0  0  0  0  0  0  0  0  0  0  0  0
    0.0065   -8.4023    6.2754 C   0  0  0  0  0  0  0  0  0  0  0  0
    0.1510   -9.7697    6.3541 C   0  0  0  0  0  0  0  0  0  0  0  0
    0.9995  -10.4423    5.4756 C   0  0  0  0  0  0  0  0  0  0  0  0
    1.0969  -12.1915    5.6644 S   0  0  0  0  0  0  0  0  0  0  0  0
    2.1767  -12.7182    4.3035 C   0  0  0  0  0  0  0  0  0  0  0  0
    1.7025   -9.7223    4.5179 C   0  0  0  0  0  0  0  0  0  0  0  0
    1.5553   -8.3526    4.4367 C   0  0  0  0  0  0  0  0  0  0  0  0
    1.5636   -4.3214    4.1276 C   0  0  0  0  0  0  0  0  0  0  0  0
    0.3168   -3.4874    3.2828 S   0  0  0  0  0  0  0  0  0  0  0  0
    1.4996   -2.4737    2.4491 C   0  0  0  0  0  0  0  0  0  0  0  0
    2.8048   -2.7468    2.8657 C   0  0  0  0  0  0  0  0  0  0  0  0
    3.9884   -2.1815    2.4283 N   0  0  0  0  0  0  0  0  0  0  0  0
    5.1108   -2.2893    3.2808 C   0  0  0  0  0  0  0  0  0  0  0  0
    6.2778   -2.8924    2.8214 C   0  0  0  0  0  0  0  0  0  0  0  0
    7.3504   -3.0865    3.6672 C   0  0  0  0  0  0  0  0  0  0  0  0
    7.2692   -2.6774    4.9926 C   0  0  0  0  0  0  0  0  0  0  0  0
    8.5364   -2.9636    6.1831 S   0  0  0  0  0  0  0  0  0  0  0  0
    9.9329   -3.5789    5.1979 C   0  0  0  0  0  0  0  0  0  0  0  0
    6.1225   -2.0257    5.4425 C   0  0  0  0  0  0  0  0  0  0  0  0
    5.0532   -1.8295    4.5954 C   0  0  0  0  0  0  0  0  0  0  0  0
    4.2189   -1.7331    1.1248 C   0  0  0  0  0  0  0  0  0  0  0  0
    5.1224   -0.6877    0.9197 C   0  0  0  0  0  0  0  0  0  0  0  0
    5.3318   -0.1929   -0.3451 C   0  0  0  0  0  0  0  0  0  0  0  0
    4.6262   -0.7028   -1.4350 C   0  0  0  0  0  0  0  0  0  0  0  0
    4.8901    0.1149   -2.9788 S   0  0  0  0  0  0  0  0  0  0  0  0
    3.8271   -0.7770   -4.1434 C   0  0  0  0  0  0  0  0  0  0  0  0
    3.7716   -1.7797   -1.2449 C   0  0  0  0  0  0  0  0  0  0  0  0
    3.5888   -2.3015    0.0224 C   0  0  0  0  0  0  0  0  0  0  0  0
    2.8053   -3.7771    3.8385 C   0  0  0  0  0  0  0  0  0  0  0  0
    4.0711   -4.6090    4.6648 S   0  0  0  0  0  0  0  0  0  0  0  0
    0.9756   -1.5260    1.5278 C   0  0  0  0  0  0  0  0  0  0  0  0
   -0.2554   -1.5803    0.8738 C   0  0  0  0  0  0  0  0  0  0  0  0
   -1.1847   -2.6202    0.8917 N   0  0  0  0  0  0  0  0  0  0  0  0
   -0.7894   -3.9486    0.7140 C   0  0  0  0  0  0  0  0  0  0  0  0
   -1.5133   -4.9960    1.2906 C   0  0  0  0  0  0  0  0  0  0  0  0
   -1.0320   -6.2826    1.2336 C   0  0  0  0  0  0  0  0  0  0  0  0
    0.1935   -6.5605    0.6317 C   0  0  0  0  0  0  0  0  0  0  0  0
    0.7617   -8.2288    0.7281 S   0  0  0  0  0  0  0  0  0  0  0  0
    2.5360   -8.1015    0.3633 C   0  0  0  0  0  0  0  0  0  0  0  0
    0.8811   -5.5366   -0.0057 C   0  0  0  0  0  0  0  0  0  0  0  0
    0.3799   -4.2496    0.0199 C   0  0  0  0  0  0  0  0  0  0  0  0
   -2.5331   -2.2621    1.0003 C   0  0  0  0  0  0  0  0  0  0  0  0
   -3.5311   -2.9567    0.3157 C   0  0  0  0  0  0  0  0  0  0  0  0
   -4.8446   -2.5574    0.4105 C   0  0  0  0  0  0  0  0  0  0  0  0
   -5.1931   -1.4397    1.1642 C   0  0  0  0  0  0  0  0  0  0  0  0
   -6.9013   -0.9870    1.1889 S   0  0  0  0  0  0  0  0  0  0  0  0
   -6.8639    0.7456    1.7383 C   0  0  0  0  0  0  0  0  0  0  0  0
   -4.2091   -0.7524    1.8593 C   0  0  0  0  0  0  0  0  0  0  0  0
   -2.8947   -1.1690    1.7853 C   0  0  0  0  0  0  0  0  0  0  0  0
   -0.4768   -0.4100    0.1157 C   0  0  0  0  0  0  0  0  0  0  0  0
   -1.7455    0.1022   -0.9378 S   0  0  0  0  0  0  0  0  0  0  0  0
   -0.8328    1.5528   -1.3687 C   0  0  0  0  0  0  0  0  0  0  0  0
    0.4103    1.5946   -0.7524 C   0  0  0  0  0  0  0  0  0  0  0  0
    1.4541    2.4782   -1.0012 N   0  0  0  0  0  0  0  0  0  0  0  0
    2.2250    2.7959    0.1379 C   0  0  0  0  0  0  0  0  0  0  0  0
    1.5846    3.3287    1.2516 C   0  0  0  0  0  0  0  0  0  0  0  0
    2.2876    3.5988    2.4104 C   0  0  0  0  0  0  0  0  0  0  0  0
    3.6488    3.3365    2.4714 C   0  0  0  0  0  0  0  0  0  0  0  0
    4.6544    3.6125    3.8954 S   0  0  0  0  0  0  0  0  0  0  0  0
    3.5216    4.3714    5.0941 C   0  0  0  0  0  0  0  0  0  0  0  0
    4.2942    2.8060    1.3557 C   0  0  0  0  0  0  0  0  0  0  0  0
    3.5929    2.5347    0.2037 C   0  0  0  0  0  0  0  0  0  0  0  0
    1.9701    2.6516   -2.2875 C   0  0  0  0  0  0  0  0  0  0  0  0
    1.4868    1.9310   -3.3801 C   0  0  0  0  0  0  0  0  0  0  0  0
    2.0291    2.1079   -4.6341 C   0  0  0  0  0  0  0  0  0  0  0  0
    3.0851    2.9895   -4.8334 C   0  0  0  0  0  0  0  0  0  0  0  0
    3.7198    3.1170   -6.4771 S   0  0  0  0  0  0  0  0  0  0  0  0
    5.2327    4.0972   -6.2719 C   0  0  0  0  0  0  0  0  0  0  0  0
    3.5680    3.7150   -3.7551 C   0  0  0  0  0  0  0  0  0  0  0  0
    3.0100    3.5543   -2.5051 C   0  0  0  0  0  0  0  0  0  0  0  0
    0.5639    0.5009    0.1374 C   0  0  0  0  0  0  0  0  0  0  0  0
    1.8394   -0.0284    1.1761 S   0  0  0  0  0  0  0  0  0  0  0  0
   -1.5106    2.4748   -2.2197 C   0  0  0  0  0  0  0  0  0  0  0  0
   -1.4202    3.8506   -2.3157 C   0  0  0  0  0  0  0  0  0  0  0  0
   -0.5442    4.6703   -1.5704 N   0  0  0  0  0  0  0  0  0  0  0  0
    0.4456    5.3810   -2.2571 C   0  0  0  0  0  0  0  0  0  0  0  0
    1.4067    6.0979   -1.5422 C   0  0  0  0  0  0  0  0  0  0  0  0
    2.3929    6.7989   -2.2032 C   0  0  0  0  0  0  0  0  0  0  0  0
    2.4744    6.7955   -3.5912 C   0  0  0  0  0  0  0  0  0  0  0  0
    3.5372    7.5845   -4.2955 C   0  0  0  0  0  0  0  0  0  0  0  0
    1.5494    6.0390   -4.2943 C   0  0  0  0  0  0  0  0  0  0  0  0
    0.5525    5.3379   -3.6446 C   0  0  0  0  0  0  0  0  0  0  0  0
   -1.1335    5.1917   -0.3990 C   0  0  0  0  0  0  0  0  0  0  0  0
   -1.1731    6.5604   -0.1386 C   0  0  0  0  0  0  0  0  0  0  0  0
   -1.7548    7.0343    1.0189 C   0  0  0  0  0  0  0  0  0  0  0  0
   -2.3311    6.1717    1.9455 C   0  0  0  0  0  0  0  0  0  0  0  0
   -2.9633    6.7090    3.1937 C   0  0  0  0  0  0  0  0  0  0  0  0
   -2.3250    4.8139    1.6625 C   0  0  0  0  0  0  0  0  0  0  0  0
   -1.7409    4.3259    0.5080 C   0  0  0  0  0  0  0  0  0  0  0  0
   -2.4263    4.3804   -3.1535 C   0  0  0  0  0  0  0  0  0  0  0  0
   -2.8222    5.9843   -3.6549 S   0  0  0  0  0  0  0  0  0  0  0  0
   -4.2032    5.3644   -4.5658 C   0  0  0  0  0  0  0  0  0  0  0  0
   -4.2780    3.9492   -4.5235 C   0  0  0  0  0  0  0  0  0  0  0  0
   -5.1964    3.1727   -5.1816 N   0  0  0  0  0  0  0  0  0  0  0  0
   -5.6354    3.4629   -6.4860 C   0  0  0  0  0  0  0  0  0  0  0  0
   -4.7748    4.0482   -7.4118 C   0  0  0  0  0  0  0  0  0  0  0  0
   -5.2227    4.3380   -8.6849 C   0  0  0  0  0  0  0  0  0  0  0  0
   -6.5224    4.0371   -9.0751 C   0  0  0  0  0  0  0  0  0  0  0  0
   -7.0181    4.3732  -10.4478 C   0  0  0  0  0  0  0  0  0  0  0  0
   -7.3633    3.4252   -8.1530 C   0  0  0  0  0  0  0  0  0  0  0  0
   -6.9350    3.1436   -6.8713 C   0  0  0  0  0  0  0  0  0  0  0  0
   -5.5985    1.9655   -4.5759 C   0  0  0  0  0  0  0  0  0  0  0  0
   -5.6859    0.7905   -5.3166 C   0  0  0  0  0  0  0  0  0  0  0  0
   -6.0701   -0.3838   -4.7028 C   0  0  0  0  0  0  0  0  0  0  0  0
   -6.3693   -0.4235   -3.3447 C   0  0  0  0  0  0  0  0  0  0  0  0
   -6.7552   -1.7126   -2.6907 C   0  0  0  0  0  0  0  0  0  0  0  0
   -6.2857    0.7554   -2.6161 C   0  0  0  0  0  0  0  0  0  0  0  0
   -5.9114    1.9400   -3.2195 C   0  0  0  0  0  0  0  0  0  0  0  0
   -3.2734    3.4227   -3.6965 C   0  0  0  0  0  0  0  0  0  0  0  0
   -2.8248    1.8267   -3.1934 S   0  0  0  0  0  0  0  0  0  0  0  0
   -5.1782    6.1570   -5.1715 C   0  0  0  0  0  0  0  0  0  0  0  0
   -5.2389    7.5159   -5.3659 C   0  0  0  0  0  0  0  0  0  0  0  0
   -4.1817    8.4951   -5.0471 C   0  0  0  0  0  0  0  0  0  0  0  0
   -3.1375    8.2999   -4.4507 O   0  0  0  0  0  0  0  0  0  0  0  0
   -4.6648    9.7463   -5.6172 C   0  0  0  0  0  0  0  0  0  0  0  0
   -4.0969   11.3554   -5.7430 S   0  0  0  0  0  0  0  0  0  0  0  0
   -5.5425   11.8134   -6.6036 C   0  0  0  0  0  0  0  0  0  0  0  0
   -5.7190   13.2155   -7.0589 C   0  0  0  0  0  0  0  0  0  0  0  0
   -6.4066   10.7677   -6.7735 C   0  0  0  0  0  0  0  0  0  0  0  0
   -5.9063    9.5793   -6.2107 C   0  0  0  0  0  0  0  0  0  0  0  0
   -6.3190    8.1970   -6.0442 C   0  0  0  0  0  0  0  0  0  0  0  0
   -7.5310    7.6950   -6.4533 C   0  0  0  0  0  0  0  0  0  0  0  0
   -8.0170    6.4013   -6.1966 C   0  0  0  0  0  0  0  0  0  0  0  0
   -8.4957    5.3755   -5.9940 N   0  0  0  0  0  0  0  0  0  0  0  0
   -8.4553    8.4853   -7.1639 C   0  0  0  0  0  0  0  0  0  0  0  0
   -9.2183    9.1049   -7.7579 N   0  0  0  0  0  0  0  0  0  0  0  0
    2.5143   -7.0438    6.9900 H   0  0  0  0  0  0  0  0  0  0  0  0
   10.7037   -6.3779    8.4410 H   0  0  0  0  0  0  0  0  0  0  0  0
   10.0202   -5.7256    9.9360 H   0  0  0  0  0  0  0  0  0  0  0  0
   10.2947   -7.4579    9.7860 H   0  0  0  0  0  0  0  0  0  0  0  0
    8.8835   -6.1588    6.6219 H   0  0  0  0  0  0  0  0  0  0  0  0
   -0.3871   -3.9522    6.1087 H   0  0  0  0  0  0  0  0  0  0  0  0
   -2.6040   -3.0238    5.7174 H   0  0  0  0  0  0  0  0  0  0  0  0
   -4.8868   -2.4247    5.8918 H   0  0  0  0  0  0  0  0  0  0  0  0
   -5.9126   -2.0545    4.4876 H   0  0  0  0  0  0  0  0  0  0  0  0
   -4.1469   -1.9021    4.3384 H   0  0  0  0  0  0  0  0  0  0  0  0
   -3.7668   -6.6335    3.7420 H   0  0  0  0  0  0  0  0  0  0  0  0
   -1.5163   -7.5611    4.1191 H   0  0  0  0  0  0  0  0  0  0  0  0
   -0.6534   -7.8834    6.9545 H   0  0  0  0  0  0  0  0  0  0  0  0
   -0.3898  -10.3340    7.0978 H   0  0  0  0  0  0  0  0  0  0  0  0
    2.2199  -13.8010    4.3681 H   0  0  0  0  0  0  0  0  0  0  0  0
    3.1714  -12.3018    4.4335 H   0  0  0  0  0  0  0  0  0  0  0  0
    1.7434  -12.4216    3.3528 H   0  0  0  0  0  0  0  0  0  0  0  0
    2.3616  -10.2099    3.8193 H   0  0  0  0  0  0  0  0  0  0  0  0
    2.1025   -7.8062    3.6842 H   0  0  0  0  0  0  0  0  0  0  0  0
    6.3326   -3.2351    1.7985 H   0  0  0  0  0  0  0  0  0  0  0  0
    8.2268   -3.5858    3.2893 H   0  0  0  0  0  0  0  0  0  0  0  0
    9.6772   -4.5285    4.7336 H   0  0  0  0  0  0  0  0  0  0  0  0
   10.7483   -3.7138    5.9021 H   0  0  0  0  0  0  0  0  0  0  0  0
   10.2069   -2.8368    4.4539 H   0  0  0  0  0  0  0  0  0  0  0  0
    6.0778   -1.6876    6.4663 H   0  0  0  0  0  0  0  0  0  0  0  0
    4.1598   -1.3360    4.9482 H   0  0  0  0  0  0  0  0  0  0  0  0
    5.6431   -0.2622    1.7637 H   0  0  0  0  0  0  0  0  0  0  0  0
    6.0342    0.6103   -0.5062 H   0  0  0  0  0  0  0  0  0  0  0  0
    4.1554   -1.8088   -4.2314 H   0  0  0  0  0  0  0  0  0  0  0  0
    2.7925   -0.7107   -3.8206 H   0  0  0  0  0  0  0  0  0  0  0  0
    3.9460   -0.2669   -5.0943 H   0  0  0  0  0  0  0  0  0  0  0  0
    3.2456   -2.2261   -2.0741 H   0  0  0  0  0  0  0  0  0  0  0  0
    2.9438   -3.1544    0.1668 H   0  0  0  0  0  0  0  0  0  0  0  0
   -2.4291   -4.7897    1.8215 H   0  0  0  0  0  0  0  0  0  0  0  0
   -1.5875   -7.0888    1.6851 H   0  0  0  0  0  0  0  0  0  0  0  0
    2.9432   -9.0900    0.5512 H   0  0  0  0  0  0  0  0  0  0  0  0
    3.0021   -7.3852    1.0328 H   0  0  0  0  0  0  0  0  0  0  0  0
    2.6907   -7.8368   -0.6787 H   0  0  0  0  0  0  0  0  0  0  0  0
    1.8062   -5.7301   -0.5260 H   0  0  0  0  0  0  0  0  0  0  0  0
    0.9043   -3.4570   -0.4931 H   0  0  0  0  0  0  0  0  0  0  0  0
   -3.2682   -3.8003   -0.3038 H   0  0  0  0  0  0  0  0  0  0  0  0
   -5.6169   -3.0995   -0.1118 H   0  0  0  0  0  0  0  0  0  0  0  0
   -6.1163    1.2907    1.1697 H   0  0  0  0  0  0  0  0  0  0  0  0
   -7.8528    1.1429    1.5311 H   0  0  0  0  0  0  0  0  0  0  0  0
   -6.6646    0.8029    2.8049 H   0  0  0  0  0  0  0  0  0  0  0  0
   -4.4529    0.1034    2.4693 H   0  0  0  0  0  0  0  0  0  0  0  0
   -2.1346   -0.6391    2.3416 H   0  0  0  0  0  0  0  0  0  0  0  0
    0.5255    3.5347    1.2097 H   0  0  0  0  0  0  0  0  0  0  0  0
    1.7574    4.0118    3.2534 H   0  0  0  0  0  0  0  0  0  0  0  0
    2.7301    3.6740    5.3525 H   0  0  0  0  0  0  0  0  0  0  0  0
    4.1249    4.5850    5.9709 H   0  0  0  0  0  0  0  0  0  0  0  0
    3.1187    5.2951    4.6892 H   0  0  0  0  0  0  0  0  0  0  0  0
    5.3513    2.5976    1.4122 H   0  0  0  0  0  0  0  0  0  0  0  0
    4.0946    2.1011   -0.6463 H   0  0  0  0  0  0  0  0  0  0  0  0
    0.6912    1.2131   -3.2564 H   0  0  0  0  0  0  0  0  0  0  0  0
    1.6435    1.5482   -5.4733 H   0  0  0  0  0  0  0  0  0  0  0  0
    4.9837    5.1121   -5.9757 H   0  0  0  0  0  0  0  0  0  0  0  0
    5.8784    3.6197   -5.5409 H   0  0  0  0  0  0  0  0  0  0  0  0
    5.7138    4.1044   -7.2451 H   0  0  0  0  0  0  0  0  0  0  0  0
    4.3762    4.4174   -3.8703 H   0  0  0  0  0  0  0  0  0  0  0  0
    3.3858    4.1492   -1.6891 H   0  0  0  0  0  0  0  0  0  0  0  0
    1.3807    6.0933   -0.4621 H   0  0  0  0  0  0  0  0  0  0  0  0
    3.1209    7.3552   -1.6289 H   0  0  0  0  0  0  0  0  0  0  0  0
    3.3257    8.6515   -4.2221 H   0  0  0  0  0  0  0  0  0  0  0  0
    3.5808    7.3211   -5.3500 H   0  0  0  0  0  0  0  0  0  0  0  0
    4.5135    7.4097   -3.8445 H   0  0  0  0  0  0  0  0  0  0  0  0
    1.6000    5.9954   -5.3728 H   0  0  0  0  0  0  0  0  0  0  0  0
   -0.1362    4.7481   -4.2285 H   0  0  0  0  0  0  0  0  0  0  0  0
   -0.7626    7.2525   -0.8576 H   0  0  0  0  0  0  0  0  0  0  0  0
   -1.7762    8.0991    1.2012 H   0  0  0  0  0  0  0  0  0  0  0  0
   -3.2442    5.9029    3.8672 H   0  0  0  0  0  0  0  0  0  0  0  0
   -3.8589    7.2793    2.9471 H   0  0  0  0  0  0  0  0  0  0  0  0
   -2.2784    7.3773    3.7133 H   0  0  0  0  0  0  0  0  0  0  0  0
   -2.7828    4.1204    2.3546 H   0  0  0  0  0  0  0  0  0  0  0  0
   -1.7645    3.2650    0.3069 H   0  0  0  0  0  0  0  0  0  0  0  0
   -3.7584    4.2794   -7.1280 H   0  0  0  0  0  0  0  0  0  0  0  0
   -4.5454    4.7983   -9.3900 H   0  0  0  0  0  0  0  0  0  0  0  0
   -7.5507    3.5289  -10.8813 H   0  0  0  0  0  0  0  0  0  0  0  0
   -6.1959    4.6461  -11.1045 H   0  0  0  0  0  0  0  0  0  0  0  0
   -7.7121    5.2127  -10.3983 H   0  0  0  0  0  0  0  0  0  0  0  0
   -8.3766    3.1827   -8.4355 H   0  0  0  0  0  0  0  0  0  0  0  0
   -7.6064    2.6881   -6.1607 H   0  0  0  0  0  0  0  0  0  0  0  0
   -5.4458    0.8050   -6.3694 H   0  0  0  0  0  0  0  0  0  0  0  0
   -6.1315   -1.2911   -5.2862 H   0  0  0  0  0  0  0  0  0  0  0  0
   -7.4885   -2.2457   -3.2926 H   0  0  0  0  0  0  0  0  0  0  0  0
   -5.8770   -2.3507   -2.5898 H   0  0  0  0  0  0  0  0  0  0  0  0
   -7.1688   -1.5390   -1.7008 H   0  0  0  0  0  0  0  0  0  0  0  0
   -6.5257    0.7464   -1.5633 H   0  0  0  0  0  0  0  0  0  0  0  0
   -5.8638    2.8547   -2.6459 H   0  0  0  0  0  0  0  0  0  0  0  0
   -6.0199    5.5952   -5.5576 H   0  0  0  0  0  0  0  0  0  0  0  0
   -6.6644   13.3196   -7.5851 H   0  0  0  0  0  0  0  0  0  0  0  0
   -5.7105   13.8987   -6.2102 H   0  0  0  0  0  0  0  0  0  0  0  0
   -4.9089   13.5069   -7.7266 H   0  0  0  0  0  0  0  0  0  0  0  0
   -7.3495   10.8591   -7.2804 H   0  0  0  0  0  0  0  0  0  0  0  0
  1  2  2  0  0  0  0
  2  3  1  0  0  0  0
  3  4  2  0  0  0  0
  3  5  1  0  0  0  0
  5  6  1  0  0  0  0
  6  7  1  0  0  0  0
  7  8  1  0  0  0  0
  7  9  2  0  0  0  0
  9 10  1  0  0  0  0
 10 11  1  0  0  0  0
 11 12  2  0  0  0  0
 12 13  1  0  0  0  0
 13 14  3  0  0  0  0
 12 15  1  0  0  0  0
 15 16  3  0  0  0  0
  1 17  1  0  0  0  0
 17 18  2  0  0  0  0
 18 19  1  0  0  0  0
 19 20  1  0  0  0  0
 20 21  2  0  0  0  0
 21 22  1  0  0  0  0
 22 23  2  0  0  0  0
 23 24  1  0  0  0  0
 24 25  1  0  0  0  0
 23 26  1  0  0  0  0
 26 27  2  0  0  0  0
 19 28  1  0  0  0  0
 28 29  2  0  0  0  0
 29 30  1  0  0  0  0
 30 31  2  0  0  0  0
 31 32  1  0  0  0  0
 32 33  1  0  0  0  0
 31 34  1  0  0  0  0
 34 35  2  0  0  0  0
 18 36  1  0  0  0  0
 36 37  1  0  0  0  0
 37 38  1  0  0  0  0
 38 39  2  0  0  0  0
 39 40  1  0  0  0  0
 40 41  1  0  0  0  0
 41 42  2  0  0  0  0
 42 43  1  0  0  0  0
 43 44  2  0  0  0  0
 44 45  1  0  0  0  0
 45 46  1  0  0  0  0
 44 47  1  0  0  0  0
 47 48  2  0  0  0  0
 40 49  1  0  0  0  0
 49 50  2  0  0  0  0
 50 51  1  0  0  0  0
 51 52  2  0  0  0  0
 52 53  1  0  0  0  0
 53 54  1  0  0  0  0
 52 55  1  0  0  0  0
 55 56  2  0  0  0  0
 39 57  1  0  0  0  0
 57 58  1  0  0  0  0
 38 59  1  0  0  0  0
 59 60  2  0  0  0  0
 60 61  1  0  0  0  0
 61 62  1  0  0  0  0
 62 63  2  0  0  0  0
 63 64  1  0  0  0  0
 64 65  2  0  0  0  0
 65 66  1  0  0  0  0
 66 67  1  0  0  0  0
 65 68  1  0  0  0  0
 68 69  2  0  0  0  0
 61 70  1  0  0  0  0
 70 71  2  0  0  0  0
 71 72  1  0  0  0  0
 72 73  2  0  0  0  0
 73 74  1  0  0  0  0
 74 75  1  0  0  0  0
 73 76  1  0  0  0  0
 76 77  2  0  0  0  0
 60 78  1  0  0  0  0
 78 79  1  0  0  0  0
 79 80  1  0  0  0  0
 80 81  2  0  0  0  0
 81 82  1  0  0  0  0
 82 83  1  0  0  0  0
 83 84  2  0  0  0  0
 84 85  1  0  0  0  0
 85 86  2  0  0  0  0
 86 87  1  0  0  0  0
 87 88  1  0  0  0  0
 86 89  1  0  0  0  0
 89 90  2  0  0  0  0
 82 91  1  0  0  0  0
 91 92  2  0  0  0  0
 92 93  1  0  0  0  0
 93 94  2  0  0  0  0
 94 95  1  0  0  0  0
 95 96  1  0  0  0  0
 94 97  1  0  0  0  0
 97 98  2  0  0  0  0
 81 99  1  0  0  0  0
 99100  1  0  0  0  0
 80101  1  0  0  0  0
101102  2  0  0  0  0
102103  1  0  0  0  0
103104  1  0  0  0  0
104105  2  0  0  0  0
105106  1  0  0  0  0
106107  2  0  0  0  0
107108  1  0  0  0  0
107109  1  0  0  0  0
109110  2  0  0  0  0
103111  1  0  0  0  0
111112  2  0  0  0  0
112113  1  0  0  0  0
113114  2  0  0  0  0
114115  1  0  0  0  0
114116  1  0  0  0  0
116117  2  0  0  0  0
102118  1  0  0  0  0
118119  1  0  0  0  0
119120  1  0  0  0  0
120121  2  0  0  0  0
121122  1  0  0  0  0
122123  1  0  0  0  0
123124  2  0  0  0  0
124125  1  0  0  0  0
125126  2  0  0  0  0
126127  1  0  0  0  0
126128  1  0  0  0  0
128129  2  0  0  0  0
122130  1  0  0  0  0
130131  2  0  0  0  0
131132  1  0  0  0  0
132133  2  0  0  0  0
133134  1  0  0  0  0
133135  1  0  0  0  0
135136  2  0  0  0  0
121137  1  0  0  0  0
137138  1  0  0  0  0
120139  1  0  0  0  0
139140  2  0  0  0  0
140141  1  0  0  0  0
141142  2  0  0  0  0
141143  1  0  0  0  0
143144  1  0  0  0  0
144145  1  0  0  0  0
145146  1  0  0  0  0
145147  2  0  0  0  0
147148  1  0  0  0  0
148149  1  0  0  0  0
149150  2  0  0  0  0
150151  1  0  0  0  0
151152  3  0  0  0  0
150153  1  0  0  0  0
153154  3  0  0  0  0
 11  2  1  0  0  0  0
 58 17  1  0  0  0  0
100 59  1  0  0  0  0
138101  1  0  0  0  0
149140  1  0  0  0  0
 10  5  2  0  0  0  0
 27 20  1  0  0  0  0
 35 28  1  0  0  0  0
 57 36  2  0  0  0  0
 69 62  1  0  0  0  0
 77 70  1  0  0  0  0
 99 78  2  0  0  0  0
110104  1  0  0  0  0
117111  1  0  0  0  0
137118  2  0  0  0  0
148143  2  0  0  0  0
 48 41  1  0  0  0  0
 56 49  1  0  0  0  0
 90 83  1  0  0  0  0
 98 91  1  0  0  0  0
129123  1  0  0  0  0
136130  1  0  0  0  0
  1155  1  0  0  0  0
  8156  1  0  0  0  0
  8157  1  0  0  0  0
  8158  1  0  0  0  0
  9159  1  0  0  0  0
 21160  1  0  0  0  0
 22161  1  0  0  0  0
 25162  1  0  0  0  0
 25163  1  0  0  0  0
 25164  1  0  0  0  0
 26165  1  0  0  0  0
 27166  1  0  0  0  0
 29167  1  0  0  0  0
 30168  1  0  0  0  0
 33169  1  0  0  0  0
 33170  1  0  0  0  0
 33171  1  0  0  0  0
 34172  1  0  0  0  0
 35173  1  0  0  0  0
 42174  1  0  0  0  0
 43175  1  0  0  0  0
 46176  1  0  0  0  0
 46177  1  0  0  0  0
 46178  1  0  0  0  0
 47179  1  0  0  0  0
 48180  1  0  0  0  0
 50181  1  0  0  0  0
 51182  1  0  0  0  0
 54183  1  0  0  0  0
 54184  1  0  0  0  0
 54185  1  0  0  0  0
 55186  1  0  0  0  0
 56187  1  0  0  0  0
 63188  1  0  0  0  0
 64189  1  0  0  0  0
 67190  1  0  0  0  0
 67191  1  0  0  0  0
 67192  1  0  0  0  0
 68193  1  0  0  0  0
 69194  1  0  0  0  0
 71195  1  0  0  0  0
 72196  1  0  0  0  0
 75197  1  0  0  0  0
 75198  1  0  0  0  0
 75199  1  0  0  0  0
 76200  1  0  0  0  0
 77201  1  0  0  0  0
 84202  1  0  0  0  0
 85203  1  0  0  0  0
 88204  1  0  0  0  0
 88205  1  0  0  0  0
 88206  1  0  0  0  0
 89207  1  0  0  0  0
 90208  1  0  0  0  0
 92209  1  0  0  0  0
 93210  1  0  0  0  0
 96211  1  0  0  0  0
 96212  1  0  0  0  0
 96213  1  0  0  0  0
 97214  1  0  0  0  0
 98215  1  0  0  0  0
105216  1  0  0  0  0
106217  1  0  0  0  0
108218  1  0  0  0  0
108219  1  0  0  0  0
108220  1  0  0  0  0
109221  1  0  0  0  0
110222  1  0  0  0  0
112223  1  0  0  0  0
113224  1  0  0  0  0
115225  1  0  0  0  0
115226  1  0  0  0  0
115227  1  0  0  0  0
116228  1  0  0  0  0
117229  1  0  0  0  0
124230  1  0  0  0  0
125231  1  0  0  0  0
127232  1  0  0  0  0
127233  1  0  0  0  0
127234  1  0  0  0  0
128235  1  0  0  0  0
129236  1  0  0  0  0
131237  1  0  0  0  0
132238  1  0  0  0  0
134239  1  0  0  0  0
134240  1  0  0  0  0
134241  1  0  0  0  0
135242  1  0  0  0  0
136243  1  0  0  0  0
139244  1  0  0  0  0
146245  1  0  0  0  0
146246  1  0  0  0  0
146247  1  0  0  0  0
147248  1  0  0  0  0
M  END
