248

C          3.30690       -6.63760        6.37080
C          4.57740       -6.92900        6.78800
C          4.79780       -7.38380        8.19110
O          3.96180       -7.79630        8.96450
C          6.22560       -7.15540        8.40080
S          7.32420       -7.26410        9.70790
C          8.62710       -6.72750        8.68100
C          9.99220       -6.56510        9.24110
C          8.22070       -6.49400        7.39710
C          6.84460       -6.72850        7.23380
C          5.86020       -6.70910        6.16780
C          6.16470       -6.74140        4.82540
C          7.46910       -6.51680        4.36030
N          8.52700       -6.30110        3.96470
C          5.23740       -7.07110        3.82150
N          4.52830       -7.40630        2.98050
C          2.91630       -5.74100        5.36720
C          1.60110       -5.47170        4.94620
N          0.53240       -6.28090        5.21600
C         -0.77640       -5.79300        5.08160
C         -1.11670       -4.53140        5.56230
C         -2.37880       -4.00990        5.34540
C         -3.32710       -4.75120        4.65480
S         -4.93610       -4.17150        4.22680
C         -4.95540       -2.45440        4.80810
C         -3.01350       -6.04820        4.24680
C         -1.75700       -6.56510        4.45670
C          0.71290       -7.68180        5.31550
C          0.00650       -8.40230        6.27540
C          0.15100       -9.76970        6.35410
C          0.99950      -10.44230        5.47560
S          1.09690      -12.19150        5.66440
C          2.17670      -12.71820        4.30350
C          1.70250       -9.72230        4.51790
C          1.55530       -8.35260        4.43670
C          1.56360       -4.32140        4.12760
S          0.31680       -3.48740        3.28280
C          1.49960       -2.47370        2.44910
C          2.80480       -2.74680        2.86570
N          3.98840       -2.18150        2.42830
C          5.11080       -2.28930        3.28080
C          6.27780       -2.89240        2.82140
C          7.35040       -3.08650        3.66720
C          7.26920       -2.67740        4.99260
S          8.53640       -2.96360        6.18310
C          9.93290       -3.57890        5.19790
C          6.12250       -2.02570        5.44250
C          5.05320       -1.82950        4.59540
C          4.21890       -1.73310        1.12480
C          5.12240       -0.68770        0.91970
C          5.33180       -0.19290       -0.34510
C          4.62620       -0.70280       -1.43500
S          4.89010        0.11490       -2.97880
C          3.82710       -0.77700       -4.14340
C          3.77160       -1.77970       -1.24490
C          3.58880       -2.30150        0.02240
C          2.80530       -3.77710        3.83850
S          4.07110       -4.60900        4.66480
C          0.97560       -1.52600        1.52780
C         -0.25540       -1.58030        0.87380
N         -1.18470       -2.62020        0.89170
C         -0.78940       -3.94860        0.71400
C         -1.51330       -4.99600        1.29060
C         -1.03200       -6.28260        1.23360
C          0.19350       -6.56050        0.63170
S          0.76170       -8.22880        0.72810
C          2.53600       -8.10150        0.36330
C          0.88110       -5.53660       -0.00570
C          0.37990       -4.24960        0.01990
C         -2.53310       -2.26210        1.00030
C         -3.53110       -2.95670        0.31570
C         -4.84460       -2.55740        0.41050
C         -5.19310       -1.43970        1.16420
S         -6.90130       -0.98700        1.18890
C         -6.86390        0.74560        1.73830
C         -4.20910       -0.75240        1.85930
C         -2.89470       -1.16900        1.78530
C         -0.47680       -0.41000        0.11570
S         -1.74550        0.10220       -0.93780
C         -0.83280        1.55280       -1.36870
C          0.41030        1.59460       -0.75240
N          1.45410        2.47820       -1.00120
C          2.22500        2.79590        0.13790
C          1.58460        3.32870        1.25160
C          2.28760        3.59880        2.41040
C          3.64880        3.33650        2.47140
S          4.65440        3.61250        3.89540
C          3.52160        4.37140        5.09410
C          4.29420        2.80600        1.35570
C          3.59290        2.53470        0.20370
C          1.97010        2.65160       -2.28750
C          1.48680        1.93100       -3.38010
C          2.02910        2.10790       -4.63410
C          3.08510        2.98950       -4.83340
S          3.71980        3.11700       -6.47710
C          5.23270        4.09720       -6.27190
C          3.56800        3.71500       -3.75510
C          3.01000        3.55430       -2.50510
C          0.56390        0.50090        0.13740
S          1.83940       -0.02840        1.17610
C         -1.51060        2.47480       -2.21970
C         -1.42020        3.85060       -2.31570
N         -0.54420        4.67030       -1.57040
C          0.44560        5.38100       -2.25710
C          1.40670        6.09790       -1.54220
C          2.39290        6.79890       -2.20320
C          2.47440        6.79550       -3.59120
C          3.53720        7.58450       -4.29550
C          1.54940        6.03900       -4.29430
C          0.55250        5.33790       -3.64460
C         -1.13350        5.19170       -0.39900
C         -1.17310        6.56040       -0.13860
C         -1.75480        7.03430        1.01890
C         -2.33110        6.17170        1.94550
C         -2.96330        6.70900        3.19370
C         -2.32500        4.81390        1.66250
C         -1.74090        4.32590        0.50800
C         -2.42630        4.38040       -3.15350
S         -2.82220        5.98430       -3.65490
C         -4.20320        5.36440       -4.56580
C         -4.27800        3.94920       -4.52350
N         -5.19640        3.17270       -5.18160
C         -5.63540        3.46290       -6.48600
C         -4.77480        4.04820       -7.41180
C         -5.22270        4.33800       -8.68490
C         -6.52240        4.03710       -9.07510
C         -7.01810        4.37320      -10.44780
C         -7.36330        3.42520       -8.15300
C         -6.93500        3.14360       -6.87130
C         -5.59850        1.96550       -4.57590
C         -5.68590        0.79050       -5.31660
C         -6.07010       -0.38380       -4.70280
C         -6.36930       -0.42350       -3.34470
C         -6.75520       -1.71260       -2.69070
C         -6.28570        0.75540       -2.61610
C         -5.91140        1.94000       -3.21950
C         -3.27340        3.42270       -3.69650
S         -2.82480        1.82670       -3.19340
C         -5.17820        6.15700       -5.17150
C         -5.23890        7.51590       -5.36590
C         -4.18170        8.49510       -5.04710
O         -3.13750        8.29990       -4.45070
C         -4.66480        9.74630       -5.61720
S         -4.09690       11.35540       -5.74300
C         -5.54250       11.81340       -6.60360
C         -5.71900       13.21550       -7.05890
C         -6.40660       10.76770       -6.77350
C         -5.90630        9.57930       -6.21070
C         -6.31900        8.19700       -6.04420
C         -7.53100        7.69500       -6.45330
C         -8.01700        6.40130       -6.19660
N         -8.49570        5.37550       -5.99400
C         -8.45530        8.48530       -7.16390
N         -9.21830        9.10490       -7.75790
H          2.51430       -7.04380        6.99000
H         10.70370       -6.37790        8.44100
H         10.02020       -5.72560        9.93600
H         10.29470       -7.45790        9.78600
H          8.88350       -6.15880        6.62190
H         -0.38710       -3.95220        6.10870
H         -2.60400       -3.02380        5.71740
H         -4.88680       -2.42470        5.89180
H         -5.91260       -2.05450        4.48760
H         -4.14690       -1.90210        4.33840
H         -3.76680       -6.63350        3.74200
H         -1.51630       -7.56110        4.11910
H         -0.65340       -7.88340        6.95450
H         -0.38980      -10.33400        7.09780
H          2.21990      -13.80100        4.36810
H          3.17140      -12.30180        4.43350
H          1.74340      -12.42160        3.35280
H          2.36160      -10.20990        3.81930
H          2.10250       -7.80620        3.68420
H          6.33260       -3.23510        1.79850
H          8.22680       -3.58580        3.28930
H          9.67720       -4.52850        4.73360
H         10.74830       -3.71380        5.90210
H         10.20690       -2.83680        4.45390
H          6.07780       -1.68760        6.46630
H          4.15980       -1.33600        4.94820
H          5.64310       -0.26220        1.76370
H          6.03420        0.61030       -0.50620
H          4.15540       -1.80880       -4.23140
H          2.79250       -0.71070       -3.82060
H          3.94600       -0.26690       -5.09430
H          3.24560       -2.22610       -2.07410
H          2.94380       -3.15440        0.16680
H         -2.42910       -4.78970        1.82150
H         -1.58750       -7.08880        1.68510
H          2.94320       -9.09000        0.55120
H          3.00210       -7.38520        1.03280
H          2.69070       -7.83680       -0.67870
H          1.80620       -5.73010       -0.52600
H          0.90430       -3.45700       -0.49310
H         -3.26820       -3.80030       -0.30380
H         -5.61690       -3.09950       -0.11180
H         -6.11630        1.29070        1.16970
H         -7.85280        1.14290        1.53110
H         -6.66460        0.80290        2.80490
H         -4.45290        0.10340        2.46930
H         -2.13460       -0.63910        2.34160
H          0.52550        3.53470        1.20970
H          1.75740        4.01180        3.25340
H          2.73010        3.67400        5.35250
H          4.12490        4.58500        5.97090
H          3.11870        5.29510        4.68920
H          5.35130        2.59760        1.41220
H          4.09460        2.10110       -0.64630
H          0.69120        1.21310       -3.25640
H          1.64350        1.54820       -5.47330
H          4.98370        5.11210       -5.97570
H          5.87840        3.61970       -5.54090
H          5.71380        4.10440       -7.24510
H          4.37620        4.41740       -3.87030
H          3.38580        4.14920       -1.68910
H          1.38070        6.09330       -0.46210
H          3.12090        7.35520       -1.62890
H          3.32570        8.65150       -4.22210
H          3.58080        7.32110       -5.35000
H          4.51350        7.40970       -3.84450
H          1.60000        5.99540       -5.37280
H         -0.13620        4.74810       -4.22850
H         -0.76260        7.25250       -0.85760
H         -1.77620        8.09910        1.20120
H         -3.24420        5.90290        3.86720
H         -3.85890        7.27930        2.94710
H         -2.27840        7.37730        3.71330
H         -2.78280        4.12040        2.35460
H         -1.76450        3.26500        0.30690
H         -3.75840        4.27940       -7.12800
H         -4.54540        4.79830       -9.39000
H         -7.55070        3.52890      -10.88130
H         -6.19590        4.64610      -11.10450
H         -7.71210        5.21270      -10.39830
H         -8.37660        3.18270       -8.43550
H         -7.60640        2.68810       -6.16070
H         -5.44580        0.80500       -6.36940
H         -6.13150       -1.29110       -5.28620
H         -7.48850       -2.24570       -3.29260
H         -5.87700       -2.35070       -2.58980
H         -7.16880       -1.53900       -1.70080
H         -6.52570        0.74640       -1.56330
H         -5.86380        2.85470       -2.64590
H         -6.01990        5.59520       -5.55760
H         -6.66440       13.31960       -7.58510
H         -5.71050       13.89870       -6.21020
H         -4.90890       13.50690       -7.72660
H         -7.34950       10.85910       -7.28040
