
  xtb     02042200133D
 energy: -311.581526769001 gnorm: 0.000456557198 xtb: 6.4.1 (unknown)
178193  0     0  0            999 V2000
   -5.4642    0.6957   -4.9151 C   0  0  0  0  0  0  0  0  0  0  0  0
   -6.7580    0.7175   -4.5372 C   0  0  0  0  0  0  0  0  0  0  0  0
   -7.2225    0.1302   -3.2454 C   0  0  0  0  0  0  0  0  0  0  0  0
   -6.5311   -0.3717   -2.3831 O   0  0  0  0  0  0  0  0  0  0  0  0
   -8.6664    0.2834   -3.2947 C   0  0  0  0  0  0  0  0  0  0  0  0
   -9.9867   -0.0927   -2.2741 S   0  0  0  0  0  0  0  0  0  0  0  0
  -11.1021    0.5560   -3.4476 C   0  0  0  0  0  0  0  0  0  0  0  0
  -12.5592    0.5428   -3.1668 C   0  0  0  0  0  0  0  0  0  0  0  0
  -10.4724    1.0340   -4.5625 C   0  0  0  0  0  0  0  0  0  0  0  0
   -9.0756    0.8804   -4.4822 C   0  0  0  0  0  0  0  0  0  0  0  0
   -7.9148    1.1803   -5.2911 C   0  0  0  0  0  0  0  0  0  0  0  0
   -7.9276    1.8063   -6.5058 C   0  0  0  0  0  0  0  0  0  0  0  0
   -6.7772    2.1485   -7.2451 C   0  0  0  0  0  0  0  0  0  0  0  0
   -5.8761    2.4782   -7.8750 N   0  0  0  0  0  0  0  0  0  0  0  0
   -9.1318    2.1985   -7.1273 C   0  0  0  0  0  0  0  0  0  0  0  0
  -10.1038    2.5198   -7.6452 N   0  0  0  0  0  0  0  0  0  0  0  0
   -4.4011    0.2926   -3.9938 C   0  0  0  0  0  0  0  0  0  0  0  0
   -4.0232    1.1408   -2.9488 C   0  0  0  0  0  0  0  0  0  0  0  0
   -4.7825    2.7393   -2.8576 S   0  0  0  0  0  0  0  0  0  0  0  0
   -3.3061    3.8480   -2.7972 C   0  0  0  0  0  0  0  0  0  0  0  0
   -3.3898    4.8492   -1.6650 C   0  0  0  0  0  0  0  0  0  0  0  0
   -3.0451    0.7154   -2.0551 C   0  0  0  0  0  0  0  0  0  0  0  0
   -2.7137    1.5713   -0.5369 S   0  0  0  0  0  0  0  0  0  0  0  0
   -4.3596    1.4648    0.2574 C   0  0  0  0  0  0  0  0  0  0  0  0
   -4.7813    0.0263    0.4764 C   0  0  0  0  0  0  0  0  0  0  0  0
   -2.2996   -0.4440   -2.3174 C   0  0  0  0  0  0  0  0  0  0  0  0
   -2.6622   -1.2914   -3.3644 C   0  0  0  0  0  0  0  0  0  0  0  0
   -3.7428   -0.9231   -4.1839 C   0  0  0  0  0  0  0  0  0  0  0  0
   -4.2178   -1.7198   -5.3226 C   0  0  0  0  0  0  0  0  0  0  0  0
   -5.1639   -1.3497   -6.0013 O   0  0  0  0  0  0  0  0  0  0  0  0
   -3.4622   -2.9389   -5.5721 C   0  0  0  0  0  0  0  0  0  0  0  0
   -2.3687   -3.3288   -4.7428 C   0  0  0  0  0  0  0  0  0  0  0  0
   -1.9123   -2.5477   -3.5873 C   0  0  0  0  0  0  0  0  0  0  0  0
   -0.9974   -2.9169   -2.8766 O   0  0  0  0  0  0  0  0  0  0  0  0
   -1.8012   -4.4970   -5.1644 C   0  0  0  0  0  0  0  0  0  0  0  0
   -2.5731   -5.1247   -6.5619 S   0  0  0  0  0  0  0  0  0  0  0  0
   -3.6786   -3.8195   -6.5947 C   0  0  0  0  0  0  0  0  0  0  0  0
   -1.0926   -0.6251   -1.5104 C   0  0  0  0  0  0  0  0  0  0  0  0
    0.0409    0.1239   -1.7247 C   0  0  0  0  0  0  0  0  0  0  0  0
    0.1696    0.9981   -2.8141 N   0  0  0  0  0  0  0  0  0  0  0  0
    0.3639    2.3602   -2.6095 C   0  0  0  0  0  0  0  0  0  0  0  0
    0.1985    2.9315   -1.3454 C   0  0  0  0  0  0  0  0  0  0  0  0
    0.3534    4.2875   -1.1671 C   0  0  0  0  0  0  0  0  0  0  0  0
    0.6783    5.1137   -2.2392 C   0  0  0  0  0  0  0  0  0  0  0  0
    0.7807    6.8476   -1.8985 S   0  0  0  0  0  0  0  0  0  0  0  0
    1.3829    7.5648   -3.4532 C   0  0  0  0  0  0  0  0  0  0  0  0
    0.8857    4.5489   -3.4891 C   0  0  0  0  0  0  0  0  0  0  0  0
    0.7412    3.1870   -3.6673 C   0  0  0  0  0  0  0  0  0  0  0  0
   -0.1635    0.4657   -4.0692 C   0  0  0  0  0  0  0  0  0  0  0  0
    0.3959   -0.7519   -4.4493 C   0  0  0  0  0  0  0  0  0  0  0  0
    0.0426   -1.3525   -5.6408 C   0  0  0  0  0  0  0  0  0  0  0  0
   -0.8762   -0.7394   -6.4817 C   0  0  0  0  0  0  0  0  0  0  0  0
   -1.4309   -1.4454   -8.0042 S   0  0  0  0  0  0  0  0  0  0  0  0
   -0.1591   -2.6895   -8.3784 C   0  0  0  0  0  0  0  0  0  0  0  0
   -1.4281    0.4862   -6.1161 C   0  0  0  0  0  0  0  0  0  0  0  0
   -1.0745    1.0848   -4.9267 C   0  0  0  0  0  0  0  0  0  0  0  0
    1.0095   -0.1204   -0.7223 C   0  0  0  0  0  0  0  0  0  0  0  0
    2.6017    0.4612   -0.3939 S   0  0  0  0  0  0  0  0  0  0  0  0
    2.6631   -0.5015    1.0582 C   0  0  0  0  0  0  0  0  0  0  0  0
    1.5247   -1.2408    1.2673 C   0  0  0  0  0  0  0  0  0  0  0  0
    1.3417   -2.0666    2.3762 N   0  0  0  0  0  0  0  0  0  0  0  0
    2.3639   -2.9890    2.6663 C   0  0  0  0  0  0  0  0  0  0  0  0
    2.8208   -3.8339    1.6589 C   0  0  0  0  0  0  0  0  0  0  0  0
    3.8493   -4.7243    1.8994 C   0  0  0  0  0  0  0  0  0  0  0  0
    4.4404   -4.7753    3.1541 C   0  0  0  0  0  0  0  0  0  0  0  0
    5.7906   -5.8506    3.5444 S   0  0  0  0  0  0  0  0  0  0  0  0
    5.6151   -7.1889    2.3243 C   0  0  0  0  0  0  0  0  0  0  0  0
    3.9839   -3.9335    4.1644 C   0  0  0  0  0  0  0  0  0  0  0  0
    2.9496   -3.0546    3.9287 C   0  0  0  0  0  0  0  0  0  0  0  0
    0.1686   -1.9908    3.1136 C   0  0  0  0  0  0  0  0  0  0  0  0
   -0.6416   -0.8554    3.0444 C   0  0  0  0  0  0  0  0  0  0  0  0
   -1.8305   -0.7908    3.7424 C   0  0  0  0  0  0  0  0  0  0  0  0
   -2.2342   -1.8567    4.5330 C   0  0  0  0  0  0  0  0  0  0  0  0
   -3.7390   -1.8665    5.4656 S   0  0  0  0  0  0  0  0  0  0  0  0
   -4.7551   -0.6268    4.6088 C   0  0  0  0  0  0  0  0  0  0  0  0
   -1.4164   -2.9788    4.6325 C   0  0  0  0  0  0  0  0  0  0  0  0
   -0.2340   -3.0504    3.9306 C   0  0  0  0  0  0  0  0  0  0  0  0
    0.5804   -1.0253    0.2339 C   0  0  0  0  0  0  0  0  0  0  0  0
   -1.0011   -1.6329   -0.0995 S   0  0  0  0  0  0  0  0  0  0  0  0
    3.7977   -0.4386    1.9838 C   0  0  0  0  0  0  0  0  0  0  0  0
    3.6996    0.4449    3.0778 C   0  0  0  0  0  0  0  0  0  0  0  0
    2.2208    1.3970    3.1398 S   0  0  0  0  0  0  0  0  0  0  0  0
    1.7238    1.5663    4.8958 C   0  0  0  0  0  0  0  0  0  0  0  0
    1.7178    0.2502    5.6405 C   0  0  0  0  0  0  0  0  0  0  0  0
    4.7806    0.5877    3.9482 C   0  0  0  0  0  0  0  0  0  0  0  0
    4.8584    1.9226    5.1247 S   0  0  0  0  0  0  0  0  0  0  0  0
    6.2426    2.8902    4.4205 C   0  0  0  0  0  0  0  0  0  0  0  0
    5.9756    3.3046    2.9882 C   0  0  0  0  0  0  0  0  0  0  0  0
    5.8587   -0.2927    3.8594 C   0  0  0  0  0  0  0  0  0  0  0  0
    5.9202   -1.2212    2.8140 C   0  0  0  0  0  0  0  0  0  0  0  0
    4.9235   -1.2445    1.8233 C   0  0  0  0  0  0  0  0  0  0  0  0
    5.0443   -2.1205    0.6334 C   0  0  0  0  0  0  0  0  0  0  0  0
    4.2895   -2.0649   -0.3181 O   0  0  0  0  0  0  0  0  0  0  0  0
    6.1737   -3.0548    0.6804 C   0  0  0  0  0  0  0  0  0  0  0  0
    7.1187   -3.0884    1.7483 C   0  0  0  0  0  0  0  0  0  0  0  0
    7.0482   -2.1539    2.8617 C   0  0  0  0  0  0  0  0  0  0  0  0
    7.8525   -2.1292    3.7843 O   0  0  0  0  0  0  0  0  0  0  0  0
    8.0579   -4.0667    1.5810 C   0  0  0  0  0  0  0  0  0  0  0  0
    7.8162   -4.9455    0.1323 S   0  0  0  0  0  0  0  0  0  0  0  0
    6.4399   -4.0027   -0.2661 C   0  0  0  0  0  0  0  0  0  0  0  0
    6.9625   -0.2372    4.8176 C   0  0  0  0  0  0  0  0  0  0  0  0
    6.8144   -0.5406    6.1238 C   0  0  0  0  0  0  0  0  0  0  0  0
    5.5984   -1.2087    6.6739 C   0  0  0  0  0  0  0  0  0  0  0  0
    4.5531   -1.4216    6.0953 O   0  0  0  0  0  0  0  0  0  0  0  0
    5.9794   -1.5558    8.0330 C   0  0  0  0  0  0  0  0  0  0  0  0
    5.2497   -2.3598    9.3542 S   0  0  0  0  0  0  0  0  0  0  0  0
    6.6894   -2.1298   10.3120 C   0  0  0  0  0  0  0  0  0  0  0  0
    6.7397   -2.6449   11.7026 C   0  0  0  0  0  0  0  0  0  0  0  0
    7.6710   -1.4627    9.6340 C   0  0  0  0  0  0  0  0  0  0  0  0
    7.2715   -1.1330    8.3255 C   0  0  0  0  0  0  0  0  0  0  0  0
    7.8186   -0.4504    7.1755 C   0  0  0  0  0  0  0  0  0  0  0  0
    9.0158    0.2091    7.1307 C   0  0  0  0  0  0  0  0  0  0  0  0
    9.4560    0.9739    6.0331 C   0  0  0  0  0  0  0  0  0  0  0  0
    9.8271    1.6437    5.1772 N   0  0  0  0  0  0  0  0  0  0  0  0
    9.9012    0.2243    8.2283 C   0  0  0  0  0  0  0  0  0  0  0  0
   10.6333    0.2429    9.1115 N   0  0  0  0  0  0  0  0  0  0  0  0
   -5.1532    1.0839   -5.8759 H   0  0  0  0  0  0  0  0  0  0  0  0
  -12.7803    1.1106   -2.2635 H   0  0  0  0  0  0  0  0  0  0  0  0
  -13.1038    0.9795   -3.9998 H   0  0  0  0  0  0  0  0  0  0  0  0
  -12.9102   -0.4768   -3.0105 H   0  0  0  0  0  0  0  0  0  0  0  0
  -10.9947    1.4702   -5.3940 H   0  0  0  0  0  0  0  0  0  0  0  0
   -2.4230    3.2208   -2.6994 H   0  0  0  0  0  0  0  0  0  0  0  0
   -3.2933    4.3515   -3.7642 H   0  0  0  0  0  0  0  0  0  0  0  0
   -2.5309    5.5152   -1.7130 H   0  0  0  0  0  0  0  0  0  0  0  0
   -4.2991    5.4406   -1.7408 H   0  0  0  0  0  0  0  0  0  0  0  0
   -3.3766    4.3421   -0.7041 H   0  0  0  0  0  0  0  0  0  0  0  0
   -4.2118    1.9901    1.2015 H   0  0  0  0  0  0  0  0  0  0  0  0
   -5.0811    2.0084   -0.3504 H   0  0  0  0  0  0  0  0  0  0  0  0
   -3.9807   -0.5431    0.9467 H   0  0  0  0  0  0  0  0  0  0  0  0
   -5.0416   -0.4447   -0.4689 H   0  0  0  0  0  0  0  0  0  0  0  0
   -5.6605    0.0010    1.1179 H   0  0  0  0  0  0  0  0  0  0  0  0
   -0.9707   -5.0092   -4.7196 H   0  0  0  0  0  0  0  0  0  0  0  0
   -4.4245   -3.7519   -7.3614 H   0  0  0  0  0  0  0  0  0  0  0  0
   -0.0649    2.3147   -0.5020 H   0  0  0  0  0  0  0  0  0  0  0  0
    0.2125    4.7231   -0.1902 H   0  0  0  0  0  0  0  0  0  0  0  0
    1.5122    8.6244   -3.2555 H   0  0  0  0  0  0  0  0  0  0  0  0
    2.3369    7.1193   -3.7197 H   0  0  0  0  0  0  0  0  0  0  0  0
    0.6476    7.4251   -4.2405 H   0  0  0  0  0  0  0  0  0  0  0  0
    1.1644    5.1535   -4.3372 H   0  0  0  0  0  0  0  0  0  0  0  0
    0.9227    2.7610   -4.6426 H   0  0  0  0  0  0  0  0  0  0  0  0
    1.0996   -1.2388   -3.7916 H   0  0  0  0  0  0  0  0  0  0  0  0
    0.4901   -2.2985   -5.8999 H   0  0  0  0  0  0  0  0  0  0  0  0
    0.8234   -2.2313   -8.3220 H   0  0  0  0  0  0  0  0  0  0  0  0
   -0.3594   -3.0155   -9.3941 H   0  0  0  0  0  0  0  0  0  0  0  0
   -0.2383   -3.5350   -7.7009 H   0  0  0  0  0  0  0  0  0  0  0  0
   -2.1419    0.9581   -6.7743 H   0  0  0  0  0  0  0  0  0  0  0  0
   -1.5139    2.0321   -4.6518 H   0  0  0  0  0  0  0  0  0  0  0  0
    2.3686   -3.7869    0.6795 H   0  0  0  0  0  0  0  0  0  0  0  0
    4.1790   -5.3724    1.1028 H   0  0  0  0  0  0  0  0  0  0  0  0
    4.5795   -7.5124    2.2927 H   0  0  0  0  0  0  0  0  0  0  0  0
    6.2470   -7.9963    2.6801 H   0  0  0  0  0  0  0  0  0  0  0  0
    5.9556   -6.8643    1.3448 H   0  0  0  0  0  0  0  0  0  0  0  0
    4.4505   -3.9673    5.1362 H   0  0  0  0  0  0  0  0  0  0  0  0
    2.6088   -2.4099    4.7217 H   0  0  0  0  0  0  0  0  0  0  0  0
   -0.3332   -0.0074    2.4528 H   0  0  0  0  0  0  0  0  0  0  0  0
   -2.4279    0.1039    3.6674 H   0  0  0  0  0  0  0  0  0  0  0  0
   -5.7656   -0.7629    4.9812 H   0  0  0  0  0  0  0  0  0  0  0  0
   -4.4110    0.3763    4.8450 H   0  0  0  0  0  0  0  0  0  0  0  0
   -4.7233   -0.8123    3.5397 H   0  0  0  0  0  0  0  0  0  0  0  0
   -1.7272   -3.8016    5.2579 H   0  0  0  0  0  0  0  0  0  0  0  0
    0.3800   -3.9353    4.0008 H   0  0  0  0  0  0  0  0  0  0  0  0
    2.3584    2.3046    5.3791 H   0  0  0  0  0  0  0  0  0  0  0  0
    0.7130    1.9659    4.8005 H   0  0  0  0  0  0  0  0  0  0  0  0
    1.0679   -0.4685    5.1453 H   0  0  0  0  0  0  0  0  0  0  0  0
    2.7210   -0.1644    5.7138 H   0  0  0  0  0  0  0  0  0  0  0  0
    1.3448    0.4139    6.6495 H   0  0  0  0  0  0  0  0  0  0  0  0
    6.3000    3.7576    5.0778 H   0  0  0  0  0  0  0  0  0  0  0  0
    7.1627    2.3148    4.5145 H   0  0  0  0  0  0  0  0  0  0  0  0
    5.9286    2.4362    2.3327 H   0  0  0  0  0  0  0  0  0  0  0  0
    6.7777    3.9533    2.6432 H   0  0  0  0  0  0  0  0  0  0  0  0
    5.0330    3.8427    2.9139 H   0  0  0  0  0  0  0  0  0  0  0  0
    8.8678   -4.3088    2.2400 H   0  0  0  0  0  0  0  0  0  0  0  0
    5.8886   -4.1902   -1.1664 H   0  0  0  0  0  0  0  0  0  0  0  0
    7.9081    0.1376    4.4463 H   0  0  0  0  0  0  0  0  0  0  0  0
    7.6860   -2.3779   12.1659 H   0  0  0  0  0  0  0  0  0  0  0  0
    6.6367   -3.7298   11.7122 H   0  0  0  0  0  0  0  0  0  0  0  0
    5.9252   -2.2303   12.2953 H   0  0  0  0  0  0  0  0  0  0  0  0
    8.6295   -1.2292   10.0598 H   0  0  0  0  0  0  0  0  0  0  0  0
  1  2  2  0  0  0  0
  2  3  1  0  0  0  0
  3  4  2  0  0  0  0
  3  5  1  0  0  0  0
  5  6  1  0  0  0  0
  6  7  1  0  0  0  0
  7  8  1  0  0  0  0
  7  9  2  0  0  0  0
  9 10  1  0  0  0  0
 10 11  1  0  0  0  0
 11 12  2  0  0  0  0
 12 13  1  0  0  0  0
 13 14  3  0  0  0  0
 12 15  1  0  0  0  0
 15 16  3  0  0  0  0
  1 17  1  0  0  0  0
 17 18  2  0  0  0  0
 18 19  1  0  0  0  0
 19 20  1  0  0  0  0
 20 21  1  0  0  0  0
 18 22  1  0  0  0  0
 22 23  1  0  0  0  0
 23 24  1  0  0  0  0
 24 25  1  0  0  0  0
 22 26  2  0  0  0  0
 26 27  1  0  0  0  0
 27 28  2  0  0  0  0
 28 29  1  0  0  0  0
 29 30  2  0  0  0  0
 29 31  1  0  0  0  0
 31 32  1  0  0  0  0
 32 33  1  0  0  0  0
 33 34  2  0  0  0  0
 32 35  2  0  0  0  0
 35 36  1  0  0  0  0
 36 37  1  0  0  0  0
 26 38  1  0  0  0  0
 38 39  2  0  0  0  0
 39 40  1  0  0  0  0
 40 41  1  0  0  0  0
 41 42  2  0  0  0  0
 42 43  1  0  0  0  0
 43 44  2  0  0  0  0
 44 45  1  0  0  0  0
 45 46  1  0  0  0  0
 44 47  1  0  0  0  0
 47 48  2  0  0  0  0
 40 49  1  0  0  0  0
 49 50  2  0  0  0  0
 50 51  1  0  0  0  0
 51 52  2  0  0  0  0
 52 53  1  0  0  0  0
 53 54  1  0  0  0  0
 52 55  1  0  0  0  0
 55 56  2  0  0  0  0
 39 57  1  0  0  0  0
 57 58  1  0  0  0  0
 58 59  1  0  0  0  0
 59 60  2  0  0  0  0
 60 61  1  0  0  0  0
 61 62  1  0  0  0  0
 62 63  2  0  0  0  0
 63 64  1  0  0  0  0
 64 65  2  0  0  0  0
 65 66  1  0  0  0  0
 66 67  1  0  0  0  0
 65 68  1  0  0  0  0
 68 69  2  0  0  0  0
 61 70  1  0  0  0  0
 70 71  2  0  0  0  0
 71 72  1  0  0  0  0
 72 73  2  0  0  0  0
 73 74  1  0  0  0  0
 74 75  1  0  0  0  0
 73 76  1  0  0  0  0
 76 77  2  0  0  0  0
 60 78  1  0  0  0  0
 78 79  1  0  0  0  0
 59 80  1  0  0  0  0
 80 81  2  0  0  0  0
 81 82  1  0  0  0  0
 82 83  1  0  0  0  0
 83 84  1  0  0  0  0
 81 85  1  0  0  0  0
 85 86  1  0  0  0  0
 86 87  1  0  0  0  0
 87 88  1  0  0  0  0
 85 89  2  0  0  0  0
 89 90  1  0  0  0  0
 90 91  2  0  0  0  0
 91 92  1  0  0  0  0
 92 93  2  0  0  0  0
 92 94  1  0  0  0  0
 94 95  1  0  0  0  0
 95 96  1  0  0  0  0
 96 97  2  0  0  0  0
 95 98  2  0  0  0  0
 98 99  1  0  0  0  0
 99100  1  0  0  0  0
 89101  1  0  0  0  0
101102  2  0  0  0  0
102103  1  0  0  0  0
103104  2  0  0  0  0
103105  1  0  0  0  0
105106  1  0  0  0  0
106107  1  0  0  0  0
107108  1  0  0  0  0
107109  2  0  0  0  0
109110  1  0  0  0  0
110111  1  0  0  0  0
111112  2  0  0  0  0
112113  1  0  0  0  0
113114  3  0  0  0  0
112115  1  0  0  0  0
115116  3  0  0  0  0
 11  2  1  0  0  0  0
 28 17  1  0  0  0  0
 37 31  2  0  0  0  0
 79 38  1  0  0  0  0
 91 80  1  0  0  0  0
100 94  2  0  0  0  0
111102  1  0  0  0  0
 10  5  2  0  0  0  0
 33 27  1  0  0  0  0
 48 41  1  0  0  0  0
 56 49  1  0  0  0  0
 78 57  2  0  0  0  0
 96 90  1  0  0  0  0
110105  2  0  0  0  0
 69 62  1  0  0  0  0
 77 70  1  0  0  0  0
  1117  1  0  0  0  0
  8118  1  0  0  0  0
  8119  1  0  0  0  0
  8120  1  0  0  0  0
  9121  1  0  0  0  0
 20122  1  0  0  0  0
 20123  1  0  0  0  0
 21124  1  0  0  0  0
 21125  1  0  0  0  0
 21126  1  0  0  0  0
 24127  1  0  0  0  0
 24128  1  0  0  0  0
 25129  1  0  0  0  0
 25130  1  0  0  0  0
 25131  1  0  0  0  0
 35132  1  0  0  0  0
 37133  1  0  0  0  0
 42134  1  0  0  0  0
 43135  1  0  0  0  0
 46136  1  0  0  0  0
 46137  1  0  0  0  0
 46138  1  0  0  0  0
 47139  1  0  0  0  0
 48140  1  0  0  0  0
 50141  1  0  0  0  0
 51142  1  0  0  0  0
 54143  1  0  0  0  0
 54144  1  0  0  0  0
 54145  1  0  0  0  0
 55146  1  0  0  0  0
 56147  1  0  0  0  0
 63148  1  0  0  0  0
 64149  1  0  0  0  0
 67150  1  0  0  0  0
 67151  1  0  0  0  0
 67152  1  0  0  0  0
 68153  1  0  0  0  0
 69154  1  0  0  0  0
 71155  1  0  0  0  0
 72156  1  0  0  0  0
 75157  1  0  0  0  0
 75158  1  0  0  0  0
 75159  1  0  0  0  0
 76160  1  0  0  0  0
 77161  1  0  0  0  0
 83162  1  0  0  0  0
 83163  1  0  0  0  0
 84164  1  0  0  0  0
 84165  1  0  0  0  0
 84166  1  0  0  0  0
 87167  1  0  0  0  0
 87168  1  0  0  0  0
 88169  1  0  0  0  0
 88170  1  0  0  0  0
 88171  1  0  0  0  0
 98172  1  0  0  0  0
100173  1  0  0  0  0
101174  1  0  0  0  0
108175  1  0  0  0  0
108176  1  0  0  0  0
108177  1  0  0  0  0
109178  1  0  0  0  0
M  END
