
  xtb     02062202023D
 energy: -351.508013687563 gnorm: 0.000936452519 xtb: 6.4.1 (unknown)
209231  0     0  0            999 V2000
   -7.8302   -7.8739    5.7394 C   0  0  0  0  0  0  0  0  0  0  0  0
   -8.6250   -8.9203    5.3496 C   0  0  0  0  0  0  0  0  0  0  0  0
   -8.3524   -9.9330    4.3073 C   0  0  0  0  0  0  0  0  0  0  0  0
   -7.4545   -9.9720    3.4919 O   0  0  0  0  0  0  0  0  0  0  0  0
   -9.3968  -10.9680    4.4788 C   0  0  0  0  0  0  0  0  0  0  0  0
   -9.5505  -12.1428    3.7725 C   0  0  0  0  0  0  0  0  0  0  0  0
  -10.6133  -12.9671    4.1224 C   0  0  0  0  0  0  0  0  0  0  0  0
  -10.8563  -14.4461    3.2717 Cl  0  0  0  0  0  0  0  0  0  0  0  0
  -11.4848  -12.6207    5.1487 C   0  0  0  0  0  0  0  0  0  0  0  0
  -11.3223  -11.4363    5.8511 C   0  0  0  0  0  0  0  0  0  0  0  0
  -10.2699  -10.5971    5.5142 C   0  0  0  0  0  0  0  0  0  0  0  0
   -9.8434   -9.3047    6.0424 C   0  0  0  0  0  0  0  0  0  0  0  0
  -10.5337   -8.5671    6.9692 C   0  0  0  0  0  0  0  0  0  0  0  0
  -10.2004   -7.2692    7.4127 C   0  0  0  0  0  0  0  0  0  0  0  0
  -10.0278   -6.2061    7.8120 N   0  0  0  0  0  0  0  0  0  0  0  0
  -11.7259   -8.9973    7.5891 C   0  0  0  0  0  0  0  0  0  0  0  0
  -12.6893   -9.2913    8.1400 N   0  0  0  0  0  0  0  0  0  0  0  0
   -6.6781   -7.3230    5.1457 C   0  0  0  0  0  0  0  0  0  0  0  0
   -6.1221   -7.4785    3.8959 C   0  0  0  0  0  0  0  0  0  0  0  0
   -4.9760   -6.6961    3.6799 C   0  0  0  0  0  0  0  0  0  0  0  0
   -4.1684   -6.6453    2.5165 C   0  0  0  0  0  0  0  0  0  0  0  0
   -4.4105   -7.5204    1.3935 C   0  0  0  0  0  0  0  0  0  0  0  0
   -4.8273   -8.8262    1.4029 C   0  0  0  0  0  0  0  0  0  0  0  0
   -4.9532   -9.3778    0.1160 C   0  0  0  0  0  0  0  0  0  0  0  0
   -4.6463   -8.5027   -0.8827 C   0  0  0  0  0  0  0  0  0  0  0  0
   -4.6101   -8.7468   -2.3512 C   0  0  0  0  0  0  0  0  0  0  0  0
   -3.1955   -9.1279   -2.7957 C   0  0  0  0  0  0  0  0  0  0  0  0
   -4.1691   -6.9684   -0.2443 S   0  0  0  0  0  0  0  0  0  0  0  0
   -3.1441   -5.7087    2.5280 C   0  0  0  0  0  0  0  0  0  0  0  0
   -2.8472   -4.8680    3.6320 C   0  0  0  0  0  0  0  0  0  0  0  0
   -3.6159   -4.9613    4.8108 C   0  0  0  0  0  0  0  0  0  0  0  0
   -3.3398   -4.1741    5.9953 C   0  0  0  0  0  0  0  0  0  0  0  0
   -4.2381   -3.5724    6.8312 C   0  0  0  0  0  0  0  0  0  0  0  0
   -3.6345   -2.9530    7.9421 C   0  0  0  0  0  0  0  0  0  0  0  0
   -2.2805   -3.0850    7.9666 C   0  0  0  0  0  0  0  0  0  0  0  0
   -1.3278   -2.6161    9.0108 C   0  0  0  0  0  0  0  0  0  0  0  0
   -0.7330   -3.7969    9.7802 C   0  0  0  0  0  0  0  0  0  0  0  0
   -1.7150   -3.9761    6.5911 S   0  0  0  0  0  0  0  0  0  0  0  0
   -4.6724   -5.8643    4.7921 C   0  0  0  0  0  0  0  0  0  0  0  0
   -5.7857   -6.1364    6.0974 S   0  0  0  0  0  0  0  0  0  0  0  0
   -1.7980   -3.9619    3.3479 C   0  0  0  0  0  0  0  0  0  0  0  0
   -1.2862   -4.0993    2.0854 C   0  0  0  0  0  0  0  0  0  0  0  0
   -2.0598   -5.4002    1.2028 S   0  0  0  0  0  0  0  0  0  0  0  0
   -0.3645   -3.2939    1.3609 C   0  0  0  0  0  0  0  0  0  0  0  0
    0.4407   -2.2301    1.7545 C   0  0  0  0  0  0  0  0  0  0  0  0
    0.7116   -1.7985    3.0446 N   0  0  0  0  0  0  0  0  0  0  0  0
    1.0083   -0.4195    3.1570 C   0  0  0  0  0  0  0  0  0  0  0  0
    0.0854    0.5095    2.6839 C   0  0  0  0  0  0  0  0  0  0  0  0
    0.4068    1.8512    2.6286 C   0  0  0  0  0  0  0  0  0  0  0  0
    1.6586    2.2804    3.0487 C   0  0  0  0  0  0  0  0  0  0  0  0
    2.1739    3.9655    2.9110 S   0  0  0  0  0  0  0  0  0  0  0  0
    1.3622    4.4816    1.3707 C   0  0  0  0  0  0  0  0  0  0  0  0
    2.5550    1.3652    3.5925 C   0  0  0  0  0  0  0  0  0  0  0  0
    2.2363    0.0257    3.6441 C   0  0  0  0  0  0  0  0  0  0  0  0
    1.0371   -2.6597    4.0937 C   0  0  0  0  0  0  0  0  0  0  0  0
    1.0699   -2.1611    5.3969 C   0  0  0  0  0  0  0  0  0  0  0  0
    1.4479   -2.9640    6.4522 C   0  0  0  0  0  0  0  0  0  0  0  0
    1.7712   -4.2961    6.2351 C   0  0  0  0  0  0  0  0  0  0  0  0
    2.2458   -5.3959    7.5354 S   0  0  0  0  0  0  0  0  0  0  0  0
    3.0118   -4.2706    8.7433 C   0  0  0  0  0  0  0  0  0  0  0  0
    1.7027   -4.8103    4.9450 C   0  0  0  0  0  0  0  0  0  0  0  0
    1.3521   -4.0030    3.8849 C   0  0  0  0  0  0  0  0  0  0  0  0
    0.9779   -1.5737    0.6174 C   0  0  0  0  0  0  0  0  0  0  0  0
    1.9515   -0.1657    0.4028 S   0  0  0  0  0  0  0  0  0  0  0  0
    1.8145   -0.2934   -1.3449 C   0  0  0  0  0  0  0  0  0  0  0  0
    1.1453   -1.4489   -1.7363 C   0  0  0  0  0  0  0  0  0  0  0  0
    0.9739   -1.9053   -3.0306 N   0  0  0  0  0  0  0  0  0  0  0  0
   -0.1708   -2.6832   -3.2952 C   0  0  0  0  0  0  0  0  0  0  0  0
   -1.4252   -2.2331   -2.8836 C   0  0  0  0  0  0  0  0  0  0  0  0
   -2.5456   -3.0055   -3.0983 C   0  0  0  0  0  0  0  0  0  0  0  0
   -2.4388   -4.2383   -3.7365 C   0  0  0  0  0  0  0  0  0  0  0  0
   -3.9252   -5.1652   -3.9464 S   0  0  0  0  0  0  0  0  0  0  0  0
   -3.5086   -6.3072   -5.2996 C   0  0  0  0  0  0  0  0  0  0  0  0
   -1.1923   -4.6870   -4.1540 C   0  0  0  0  0  0  0  0  0  0  0  0
   -0.0691   -3.9157   -3.9331 C   0  0  0  0  0  0  0  0  0  0  0  0
    1.9927   -1.8236   -3.9852 C   0  0  0  0  0  0  0  0  0  0  0  0
    3.3351   -1.7204   -3.6175 C   0  0  0  0  0  0  0  0  0  0  0  0
    4.3164   -1.6265   -4.5783 C   0  0  0  0  0  0  0  0  0  0  0  0
    3.9904   -1.6532   -5.9325 C   0  0  0  0  0  0  0  0  0  0  0  0
    5.3282   -1.5267   -7.0781 S   0  0  0  0  0  0  0  0  0  0  0  0
    4.5066   -1.1291   -8.6487 C   0  0  0  0  0  0  0  0  0  0  0  0
    2.6591   -1.7867   -6.3047 C   0  0  0  0  0  0  0  0  0  0  0  0
    1.6720   -1.8532   -5.3417 C   0  0  0  0  0  0  0  0  0  0  0  0
    0.6478   -2.1415   -0.6025 C   0  0  0  0  0  0  0  0  0  0  0  0
   -0.3364   -3.5432   -0.3833 S   0  0  0  0  0  0  0  0  0  0  0  0
    2.2657    0.8430   -2.0732 C   0  0  0  0  0  0  0  0  0  0  0  0
    2.0044    1.2627   -3.3489 C   0  0  0  0  0  0  0  0  0  0  0  0
    2.4685    2.5737   -3.6209 C   0  0  0  0  0  0  0  0  0  0  0  0
    2.2755    3.3371   -4.7925 C   0  0  0  0  0  0  0  0  0  0  0  0
    1.6944    2.7494   -5.9815 C   0  0  0  0  0  0  0  0  0  0  0  0
    1.9540    1.5187   -6.5152 C   0  0  0  0  0  0  0  0  0  0  0  0
    1.2236    1.2589   -7.6913 C   0  0  0  0  0  0  0  0  0  0  0  0
    0.4012    2.2804   -8.0561 C   0  0  0  0  0  0  0  0  0  0  0  0
   -0.4787    2.3809   -9.2539 C   0  0  0  0  0  0  0  0  0  0  0  0
    0.1703    3.2416  -10.3404 C   0  0  0  0  0  0  0  0  0  0  0  0
    0.5261    3.6052   -6.9475 S   0  0  0  0  0  0  0  0  0  0  0  0
    2.6753    4.6675   -4.7406 C   0  0  0  0  0  0  0  0  0  0  0  0
    3.2890    5.2547   -3.6032 C   0  0  0  0  0  0  0  0  0  0  0  0
    3.5089    4.4855   -2.4380 C   0  0  0  0  0  0  0  0  0  0  0  0
    4.0741    5.0675   -1.2414 C   0  0  0  0  0  0  0  0  0  0  0  0
    3.8450    6.3057   -0.7034 C   0  0  0  0  0  0  0  0  0  0  0  0
    4.5528    6.5265    0.4938 C   0  0  0  0  0  0  0  0  0  0  0  0
    5.3282    5.4728    0.8739 C   0  0  0  0  0  0  0  0  0  0  0  0
    6.2346    5.3652    2.0510 C   0  0  0  0  0  0  0  0  0  0  0  0
    5.9372    4.1278    2.8958 C   0  0  0  0  0  0  0  0  0  0  0  0
    5.1799    4.1597   -0.2446 S   0  0  0  0  0  0  0  0  0  0  0  0
    3.0981    3.1615   -2.4952 C   0  0  0  0  0  0  0  0  0  0  0  0
    3.1583    2.0462   -1.1605 S   0  0  0  0  0  0  0  0  0  0  0  0
    3.6221    6.6055   -3.8143 C   0  0  0  0  0  0  0  0  0  0  0  0
    3.2466    7.0842   -5.0441 C   0  0  0  0  0  0  0  0  0  0  0  0
    2.5276    5.8202   -6.0351 S   0  0  0  0  0  0  0  0  0  0  0  0
    3.3769    8.3787   -5.5973 C   0  0  0  0  0  0  0  0  0  0  0  0
    3.4507    9.5653   -4.9249 C   0  0  0  0  0  0  0  0  0  0  0  0
    3.0917    9.7973   -3.5044 C   0  0  0  0  0  0  0  0  0  0  0  0
    2.8846    8.9811   -2.6295 O   0  0  0  0  0  0  0  0  0  0  0  0
    2.9556   11.2582   -3.3624 C   0  0  0  0  0  0  0  0  0  0  0  0
    2.5564   11.9453   -2.2173 C   0  0  0  0  0  0  0  0  0  0  0  0
    2.5147   13.3097   -2.3704 C   0  0  0  0  0  0  0  0  0  0  0  0
    2.8382   13.9462   -3.5766 C   0  0  0  0  0  0  0  0  0  0  0  0
    3.2271   13.2806   -4.7147 C   0  0  0  0  0  0  0  0  0  0  0  0
    3.2832   11.8897   -4.5781 C   0  0  0  0  0  0  0  0  0  0  0  0
    3.6476   10.8620   -5.5478 C   0  0  0  0  0  0  0  0  0  0  0  0
    4.1661   11.0865   -6.7962 C   0  0  0  0  0  0  0  0  0  0  0  0
    4.3706   12.3647   -7.3557 C   0  0  0  0  0  0  0  0  0  0  0  0
    4.5652   13.3733   -7.8691 N   0  0  0  0  0  0  0  0  0  0  0  0
    4.6091   10.0803   -7.6812 C   0  0  0  0  0  0  0  0  0  0  0  0
    5.0102    9.3266   -8.4493 N   0  0  0  0  0  0  0  0  0  0  0  0
    2.5803   15.3211   -3.0120 C   0  0  0  0  0  0  0  0  0  0  0  0
    3.8232   16.1551   -2.6352 C   0  0  0  0  0  0  0  0  0  0  0  0
    3.2811   17.2056   -1.6929 C   0  0  0  0  0  0  0  0  0  0  0  0
    2.9741   16.6037   -0.5510 C   0  0  0  0  0  0  0  0  0  0  0  0
    3.3036   15.1361   -0.7022 C   0  0  0  0  0  0  0  0  0  0  0  0
    4.5230   15.2335   -1.6279 C   0  0  0  0  0  0  0  0  0  0  0  0
    2.2198   14.6112   -1.6676 C   0  0  0  0  0  0  0  0  0  0  0  0
   -8.1032   -7.3871    6.6687 H   0  0  0  0  0  0  0  0  0  0  0  0
   -8.8670  -12.4025    2.9797 H   0  0  0  0  0  0  0  0  0  0  0  0
  -12.2972  -13.2845    5.3997 H   0  0  0  0  0  0  0  0  0  0  0  0
  -12.0090  -11.1930    6.6449 H   0  0  0  0  0  0  0  0  0  0  0  0
   -6.5556   -8.1157    3.1502 H   0  0  0  0  0  0  0  0  0  0  0  0
   -5.0011   -9.3905    2.3006 H   0  0  0  0  0  0  0  0  0  0  0  0
   -5.2669  -10.3909   -0.0628 H   0  0  0  0  0  0  0  0  0  0  0  0
   -5.3016   -9.5553   -2.5976 H   0  0  0  0  0  0  0  0  0  0  0  0
   -4.9246   -7.8444   -2.8795 H   0  0  0  0  0  0  0  0  0  0  0  0
   -2.5055   -8.3139   -2.5827 H   0  0  0  0  0  0  0  0  0  0  0  0
   -3.1778   -9.3420   -3.8619 H   0  0  0  0  0  0  0  0  0  0  0  0
   -2.8570  -10.0123   -2.2606 H   0  0  0  0  0  0  0  0  0  0  0  0
   -5.2960   -3.5444    6.6429 H   0  0  0  0  0  0  0  0  0  0  0  0
   -4.1895   -2.4289    8.6997 H   0  0  0  0  0  0  0  0  0  0  0  0
   -0.5241   -2.0411    8.5437 H   0  0  0  0  0  0  0  0  0  0  0  0
   -1.8604   -1.9568    9.6997 H   0  0  0  0  0  0  0  0  0  0  0  0
   -0.0416   -3.4452   10.5431 H   0  0  0  0  0  0  0  0  0  0  0  0
   -0.2064   -4.4637    9.1006 H   0  0  0  0  0  0  0  0  0  0  0  0
   -1.5231   -4.3634   10.2673 H   0  0  0  0  0  0  0  0  0  0  0  0
   -1.4747   -3.2034    4.0353 H   0  0  0  0  0  0  0  0  0  0  0  0
   -0.8763    0.1669    2.3301 H   0  0  0  0  0  0  0  0  0  0  0  0
   -0.3157    2.5537    2.2443 H   0  0  0  0  0  0  0  0  0  0  0  0
    1.4702    3.6892    0.6363 H   0  0  0  0  0  0  0  0  0  0  0  0
    0.3168    4.7169    1.5480 H   0  0  0  0  0  0  0  0  0  0  0  0
    1.8884    5.3709    1.0374 H   0  0  0  0  0  0  0  0  0  0  0  0
    3.5177    1.7106    3.9359 H   0  0  0  0  0  0  0  0  0  0  0  0
    2.9520   -0.6889    4.0221 H   0  0  0  0  0  0  0  0  0  0  0  0
    0.8016   -1.1316    5.5822 H   0  0  0  0  0  0  0  0  0  0  0  0
    1.4840   -2.5440    7.4444 H   0  0  0  0  0  0  0  0  0  0  0  0
    2.2527   -3.7192    9.2896 H   0  0  0  0  0  0  0  0  0  0  0  0
    3.5657   -4.9045    9.4284 H   0  0  0  0  0  0  0  0  0  0  0  0
    3.6893   -3.5982    8.2264 H   0  0  0  0  0  0  0  0  0  0  0  0
    1.9468   -5.8478    4.7776 H   0  0  0  0  0  0  0  0  0  0  0  0
    1.3495   -4.4120    2.8873 H   0  0  0  0  0  0  0  0  0  0  0  0
   -1.5112   -1.2741   -2.3940 H   0  0  0  0  0  0  0  0  0  0  0  0
   -3.5162   -2.6623   -2.7756 H   0  0  0  0  0  0  0  0  0  0  0  0
   -4.4477   -6.7564   -5.6074 H   0  0  0  0  0  0  0  0  0  0  0  0
   -3.0776   -5.7478   -6.1243 H   0  0  0  0  0  0  0  0  0  0  0  0
   -2.8303   -7.0794   -4.9507 H   0  0  0  0  0  0  0  0  0  0  0  0
   -1.0795   -5.6453   -4.6348 H   0  0  0  0  0  0  0  0  0  0  0  0
    0.9000   -4.2774   -4.2436 H   0  0  0  0  0  0  0  0  0  0  0  0
    3.6111   -1.7204   -2.5746 H   0  0  0  0  0  0  0  0  0  0  0  0
    5.3522   -1.5379   -4.2897 H   0  0  0  0  0  0  0  0  0  0  0  0
    3.9512   -1.9881   -9.0146 H   0  0  0  0  0  0  0  0  0  0  0  0
    3.8625   -0.2652   -8.5140 H   0  0  0  0  0  0  0  0  0  0  0  0
    5.3060   -0.8893   -9.3428 H   0  0  0  0  0  0  0  0  0  0  0  0
    2.3757   -1.8308   -7.3436 H   0  0  0  0  0  0  0  0  0  0  0  0
    0.6381   -1.9279   -5.6448 H   0  0  0  0  0  0  0  0  0  0  0  0
    1.4339    0.6881   -4.0538 H   0  0  0  0  0  0  0  0  0  0  0  0
    2.6733    0.8406   -6.0921 H   0  0  0  0  0  0  0  0  0  0  0  0
    1.2979    0.3423   -8.2499 H   0  0  0  0  0  0  0  0  0  0  0  0
   -1.4362    2.8238   -8.9711 H   0  0  0  0  0  0  0  0  0  0  0  0
   -0.6656    1.3772   -9.6423 H   0  0  0  0  0  0  0  0  0  0  0  0
    1.1196    2.8097  -10.6494 H   0  0  0  0  0  0  0  0  0  0  0  0
   -0.4811    3.3082  -11.2081 H   0  0  0  0  0  0  0  0  0  0  0  0
    0.3546    4.2452   -9.9643 H   0  0  0  0  0  0  0  0  0  0  0  0
    3.1685    7.0244   -1.1301 H   0  0  0  0  0  0  0  0  0  0  0  0
    4.4889    7.4421    1.0551 H   0  0  0  0  0  0  0  0  0  0  0  0
    6.1228    6.2663    2.6578 H   0  0  0  0  0  0  0  0  0  0  0  0
    7.2717    5.3199    1.7031 H   0  0  0  0  0  0  0  0  0  0  0  0
    4.9172    4.1655    3.2700 H   0  0  0  0  0  0  0  0  0  0  0  0
    6.6200    4.0765    3.7403 H   0  0  0  0  0  0  0  0  0  0  0  0
    6.0534    3.2270    2.2970 H   0  0  0  0  0  0  0  0  0  0  0  0
    4.1662    7.1953   -3.1039 H   0  0  0  0  0  0  0  0  0  0  0  0
    3.3520    8.4125   -6.6803 H   0  0  0  0  0  0  0  0  0  0  0  0
    2.3097   11.4146   -1.3110 H   0  0  0  0  0  0  0  0  0  0  0  0
    3.4593   13.7828   -5.6388 H   0  0  0  0  0  0  0  0  0  0  0  0
    1.8126   15.9052   -3.5158 H   0  0  0  0  0  0  0  0  0  0  0  0
    4.4067   16.5091   -3.4805 H   0  0  0  0  0  0  0  0  0  0  0  0
    3.1297   18.2339   -1.9640 H   0  0  0  0  0  0  0  0  0  0  0  0
    2.5149   17.0286    0.3224 H   0  0  0  0  0  0  0  0  0  0  0  0
    3.4139   14.5625    0.2143 H   0  0  0  0  0  0  0  0  0  0  0  0
    4.8411   14.2799   -2.0452 H   0  0  0  0  0  0  0  0  0  0  0  0
    5.3688   15.7195   -1.1445 H   0  0  0  0  0  0  0  0  0  0  0  0
    1.2105   14.7206   -1.2749 H   0  0  0  0  0  0  0  0  0  0  0  0
  1  2  2  0  0  0  0
  2  3  1  0  0  0  0
  3  4  2  0  0  0  0
  3  5  1  0  0  0  0
  5  6  2  0  0  0  0
  6  7  1  0  0  0  0
  7  8  1  0  0  0  0
  7  9  2  0  0  0  0
  9 10  1  0  0  0  0
 10 11  2  0  0  0  0
 11 12  1  0  0  0  0
 12 13  2  0  0  0  0
 13 14  1  0  0  0  0
 14 15  3  0  0  0  0
 13 16  1  0  0  0  0
 16 17  3  0  0  0  0
  1 18  1  0  0  0  0
 18 19  2  0  0  0  0
 19 20  1  0  0  0  0
 20 21  2  0  0  0  0
 21 22  1  0  0  0  0
 22 23  2  0  0  0  0
 23 24  1  0  0  0  0
 24 25  2  0  0  0  0
 25 26  1  0  0  0  0
 26 27  1  0  0  0  0
 25 28  1  0  0  0  0
 21 29  1  0  0  0  0
 29 30  2  0  0  0  0
 30 31  1  0  0  0  0
 31 32  1  0  0  0  0
 32 33  2  0  0  0  0
 33 34  1  0  0  0  0
 34 35  2  0  0  0  0
 35 36  1  0  0  0  0
 36 37  1  0  0  0  0
 35 38  1  0  0  0  0
 31 39  2  0  0  0  0
 39 40  1  0  0  0  0
 30 41  1  0  0  0  0
 41 42  2  0  0  0  0
 42 43  1  0  0  0  0
 42 44  1  0  0  0  0
 44 45  2  0  0  0  0
 45 46  1  0  0  0  0
 46 47  1  0  0  0  0
 47 48  2  0  0  0  0
 48 49  1  0  0  0  0
 49 50  2  0  0  0  0
 50 51  1  0  0  0  0
 51 52  1  0  0  0  0
 50 53  1  0  0  0  0
 53 54  2  0  0  0  0
 46 55  1  0  0  0  0
 55 56  2  0  0  0  0
 56 57  1  0  0  0  0
 57 58  2  0  0  0  0
 58 59  1  0  0  0  0
 59 60  1  0  0  0  0
 58 61  1  0  0  0  0
 61 62  2  0  0  0  0
 45 63  1  0  0  0  0
 63 64  1  0  0  0  0
 64 65  1  0  0  0  0
 65 66  2  0  0  0  0
 66 67  1  0  0  0  0
 67 68  1  0  0  0  0
 68 69  2  0  0  0  0
 69 70  1  0  0  0  0
 70 71  2  0  0  0  0
 71 72  1  0  0  0  0
 72 73  1  0  0  0  0
 71 74  1  0  0  0  0
 74 75  2  0  0  0  0
 67 76  1  0  0  0  0
 76 77  2  0  0  0  0
 77 78  1  0  0  0  0
 78 79  2  0  0  0  0
 79 80  1  0  0  0  0
 80 81  1  0  0  0  0
 79 82  1  0  0  0  0
 82 83  2  0  0  0  0
 66 84  1  0  0  0  0
 84 85  1  0  0  0  0
 65 86  1  0  0  0  0
 86 87  2  0  0  0  0
 87 88  1  0  0  0  0
 88 89  2  0  0  0  0
 89 90  1  0  0  0  0
 90 91  2  0  0  0  0
 91 92  1  0  0  0  0
 92 93  2  0  0  0  0
 93 94  1  0  0  0  0
 94 95  1  0  0  0  0
 93 96  1  0  0  0  0
 89 97  1  0  0  0  0
 97 98  2  0  0  0  0
 98 99  1  0  0  0  0
 99100  1  0  0  0  0
100101  2  0  0  0  0
101102  1  0  0  0  0
102103  2  0  0  0  0
103104  1  0  0  0  0
104105  1  0  0  0  0
103106  1  0  0  0  0
 99107  2  0  0  0  0
107108  1  0  0  0  0
 98109  1  0  0  0  0
109110  2  0  0  0  0
110111  1  0  0  0  0
110112  1  0  0  0  0
112113  2  0  0  0  0
113114  1  0  0  0  0
114115  2  0  0  0  0
114116  1  0  0  0  0
116117  2  0  0  0  0
117118  1  0  0  0  0
118119  2  0  0  0  0
119120  1  0  0  0  0
120121  2  0  0  0  0
121122  1  0  0  0  0
122123  2  0  0  0  0
123124  1  0  0  0  0
124125  3  0  0  0  0
123126  1  0  0  0  0
126127  3  0  0  0  0
119128  1  0  0  0  0
128129  1  0  0  0  0
129130  1  0  0  0  0
130131  2  0  0  0  0
131132  1  0  0  0  0
132133  1  0  0  0  0
132134  1  0  0  0  0
 12  2  1  0  0  0  0
 40 18  1  0  0  0  0
 85 44  1  0  0  0  0
108 86  1  0  0  0  0
122113  1  0  0  0  0
134128  1  0  0  0  0
 11  5  1  0  0  0  0
 39 20  1  0  0  0  0
 54 47  1  0  0  0  0
 62 55  1  0  0  0  0
 84 63  2  0  0  0  0
107 88  1  0  0  0  0
121116  1  0  0  0  0
133129  1  0  0  0  0
 28 22  1  0  0  0  0
 43 29  1  0  0  0  0
 75 68  1  0  0  0  0
 83 76  1  0  0  0  0
 96 90  1  0  0  0  0
111 97  1  0  0  0  0
134118  1  0  0  0  0
 38 32  1  0  0  0  0
106100  1  0  0  0  0
  1135  1  0  0  0  0
  6136  1  0  0  0  0
  9137  1  0  0  0  0
 10138  1  0  0  0  0
 19139  1  0  0  0  0
 23140  1  0  0  0  0
 24141  1  0  0  0  0
 26142  1  0  0  0  0
 26143  1  0  0  0  0
 27144  1  0  0  0  0
 27145  1  0  0  0  0
 27146  1  0  0  0  0
 33147  1  0  0  0  0
 34148  1  0  0  0  0
 36149  1  0  0  0  0
 36150  1  0  0  0  0
 37151  1  0  0  0  0
 37152  1  0  0  0  0
 37153  1  0  0  0  0
 41154  1  0  0  0  0
 48155  1  0  0  0  0
 49156  1  0  0  0  0
 52157  1  0  0  0  0
 52158  1  0  0  0  0
 52159  1  0  0  0  0
 53160  1  0  0  0  0
 54161  1  0  0  0  0
 56162  1  0  0  0  0
 57163  1  0  0  0  0
 60164  1  0  0  0  0
 60165  1  0  0  0  0
 60166  1  0  0  0  0
 61167  1  0  0  0  0
 62168  1  0  0  0  0
 69169  1  0  0  0  0
 70170  1  0  0  0  0
 73171  1  0  0  0  0
 73172  1  0  0  0  0
 73173  1  0  0  0  0
 74174  1  0  0  0  0
 75175  1  0  0  0  0
 77176  1  0  0  0  0
 78177  1  0  0  0  0
 81178  1  0  0  0  0
 81179  1  0  0  0  0
 81180  1  0  0  0  0
 82181  1  0  0  0  0
 83182  1  0  0  0  0
 87183  1  0  0  0  0
 91184  1  0  0  0  0
 92185  1  0  0  0  0
 94186  1  0  0  0  0
 94187  1  0  0  0  0
 95188  1  0  0  0  0
 95189  1  0  0  0  0
 95190  1  0  0  0  0
101191  1  0  0  0  0
102192  1  0  0  0  0
104193  1  0  0  0  0
104194  1  0  0  0  0
105195  1  0  0  0  0
105196  1  0  0  0  0
105197  1  0  0  0  0
109198  1  0  0  0  0
112199  1  0  0  0  0
117200  1  0  0  0  0
120201  1  0  0  0  0
128202  1  0  0  0  0
129203  1  0  0  0  0
130204  1  0  0  0  0
131205  1  0  0  0  0
132206  1  0  0  0  0
133207  1  0  0  0  0
133208  1  0  0  0  0
134209  1  0  0  0  0
M  END
