207

C         -7.22120        3.93570        0.96720
C         -7.31940        5.29310        0.73450
C         -6.68750        5.96320       -0.41020
O         -6.02790        5.45020       -1.29510
C         -7.15880        7.36760       -0.35490
C         -6.83170        8.41830       -1.18450
C         -7.38520        9.66030       -0.89500
Cl        -6.97780       11.02070       -1.87840
C         -8.25050        9.83340        0.17800
C         -8.58430        8.76550        0.99910
C         -8.03240        7.52260        0.73410
C         -8.15360        6.23980        1.42350
C         -8.82950        6.02560        2.59920
C         -8.81270        4.81190        3.30960
N         -8.82510        3.86180        3.95610
C         -9.59890        7.00260        3.26080
N        -10.25250        7.75150        3.83580
C         -6.14700        3.12260        0.59770
C         -4.78730        3.40480        0.36810
N         -4.13200        4.60980        0.38470
C         -4.48200        5.68750        1.19050
C         -4.26350        6.99120        0.74370
C         -4.67530        8.07440        1.49310
C         -5.32000        7.87600        2.70790
S         -5.99070        9.16640        3.69760
C         -5.66850       10.67180        2.73610
C         -5.47590        6.57570        3.19120
C         -5.06510        5.49470        2.44640
C         -3.05270        4.71070       -0.52520
C         -3.25530        4.29740       -1.84080
C         -2.19560        4.21830       -2.71610
C         -0.91810        4.55330       -2.28410
S          0.48110        4.35160       -3.34080
C          0.04650        2.82730       -4.23130
C         -0.72640        5.05460       -1.00110
C         -1.78950        5.13470       -0.12230
C         -4.07420        2.21080        0.11060
S         -2.39360        1.89750       -0.11550
C         -2.71830        0.18120       -0.25710
C         -4.07020       -0.11680       -0.23240
N         -4.58310       -1.33980       -0.69810
C         -4.49530       -1.62200       -2.06610
C         -5.30770       -2.61930       -2.61880
C         -5.26120       -2.90820       -3.96270
C         -4.41360       -2.20470       -4.81470
S         -4.42620       -2.67830       -6.51860
C         -3.40420       -1.41340       -7.32610
C         -3.62890       -1.19340       -4.28600
C         -3.67430       -0.90450       -2.93410
C         -5.14270       -2.29880        0.17180
C         -4.64950       -3.60000        0.14230
C         -5.13220       -4.56720        0.99920
C         -6.13500       -4.24720        1.90490
S         -6.78010       -5.37960        3.09450
C         -5.87130       -6.91680        2.77210
C         -6.66910       -2.95990        1.90500
C         -6.17810       -1.99460        1.05040
C         -4.82640        1.04550        0.06730
S         -6.47350        1.38530        0.45860
C         -1.56260       -0.66600       -0.34380
C         -1.19250       -1.72050        0.47610
N         -1.91310       -2.17030        1.57050
C         -2.61830       -1.22650        2.33950
C         -3.85180       -1.53440        2.90150
C         -4.61790       -0.55640        3.50450
C         -4.16230        0.75310        3.55750
S         -5.12750        2.10730        4.14600
C         -6.78860        1.40460        4.31910
C         -2.87390        1.03940        3.11080
C         -2.10720        0.06060        2.52020
C         -1.89490       -3.52390        1.91280
C         -2.04330       -3.92690        3.23790
C         -2.09500       -5.26560        3.57100
C         -1.97240       -6.23450        2.58450
S         -2.08350       -7.97520        2.87990
C         -2.09770       -8.11170        4.68970
C         -1.77440       -5.83910        1.26400
C         -1.73840       -4.50410        0.93030
C          0.11840       -2.16590        0.15740
S          1.13500       -3.44360        0.72610
C          2.46810       -2.85010       -0.25180
C          2.11540       -1.75470       -1.01970
N          2.92510       -1.09980       -1.93480
C          3.77590       -1.85150       -2.75350
C          5.05120       -1.41090       -3.09480
C          5.87110       -2.17310       -3.90360
C          5.43700       -3.40360       -4.37530
S          6.38400       -4.45650       -5.42500
C          8.03270       -3.70130       -5.40910
C          4.16130       -3.85050       -4.03760
C          3.33990       -3.08390       -3.24450
C          3.00880        0.29420       -1.84490
C          3.26880        1.07810       -2.96600
C          3.38060        2.45220       -2.85850
C          3.21200        3.07270       -1.62810
S          3.36230        4.80870       -1.35060
C          3.89460        5.47080       -2.95130
C          2.91530        2.29540       -0.51060
C          2.82290        0.92720       -0.61360
C          0.76710       -1.38930       -0.78660
S         -0.25250       -0.14030       -1.39900
C          3.74780       -3.50500       -0.15190
C          4.94340       -2.74040       -0.07150
N          4.85960       -1.39520        0.03570
C          5.95390       -0.71440        0.16810
C          7.22250       -1.35890        0.24440
O          8.29590       -0.58920        0.41510
C          9.56800       -1.22810        0.45970
C          9.80630       -1.99060        1.75560
N          7.32530       -2.66180        0.17930
C          6.20310       -3.38360       -0.00570
C          6.27210       -4.80630       -0.01810
C          5.07660       -5.51610        0.00760
C          3.84530       -4.88530       -0.06280
C          7.52370       -5.49660        0.09000
C          8.71250       -5.10980       -0.44340
C          8.87970       -4.14240       -1.55330
O          8.02200       -3.58690       -2.20760
C         10.33540       -4.09290       -1.81900
C         11.01170       -3.32920       -2.74010
C         12.40310       -3.46770       -2.84030
O         13.00310       -2.68500       -3.76210
C         14.39970       -2.77180       -3.93580
C         13.06410       -4.37560       -2.01030
C         12.37370       -5.14320       -1.08540
C         10.99780       -5.00870       -0.97950
C         10.02040       -5.66010       -0.12120
C         10.30610       -6.57310        0.86040
C          9.36850       -7.16630        1.73140
N          8.67930       -7.68840        2.48780
C         11.60530       -7.04220        1.14600
N         12.63640       -7.46280        1.42590
H         -8.04520        3.43280        1.45910
H         -6.16040        8.27800       -2.01670
H         -8.66740       10.80960        0.37160
H         -9.25840        8.92080        1.82530
H         -3.79230        7.15100       -0.21440
H         -4.50840        9.06630        1.10660
H         -4.59870       10.83710        2.64880
H         -6.14140       10.59600        1.76120
H         -6.11990       11.47900        3.30450
H         -5.93750        6.42440        4.15510
H         -5.18830        4.49670        2.83810
H         -4.25300        4.04220       -2.16140
H         -2.36680        3.89110       -3.72930
H         -0.63870        3.04120       -5.04650
H          0.97690        2.43190       -4.62590
H         -0.38290        2.12140       -3.52690
H          0.26590        5.34290       -0.69030
H         -1.63760        5.48500        0.88770
H         -5.99510       -3.16190       -1.98890
H         -5.89420       -3.68100       -4.37110
H         -3.81350       -0.42740       -7.12630
H         -3.45900       -1.62810       -8.38870
H         -2.37460       -1.49050       -6.98810
H         -2.96750       -0.61370       -4.91010
H         -3.05700       -0.09770       -2.57230
H         -3.87820       -3.85510       -0.56720
H         -4.70790       -5.55660        0.95580
H         -6.09020       -7.27580        1.77080
H         -4.80580       -6.75630        2.90610
H         -6.23540       -7.62990        3.50520
H         -7.47170       -2.72650        2.58790
H         -6.60140       -1.00360        1.06240
H         -4.22610       -2.54320        2.84930
H         -5.57790       -0.83070        3.90910
H         -7.06330        0.89780        3.39850
H         -6.82070        0.73010        5.16970
H         -7.45230        2.24900        4.48600
H         -2.48930        2.04250        3.21670
H         -1.11270        0.29900        2.17300
H         -2.12260       -3.18480        4.01760
H         -2.22860       -5.53660        4.60590
H         -2.07900       -9.17650        4.90070
H         -3.00510       -7.67360        5.09560
H         -1.21110       -7.63770        5.10020
H         -1.66440       -6.59410        0.50060
H         -1.60410       -4.21720       -0.10130
H          5.40900       -0.46520       -2.71530
H          6.85210       -1.79960       -4.14410
H          8.02270       -2.76770       -5.96500
H          8.32910       -3.55110       -4.37570
H          8.69380       -4.41320       -5.89340
H          3.82150       -4.80320       -4.41430
H          2.34840       -3.43600       -3.00060
H          3.39280        0.60540       -3.92960
H          3.59250        3.02940       -3.74450
H          4.82050        4.99310       -3.25780
H          3.10660        5.33060       -3.68530
H          4.06190        6.53080       -2.78800
H          2.77960        2.78120        0.44370
H          2.64040        0.33280        0.26770
H          5.87340        0.35980        0.25560
H          9.65710       -1.90400       -0.39670
H         10.28380       -0.40920        0.35540
H         10.81840       -2.38610        1.75940
H          9.68050       -1.32980        2.60970
H          9.10310       -2.81520        1.83860
H          5.11430       -6.59510        0.04310
H          2.94120       -5.47650       -0.07140
H          7.49410       -6.40280        0.68250
H         10.50080       -2.62720       -3.38000
H         14.70260       -3.77590       -4.24680
H         14.93510       -2.49330       -3.02320
H         14.64050       -2.06230       -4.72540
H         14.13330       -4.49720       -2.07900
H         12.92050       -5.83670       -0.46810
