
  xtb     02062201463D
 energy: -426.896568455744 gnorm: 0.000382266942 xtb: 6.4.1 (unknown)
261285  0     0  0            999 V2000
   -0.3955   -2.9608   -9.4853 C   0  0  0  0  0  0  0  0  0  0  0  0
    0.3881   -2.5167  -10.5297 C   0  0  0  0  0  0  0  0  0  0  0  0
    0.2393   -3.1270  -11.8635 C   0  0  0  0  0  0  0  0  0  0  0  0
   -0.5737   -3.9586  -12.2119 O   0  0  0  0  0  0  0  0  0  0  0  0
    1.3634   -2.5883  -12.6665 C   0  0  0  0  0  0  0  0  0  0  0  0
    1.7202   -2.8917  -13.9628 C   0  0  0  0  0  0  0  0  0  0  0  0
    2.8542   -2.2746  -14.4786 C   0  0  0  0  0  0  0  0  0  0  0  0
    3.3588   -2.6427  -16.0846 Cl  0  0  0  0  0  0  0  0  0  0  0  0
    3.5876   -1.3684  -13.7244 C   0  0  0  0  0  0  0  0  0  0  0  0
    3.2078   -1.0531  -12.4278 C   0  0  0  0  0  0  0  0  0  0  0  0
    2.0944   -1.6752  -11.8883 C   0  0  0  0  0  0  0  0  0  0  0  0
    1.4509   -1.5574  -10.5807 C   0  0  0  0  0  0  0  0  0  0  0  0
    1.6778   -0.5534   -9.6627 C   0  0  0  0  0  0  0  0  0  0  0  0
    2.7783    0.3184   -9.7057 C   0  0  0  0  0  0  0  0  0  0  0  0
    3.6905    1.0165   -9.6615 N   0  0  0  0  0  0  0  0  0  0  0  0
    0.7886   -0.2649   -8.6162 C   0  0  0  0  0  0  0  0  0  0  0  0
    0.0669    0.0253   -7.7694 N   0  0  0  0  0  0  0  0  0  0  0  0
   -0.1748   -2.9488   -8.1072 C   0  0  0  0  0  0  0  0  0  0  0  0
    0.9901   -2.8124   -7.3149 C   0  0  0  0  0  0  0  0  0  0  0  0
    2.2899   -2.7898   -7.7608 N   0  0  0  0  0  0  0  0  0  0  0  0
    2.7156   -3.4722   -8.9092 C   0  0  0  0  0  0  0  0  0  0  0  0
    3.8236   -3.0004   -9.6203 C   0  0  0  0  0  0  0  0  0  0  0  0
    4.2222   -3.6202  -10.7816 C   0  0  0  0  0  0  0  0  0  0  0  0
    3.5160   -4.7153  -11.2774 C   0  0  0  0  0  0  0  0  0  0  0  0
    4.0228   -5.3607  -12.8337 S   0  0  0  0  0  0  0  0  0  0  0  0
    2.5897   -6.3469  -13.3563 C   0  0  0  0  0  0  0  0  0  0  0  0
    2.4625   -5.2343  -10.5356 C   0  0  0  0  0  0  0  0  0  0  0  0
    2.0748   -4.6231   -9.3603 C   0  0  0  0  0  0  0  0  0  0  0  0
    3.2967   -2.2622   -6.9145 C   0  0  0  0  0  0  0  0  0  0  0  0
    3.1805   -0.9821   -6.3747 C   0  0  0  0  0  0  0  0  0  0  0  0
    4.1891   -0.4703   -5.5891 C   0  0  0  0  0  0  0  0  0  0  0  0
    5.3305   -1.2230   -5.3209 C   0  0  0  0  0  0  0  0  0  0  0  0
    6.5656   -0.4558   -4.3274 S   0  0  0  0  0  0  0  0  0  0  0  0
    7.6726   -1.8213   -3.8680 C   0  0  0  0  0  0  0  0  0  0  0  0
    5.4449   -2.5015   -5.8524 C   0  0  0  0  0  0  0  0  0  0  0  0
    4.4334   -3.0151   -6.6387 C   0  0  0  0  0  0  0  0  0  0  0  0
    0.6573   -2.7930   -5.9469 C   0  0  0  0  0  0  0  0  0  0  0  0
    1.5770   -2.6483   -4.4829 S   0  0  0  0  0  0  0  0  0  0  0  0
    0.1167   -2.7818   -3.5163 C   0  0  0  0  0  0  0  0  0  0  0  0
   -1.0104   -2.9990   -4.3053 C   0  0  0  0  0  0  0  0  0  0  0  0
   -2.2999   -3.1755   -3.8029 N   0  0  0  0  0  0  0  0  0  0  0  0
   -2.5852   -4.2891   -3.0176 C   0  0  0  0  0  0  0  0  0  0  0  0
   -1.7246   -5.3860   -3.0125 C   0  0  0  0  0  0  0  0  0  0  0  0
   -1.9817   -6.4879   -2.2216 C   0  0  0  0  0  0  0  0  0  0  0  0
   -3.1235   -6.5281   -1.4365 C   0  0  0  0  0  0  0  0  0  0  0  0
   -3.5510   -7.8997   -0.4028 S   0  0  0  0  0  0  0  0  0  0  0  0
   -2.4688   -9.2344   -0.9888 C   0  0  0  0  0  0  0  0  0  0  0  0
   -3.9853   -5.4342   -1.4312 C   0  0  0  0  0  0  0  0  0  0  0  0
   -3.7130   -4.3223   -2.1941 C   0  0  0  0  0  0  0  0  0  0  0  0
   -3.2761   -2.2995   -4.3048 C   0  0  0  0  0  0  0  0  0  0  0  0
   -4.5407   -2.7352   -4.6839 C   0  0  0  0  0  0  0  0  0  0  0  0
   -5.4681   -1.8431   -5.1892 C   0  0  0  0  0  0  0  0  0  0  0  0
   -5.1367   -0.5040   -5.3430 C   0  0  0  0  0  0  0  0  0  0  0  0
   -6.2450    0.7269   -5.9583 S   0  0  0  0  0  0  0  0  0  0  0  0
   -7.6411   -0.2322   -6.6117 C   0  0  0  0  0  0  0  0  0  0  0  0
   -3.8636   -0.0677   -4.9834 C   0  0  0  0  0  0  0  0  0  0  0  0
   -2.9466   -0.9526   -4.4663 C   0  0  0  0  0  0  0  0  0  0  0  0
   -0.6942   -2.9768   -5.6726 C   0  0  0  0  0  0  0  0  0  0  0  0
   -1.6186   -3.1859   -7.1070 S   0  0  0  0  0  0  0  0  0  0  0  0
    0.1263   -2.4433   -2.1472 C   0  0  0  0  0  0  0  0  0  0  0  0
    1.2375   -1.9976   -1.4299 C   0  0  0  0  0  0  0  0  0  0  0  0
    2.5466   -2.2519   -1.7947 N   0  0  0  0  0  0  0  0  0  0  0  0
    3.4951   -1.2157   -1.6614 C   0  0  0  0  0  0  0  0  0  0  0  0
    4.6628   -1.3972   -0.9279 C   0  0  0  0  0  0  0  0  0  0  0  0
    5.5811   -0.3714   -0.8318 C   0  0  0  0  0  0  0  0  0  0  0  0
    5.3631    0.8490   -1.4610 C   0  0  0  0  0  0  0  0  0  0  0  0
    6.3958    1.9284   -1.4110 C   0  0  0  0  0  0  0  0  0  0  0  0
    4.1876    1.0222   -2.1799 C   0  0  0  0  0  0  0  0  0  0  0  0
    3.2592    0.0038   -2.2823 C   0  0  0  0  0  0  0  0  0  0  0  0
    2.9621   -3.5514   -2.0939 C   0  0  0  0  0  0  0  0  0  0  0  0
    2.2525   -4.6668   -1.6546 C   0  0  0  0  0  0  0  0  0  0  0  0
    2.6808   -5.9378   -1.9851 C   0  0  0  0  0  0  0  0  0  0  0  0
    3.8211   -6.1405   -2.7502 C   0  0  0  0  0  0  0  0  0  0  0  0
    4.2873   -7.5175   -3.1128 C   0  0  0  0  0  0  0  0  0  0  0  0
    4.5268   -5.0219   -3.1823 C   0  0  0  0  0  0  0  0  0  0  0  0
    4.1079   -3.7482   -2.8655 C   0  0  0  0  0  0  0  0  0  0  0  0
    0.8371   -1.3005   -0.2713 C   0  0  0  0  0  0  0  0  0  0  0  0
    1.6530   -0.2960    0.8667 S   0  0  0  0  0  0  0  0  0  0  0  0
    0.1281    0.0362    1.6932 C   0  0  0  0  0  0  0  0  0  0  0  0
   -0.9411   -0.6566    1.1432 C   0  0  0  0  0  0  0  0  0  0  0  0
   -2.2433   -0.6989    1.6038 N   0  0  0  0  0  0  0  0  0  0  0  0
   -2.9476   -1.9171    1.5541 C   0  0  0  0  0  0  0  0  0  0  0  0
   -2.3156   -3.1299    1.8141 C   0  0  0  0  0  0  0  0  0  0  0  0
   -3.0536   -4.2946    1.8867 C   0  0  0  0  0  0  0  0  0  0  0  0
   -4.4328   -4.2845    1.7160 C   0  0  0  0  0  0  0  0  0  0  0  0
   -5.2390   -5.5280    1.9300 C   0  0  0  0  0  0  0  0  0  0  0  0
   -5.0454   -3.0796    1.3939 C   0  0  0  0  0  0  0  0  0  0  0  0
   -4.3171   -1.9109    1.3042 C   0  0  0  0  0  0  0  0  0  0  0  0
   -2.8362    0.3841    2.2713 C   0  0  0  0  0  0  0  0  0  0  0  0
   -2.6142    1.6803    1.8226 C   0  0  0  0  0  0  0  0  0  0  0  0
   -3.1518    2.7567    2.5001 C   0  0  0  0  0  0  0  0  0  0  0  0
   -3.9514    2.5736    3.6205 C   0  0  0  0  0  0  0  0  0  0  0  0
   -4.4810    3.7391    4.3951 C   0  0  0  0  0  0  0  0  0  0  0  0
   -4.2202    1.2702    4.0228 C   0  0  0  0  0  0  0  0  0  0  0  0
   -3.6620    0.1862    3.3756 C   0  0  0  0  0  0  0  0  0  0  0  0
   -0.5248   -1.3596   -0.0166 C   0  0  0  0  0  0  0  0  0  0  0  0
   -1.3783   -2.2000   -1.2645 S   0  0  0  0  0  0  0  0  0  0  0  0
    0.1788    0.9949    2.7553 C   0  0  0  0  0  0  0  0  0  0  0  0
    0.8262    2.2184    2.6900 C   0  0  0  0  0  0  0  0  0  0  0  0
    1.4813    2.7203    1.5594 N   0  0  0  0  0  0  0  0  0  0  0  0
    2.8525    2.9507    1.6148 C   0  0  0  0  0  0  0  0  0  0  0  0
    3.4485    3.8766    0.7614 C   0  0  0  0  0  0  0  0  0  0  0  0
    4.8072    4.1124    0.8132 C   0  0  0  0  0  0  0  0  0  0  0  0
    5.5979    3.4321    1.7281 C   0  0  0  0  0  0  0  0  0  0  0  0
    7.3518    3.6304    1.8610 S   0  0  0  0  0  0  0  0  0  0  0  0
    7.6941    5.1164    0.8756 C   0  0  0  0  0  0  0  0  0  0  0  0
    5.0074    2.5123    2.5890 C   0  0  0  0  0  0  0  0  0  0  0  0
    3.6532    2.2718    2.5343 C   0  0  0  0  0  0  0  0  0  0  0  0
    0.7543    2.8837    0.3684 C   0  0  0  0  0  0  0  0  0  0  0  0
    1.2276    2.3741   -0.8407 C   0  0  0  0  0  0  0  0  0  0  0  0
    0.4445    2.4388   -1.9700 C   0  0  0  0  0  0  0  0  0  0  0  0
   -0.8202    3.0256   -1.9273 C   0  0  0  0  0  0  0  0  0  0  0  0
   -1.7682    2.9588   -3.4160 S   0  0  0  0  0  0  0  0  0  0  0  0
   -3.4260    3.4842   -2.8961 C   0  0  0  0  0  0  0  0  0  0  0  0
   -1.2536    3.6163   -0.7492 C   0  0  0  0  0  0  0  0  0  0  0  0
   -0.4679    3.5438    0.3884 C   0  0  0  0  0  0  0  0  0  0  0  0
    0.7247    2.9119    3.9117 C   0  0  0  0  0  0  0  0  0  0  0  0
    1.2308    4.4775    4.4121 S   0  0  0  0  0  0  0  0  0  0  0  0
    0.4538    4.2381    5.9876 C   0  0  0  0  0  0  0  0  0  0  0  0
   -0.0270    2.9159    6.1447 C   0  0  0  0  0  0  0  0  0  0  0  0
   -0.3609    2.3266    7.3234 N   0  0  0  0  0  0  0  0  0  0  0  0
   -0.0120    2.8500    8.5803 C   0  0  0  0  0  0  0  0  0  0  0  0
    1.2571    3.3598    8.8401 C   0  0  0  0  0  0  0  0  0  0  0  0
    1.5531    3.9201   10.0664 C   0  0  0  0  0  0  0  0  0  0  0  0
    0.5780    3.9870   11.0565 C   0  0  0  0  0  0  0  0  0  0  0  0
    0.7998    4.7715   12.6153 S   0  0  0  0  0  0  0  0  0  0  0  0
    2.4891    5.4273   12.5544 C   0  0  0  0  0  0  0  0  0  0  0  0
   -0.6716    3.4147   10.8232 C   0  0  0  0  0  0  0  0  0  0  0  0
   -0.9616    2.8454    9.6037 C   0  0  0  0  0  0  0  0  0  0  0  0
   -1.0379    1.0853    7.3451 C   0  0  0  0  0  0  0  0  0  0  0  0
   -0.4779    0.0263    8.0505 C   0  0  0  0  0  0  0  0  0  0  0  0
   -1.1139   -1.1987    8.0999 C   0  0  0  0  0  0  0  0  0  0  0  0
   -2.3302   -1.3694    7.4513 C   0  0  0  0  0  0  0  0  0  0  0  0
   -3.2366   -2.8811    7.4217 S   0  0  0  0  0  0  0  0  0  0  0  0
   -2.2116   -4.0312    8.3820 C   0  0  0  0  0  0  0  0  0  0  0  0
   -2.9052   -0.2966    6.7731 C   0  0  0  0  0  0  0  0  0  0  0  0
   -2.2662    0.9221    6.7122 C   0  0  0  0  0  0  0  0  0  0  0  0
    0.0598    2.2178    4.9160 C   0  0  0  0  0  0  0  0  0  0  0  0
   -0.5021    0.6815    4.3391 S   0  0  0  0  0  0  0  0  0  0  0  0
    0.3931    5.3423    6.8336 C   0  0  0  0  0  0  0  0  0  0  0  0
   -0.5222    5.5269    7.8519 C   0  0  0  0  0  0  0  0  0  0  0  0
   -1.8526    4.9080    7.8900 C   0  0  0  0  0  0  0  0  0  0  0  0
   -2.3381    4.1349    7.0792 O   0  0  0  0  0  0  0  0  0  0  0  0
   -2.5382    5.4988    9.0585 C   0  0  0  0  0  0  0  0  0  0  0  0
   -3.8113    5.1960    9.5296 C   0  0  0  0  0  0  0  0  0  0  0  0
   -4.1524    5.8571   10.6867 C   0  0  0  0  0  0  0  0  0  0  0  0
   -3.2970    6.7674   11.3175 C   0  0  0  0  0  0  0  0  0  0  0  0
   -2.0432    7.0889   10.8530 C   0  0  0  0  0  0  0  0  0  0  0  0
   -1.6747    6.4163    9.6880 C   0  0  0  0  0  0  0  0  0  0  0  0
   -0.4128    6.4389    8.9523 C   0  0  0  0  0  0  0  0  0  0  0  0
    0.7341    7.0884    9.3441 C   0  0  0  0  0  0  0  0  0  0  0  0
    1.9879    6.9131    8.7284 C   0  0  0  0  0  0  0  0  0  0  0  0
    3.0563    6.7791    8.3255 N   0  0  0  0  0  0  0  0  0  0  0  0
    0.8361    7.9390   10.4596 C   0  0  0  0  0  0  0  0  0  0  0  0
    1.0090    8.6371   11.3564 N   0  0  0  0  0  0  0  0  0  0  0  0
   -4.2668    7.0245   12.4426 C   0  0  0  0  0  0  0  0  0  0  0  0
   -3.9781    6.3411   13.8019 C   0  0  0  0  0  0  0  0  0  0  0  0
   -3.1851    5.0938   13.4982 C   0  0  0  0  0  0  0  0  0  0  0  0
   -4.0021    4.2319   12.9071 C   0  0  0  0  0  0  0  0  0  0  0  0
   -5.3586    4.8825   12.7959 C   0  0  0  0  0  0  0  0  0  0  0  0
   -5.3588    5.7258   14.0806 C   0  0  0  0  0  0  0  0  0  0  0  0
   -5.2222    6.0086   11.7406 C   0  0  0  0  0  0  0  0  0  0  0  0
   -1.3140   -3.4511   -9.7962 H   0  0  0  0  0  0  0  0  0  0  0  0
    1.1376   -3.5818  -14.5527 H   0  0  0  0  0  0  0  0  0  0  0  0
    4.4625   -0.9070  -14.1550 H   0  0  0  0  0  0  0  0  0  0  0  0
    3.7890   -0.3466  -11.8573 H   0  0  0  0  0  0  0  0  0  0  0  0
    4.3523   -2.1269   -9.2687 H   0  0  0  0  0  0  0  0  0  0  0  0
    5.0650   -3.2425  -11.3387 H   0  0  0  0  0  0  0  0  0  0  0  0
    1.6795   -5.7767  -13.1970 H   0  0  0  0  0  0  0  0  0  0  0  0
    2.5637   -7.2899  -12.8177 H   0  0  0  0  0  0  0  0  0  0  0  0
    2.7335   -6.5348  -14.4157 H   0  0  0  0  0  0  0  0  0  0  0  0
    1.9330   -6.1144  -10.8616 H   0  0  0  0  0  0  0  0  0  0  0  0
    1.2619   -5.0467   -8.7907 H   0  0  0  0  0  0  0  0  0  0  0  0
    2.3021   -0.3892   -6.5742 H   0  0  0  0  0  0  0  0  0  0  0  0
    4.1083    0.5237   -5.1795 H   0  0  0  0  0  0  0  0  0  0  0  0
    7.0989   -2.6200   -3.4075 H   0  0  0  0  0  0  0  0  0  0  0  0
    8.3638   -1.4017   -3.1439 H   0  0  0  0  0  0  0  0  0  0  0  0
    8.2215   -2.1742   -4.7362 H   0  0  0  0  0  0  0  0  0  0  0  0
    6.3170   -3.1065   -5.6641 H   0  0  0  0  0  0  0  0  0  0  0  0
    4.5270   -4.0098   -7.0489 H   0  0  0  0  0  0  0  0  0  0  0  0
   -0.8404   -5.3814   -3.6330 H   0  0  0  0  0  0  0  0  0  0  0  0
   -1.2843   -7.3103   -2.2386 H   0  0  0  0  0  0  0  0  0  0  0  0
   -2.5733   -9.3439   -2.0642 H   0  0  0  0  0  0  0  0  0  0  0  0
   -1.4379   -9.0338   -0.7106 H   0  0  0  0  0  0  0  0  0  0  0  0
   -2.8142  -10.1338   -0.4886 H   0  0  0  0  0  0  0  0  0  0  0  0
   -4.8687   -5.4612   -0.8155 H   0  0  0  0  0  0  0  0  0  0  0  0
   -4.3695   -3.4676   -2.1501 H   0  0  0  0  0  0  0  0  0  0  0  0
   -4.7997   -3.7794   -4.5922 H   0  0  0  0  0  0  0  0  0  0  0  0
   -6.4422   -2.2118   -5.4680 H   0  0  0  0  0  0  0  0  0  0  0  0
   -7.2795   -0.9567   -7.3354 H   0  0  0  0  0  0  0  0  0  0  0  0
   -8.1782   -0.7164   -5.8011 H   0  0  0  0  0  0  0  0  0  0  0  0
   -8.2885    0.4886   -7.1012 H   0  0  0  0  0  0  0  0  0  0  0  0
   -3.5992    0.9699   -5.1136 H   0  0  0  0  0  0  0  0  0  0  0  0
   -1.9659   -0.6010   -4.1841 H   0  0  0  0  0  0  0  0  0  0  0  0
    4.8423   -2.3441   -0.4393 H   0  0  0  0  0  0  0  0  0  0  0  0
    6.4855   -0.5184   -0.2596 H   0  0  0  0  0  0  0  0  0  0  0  0
    5.9378    2.9043   -1.5491 H   0  0  0  0  0  0  0  0  0  0  0  0
    7.1179    1.7754   -2.2141 H   0  0  0  0  0  0  0  0  0  0  0  0
    6.9295    1.9123   -0.4640 H   0  0  0  0  0  0  0  0  0  0  0  0
    4.0038    1.9629   -2.6793 H   0  0  0  0  0  0  0  0  0  0  0  0
    2.3529    0.1333   -2.8553 H   0  0  0  0  0  0  0  0  0  0  0  0
    1.3658   -4.5410   -1.0508 H   0  0  0  0  0  0  0  0  0  0  0  0
    2.1169   -6.7893   -1.6315 H   0  0  0  0  0  0  0  0  0  0  0  0
    3.6638   -8.2758   -2.6462 H   0  0  0  0  0  0  0  0  0  0  0  0
    5.3172   -7.6686   -2.7918 H   0  0  0  0  0  0  0  0  0  0  0  0
    4.2532   -7.6577   -4.1931 H   0  0  0  0  0  0  0  0  0  0  0  0
    5.4124   -5.1565   -3.7870 H   0  0  0  0  0  0  0  0  0  0  0  0
    4.6462   -2.8861   -3.2262 H   0  0  0  0  0  0  0  0  0  0  0  0
   -1.2501   -3.1506    1.9940 H   0  0  0  0  0  0  0  0  0  0  0  0
   -2.5553   -5.2266    2.1100 H   0  0  0  0  0  0  0  0  0  0  0  0
   -6.2158   -5.4488    1.4584 H   0  0  0  0  0  0  0  0  0  0  0  0
   -4.7240   -6.4025    1.5390 H   0  0  0  0  0  0  0  0  0  0  0  0
   -5.3940   -5.6822    2.9987 H   0  0  0  0  0  0  0  0  0  0  0  0
   -6.1123   -3.0517    1.2237 H   0  0  0  0  0  0  0  0  0  0  0  0
   -4.8086   -0.9782    1.0695 H   0  0  0  0  0  0  0  0  0  0  0  0
   -2.0120    1.8296    0.9405 H   0  0  0  0  0  0  0  0  0  0  0  0
   -2.9595    3.7595    2.1464 H   0  0  0  0  0  0  0  0  0  0  0  0
   -5.4650    3.5200    4.8044 H   0  0  0  0  0  0  0  0  0  0  0  0
   -3.8127    3.9609    5.2296 H   0  0  0  0  0  0  0  0  0  0  0  0
   -4.5462    4.6276    3.7713 H   0  0  0  0  0  0  0  0  0  0  0  0
   -4.8726    1.1064    4.8681 H   0  0  0  0  0  0  0  0  0  0  0  0
   -3.8561   -0.8168    3.7249 H   0  0  0  0  0  0  0  0  0  0  0  0
    2.8392    4.4188    0.0539 H   0  0  0  0  0  0  0  0  0  0  0  0
    5.2338    4.8386    0.1397 H   0  0  0  0  0  0  0  0  0  0  0  0
    7.5369    4.9136   -0.1799 H   0  0  0  0  0  0  0  0  0  0  0  0
    7.0680    5.9340    1.2200 H   0  0  0  0  0  0  0  0  0  0  0  0
    8.7392    5.3508    1.0519 H   0  0  0  0  0  0  0  0  0  0  0  0
    5.6259    1.9833    3.2979 H   0  0  0  0  0  0  0  0  0  0  0  0
    3.2092    1.5463    3.1996 H   0  0  0  0  0  0  0  0  0  0  0  0
    2.1995    1.9079   -0.8735 H   0  0  0  0  0  0  0  0  0  0  0  0
    0.7914    2.0214   -2.9030 H   0  0  0  0  0  0  0  0  0  0  0  0
   -3.7559    2.8771   -2.0580 H   0  0  0  0  0  0  0  0  0  0  0  0
   -3.4250    4.5409   -2.6442 H   0  0  0  0  0  0  0  0  0  0  0  0
   -4.0721    3.3129   -3.7520 H   0  0  0  0  0  0  0  0  0  0  0  0
   -2.2026    4.1260   -0.6978 H   0  0  0  0  0  0  0  0  0  0  0  0
   -0.8050    3.9947    1.3095 H   0  0  0  0  0  0  0  0  0  0  0  0
    2.0188    3.3309    8.0758 H   0  0  0  0  0  0  0  0  0  0  0  0
    2.5432    4.3136   10.2293 H   0  0  0  0  0  0  0  0  0  0  0  0
    2.5903    6.1292   11.7321 H   0  0  0  0  0  0  0  0  0  0  0  0
    2.6300    5.9496   13.4955 H   0  0  0  0  0  0  0  0  0  0  0  0
    3.2020    4.6120   12.4722 H   0  0  0  0  0  0  0  0  0  0  0  0
   -1.4167    3.4488   11.6023 H   0  0  0  0  0  0  0  0  0  0  0  0
   -1.9350    2.4161    9.4219 H   0  0  0  0  0  0  0  0  0  0  0  0
    0.4665    0.1631    8.5571 H   0  0  0  0  0  0  0  0  0  0  0  0
   -0.6501   -2.0056    8.6436 H   0  0  0  0  0  0  0  0  0  0  0  0
   -2.1093   -3.6756    9.4031 H   0  0  0  0  0  0  0  0  0  0  0  0
   -1.2438   -4.1524    7.9046 H   0  0  0  0  0  0  0  0  0  0  0  0
   -2.7471   -4.9755    8.3736 H   0  0  0  0  0  0  0  0  0  0  0  0
   -3.8627   -0.4389    6.2995 H   0  0  0  0  0  0  0  0  0  0  0  0
   -2.7121    1.7611    6.2029 H   0  0  0  0  0  0  0  0  0  0  0  0
    1.1004    6.1362    6.6239 H   0  0  0  0  0  0  0  0  0  0  0  0
   -4.4402    4.4848    9.0166 H   0  0  0  0  0  0  0  0  0  0  0  0
   -1.3955    7.7934   11.3477 H   0  0  0  0  0  0  0  0  0  0  0  0
   -4.6093    8.0509   12.5582 H   0  0  0  0  0  0  0  0  0  0  0  0
   -3.5607    7.0001   14.5583 H   0  0  0  0  0  0  0  0  0  0  0  0
   -2.1311    4.9954   13.6853 H   0  0  0  0  0  0  0  0  0  0  0  0
   -3.7734    3.2614   12.5054 H   0  0  0  0  0  0  0  0  0  0  0  0
   -6.2006    4.2134   12.6364 H   0  0  0  0  0  0  0  0  0  0  0  0
   -6.1618    6.4608   14.1170 H   0  0  0  0  0  0  0  0  0  0  0  0
   -5.3754    5.1177   14.9839 H   0  0  0  0  0  0  0  0  0  0  0  0
   -6.1881    6.3727   11.3951 H   0  0  0  0  0  0  0  0  0  0  0  0
  1  2  2  0  0  0  0
  2  3  1  0  0  0  0
  3  4  2  0  0  0  0
  3  5  1  0  0  0  0
  5  6  2  0  0  0  0
  6  7  1  0  0  0  0
  7  8  1  0  0  0  0
  7  9  2  0  0  0  0
  9 10  1  0  0  0  0
 10 11  2  0  0  0  0
 11 12  1  0  0  0  0
 12 13  2  0  0  0  0
 13 14  1  0  0  0  0
 14 15  3  0  0  0  0
 13 16  1  0  0  0  0
 16 17  3  0  0  0  0
  1 18  1  0  0  0  0
 18 19  2  0  0  0  0
 19 20  1  0  0  0  0
 20 21  1  0  0  0  0
 21 22  2  0  0  0  0
 22 23  1  0  0  0  0
 23 24  2  0  0  0  0
 24 25  1  0  0  0  0
 25 26  1  0  0  0  0
 24 27  1  0  0  0  0
 27 28  2  0  0  0  0
 20 29  1  0  0  0  0
 29 30  2  0  0  0  0
 30 31  1  0  0  0  0
 31 32  2  0  0  0  0
 32 33  1  0  0  0  0
 33 34  1  0  0  0  0
 32 35  1  0  0  0  0
 35 36  2  0  0  0  0
 19 37  1  0  0  0  0
 37 38  1  0  0  0  0
 38 39  1  0  0  0  0
 39 40  2  0  0  0  0
 40 41  1  0  0  0  0
 41 42  1  0  0  0  0
 42 43  2  0  0  0  0
 43 44  1  0  0  0  0
 44 45  2  0  0  0  0
 45 46  1  0  0  0  0
 46 47  1  0  0  0  0
 45 48  1  0  0  0  0
 48 49  2  0  0  0  0
 41 50  1  0  0  0  0
 50 51  2  0  0  0  0
 51 52  1  0  0  0  0
 52 53  2  0  0  0  0
 53 54  1  0  0  0  0
 54 55  1  0  0  0  0
 53 56  1  0  0  0  0
 56 57  2  0  0  0  0
 40 58  1  0  0  0  0
 58 59  1  0  0  0  0
 39 60  1  0  0  0  0
 60 61  2  0  0  0  0
 61 62  1  0  0  0  0
 62 63  1  0  0  0  0
 63 64  2  0  0  0  0
 64 65  1  0  0  0  0
 65 66  2  0  0  0  0
 66 67  1  0  0  0  0
 66 68  1  0  0  0  0
 68 69  2  0  0  0  0
 62 70  1  0  0  0  0
 70 71  2  0  0  0  0
 71 72  1  0  0  0  0
 72 73  2  0  0  0  0
 73 74  1  0  0  0  0
 73 75  1  0  0  0  0
 75 76  2  0  0  0  0
 61 77  1  0  0  0  0
 77 78  1  0  0  0  0
 78 79  1  0  0  0  0
 79 80  2  0  0  0  0
 80 81  1  0  0  0  0
 81 82  1  0  0  0  0
 82 83  2  0  0  0  0
 83 84  1  0  0  0  0
 84 85  2  0  0  0  0
 85 86  1  0  0  0  0
 85 87  1  0  0  0  0
 87 88  2  0  0  0  0
 81 89  1  0  0  0  0
 89 90  2  0  0  0  0
 90 91  1  0  0  0  0
 91 92  2  0  0  0  0
 92 93  1  0  0  0  0
 92 94  1  0  0  0  0
 94 95  2  0  0  0  0
 80 96  1  0  0  0  0
 96 97  1  0  0  0  0
 79 98  1  0  0  0  0
 98 99  2  0  0  0  0
 99100  1  0  0  0  0
100101  1  0  0  0  0
101102  2  0  0  0  0
102103  1  0  0  0  0
103104  2  0  0  0  0
104105  1  0  0  0  0
105106  1  0  0  0  0
104107  1  0  0  0  0
107108  2  0  0  0  0
100109  1  0  0  0  0
109110  2  0  0  0  0
110111  1  0  0  0  0
111112  2  0  0  0  0
112113  1  0  0  0  0
113114  1  0  0  0  0
112115  1  0  0  0  0
115116  2  0  0  0  0
 99117  1  0  0  0  0
117118  1  0  0  0  0
118119  1  0  0  0  0
119120  2  0  0  0  0
120121  1  0  0  0  0
121122  1  0  0  0  0
122123  2  0  0  0  0
123124  1  0  0  0  0
124125  2  0  0  0  0
125126  1  0  0  0  0
126127  1  0  0  0  0
125128  1  0  0  0  0
128129  2  0  0  0  0
121130  1  0  0  0  0
130131  2  0  0  0  0
131132  1  0  0  0  0
132133  2  0  0  0  0
133134  1  0  0  0  0
134135  1  0  0  0  0
133136  1  0  0  0  0
136137  2  0  0  0  0
120138  1  0  0  0  0
138139  1  0  0  0  0
119140  1  0  0  0  0
140141  2  0  0  0  0
141142  1  0  0  0  0
142143  2  0  0  0  0
142144  1  0  0  0  0
144145  2  0  0  0  0
145146  1  0  0  0  0
146147  2  0  0  0  0
147148  1  0  0  0  0
148149  2  0  0  0  0
149150  1  0  0  0  0
150151  2  0  0  0  0
151152  1  0  0  0  0
152153  3  0  0  0  0
151154  1  0  0  0  0
154155  3  0  0  0  0
147156  1  0  0  0  0
156157  1  0  0  0  0
157158  1  0  0  0  0
158159  2  0  0  0  0
159160  1  0  0  0  0
160161  1  0  0  0  0
160162  1  0  0  0  0
 12  2  1  0  0  0  0
 59 18  1  0  0  0  0
 97 60  1  0  0  0  0
139 98  1  0  0  0  0
150141  1  0  0  0  0
162156  1  0  0  0  0
 11  5  1  0  0  0  0
 28 21  1  0  0  0  0
 36 29  1  0  0  0  0
 58 37  2  0  0  0  0
 69 63  1  0  0  0  0
 76 70  1  0  0  0  0
 96 77  2  0  0  0  0
108101  1  0  0  0  0
116109  1  0  0  0  0
138117  2  0  0  0  0
149144  1  0  0  0  0
161157  1  0  0  0  0
 49 42  1  0  0  0  0
 57 50  1  0  0  0  0
 88 82  1  0  0  0  0
 95 89  1  0  0  0  0
129122  1  0  0  0  0
137130  1  0  0  0  0
162146  1  0  0  0  0
  1163  1  0  0  0  0
  6164  1  0  0  0  0
  9165  1  0  0  0  0
 10166  1  0  0  0  0
 22167  1  0  0  0  0
 23168  1  0  0  0  0
 26169  1  0  0  0  0
 26170  1  0  0  0  0
 26171  1  0  0  0  0
 27172  1  0  0  0  0
 28173  1  0  0  0  0
 30174  1  0  0  0  0
 31175  1  0  0  0  0
 34176  1  0  0  0  0
 34177  1  0  0  0  0
 34178  1  0  0  0  0
 35179  1  0  0  0  0
 36180  1  0  0  0  0
 43181  1  0  0  0  0
 44182  1  0  0  0  0
 47183  1  0  0  0  0
 47184  1  0  0  0  0
 47185  1  0  0  0  0
 48186  1  0  0  0  0
 49187  1  0  0  0  0
 51188  1  0  0  0  0
 52189  1  0  0  0  0
 55190  1  0  0  0  0
 55191  1  0  0  0  0
 55192  1  0  0  0  0
 56193  1  0  0  0  0
 57194  1  0  0  0  0
 64195  1  0  0  0  0
 65196  1  0  0  0  0
 67197  1  0  0  0  0
 67198  1  0  0  0  0
 67199  1  0  0  0  0
 68200  1  0  0  0  0
 69201  1  0  0  0  0
 71202  1  0  0  0  0
 72203  1  0  0  0  0
 74204  1  0  0  0  0
 74205  1  0  0  0  0
 74206  1  0  0  0  0
 75207  1  0  0  0  0
 76208  1  0  0  0  0
 83209  1  0  0  0  0
 84210  1  0  0  0  0
 86211  1  0  0  0  0
 86212  1  0  0  0  0
 86213  1  0  0  0  0
 87214  1  0  0  0  0
 88215  1  0  0  0  0
 90216  1  0  0  0  0
 91217  1  0  0  0  0
 93218  1  0  0  0  0
 93219  1  0  0  0  0
 93220  1  0  0  0  0
 94221  1  0  0  0  0
 95222  1  0  0  0  0
102223  1  0  0  0  0
103224  1  0  0  0  0
106225  1  0  0  0  0
106226  1  0  0  0  0
106227  1  0  0  0  0
107228  1  0  0  0  0
108229  1  0  0  0  0
110230  1  0  0  0  0
111231  1  0  0  0  0
114232  1  0  0  0  0
114233  1  0  0  0  0
114234  1  0  0  0  0
115235  1  0  0  0  0
116236  1  0  0  0  0
123237  1  0  0  0  0
124238  1  0  0  0  0
127239  1  0  0  0  0
127240  1  0  0  0  0
127241  1  0  0  0  0
128242  1  0  0  0  0
129243  1  0  0  0  0
131244  1  0  0  0  0
132245  1  0  0  0  0
135246  1  0  0  0  0
135247  1  0  0  0  0
135248  1  0  0  0  0
136249  1  0  0  0  0
137250  1  0  0  0  0
140251  1  0  0  0  0
145252  1  0  0  0  0
148253  1  0  0  0  0
156254  1  0  0  0  0
157255  1  0  0  0  0
158256  1  0  0  0  0
159257  1  0  0  0  0
160258  1  0  0  0  0
161259  1  0  0  0  0
161260  1  0  0  0  0
162261  1  0  0  0  0
M  END
