
  xtb     02062204443D
 energy: -359.554299957413 gnorm: 0.000873082487 xtb: 6.4.1 (unknown)
208225  0     0  0            999 V2000
    7.8153    2.3969    1.3866 C   0  0  0  0  0  0  0  0  0  0  0  0
    8.9987    1.7667    1.7123 C   0  0  0  0  0  0  0  0  0  0  0  0
    9.2162    0.3280    1.8634 C   0  0  0  0  0  0  0  0  0  0  0  0
    8.3851   -0.5581    1.9663 O   0  0  0  0  0  0  0  0  0  0  0  0
   10.6858    0.1441    1.8766 C   0  0  0  0  0  0  0  0  0  0  0  0
   11.4075   -1.0276    1.9481 C   0  0  0  0  0  0  0  0  0  0  0  0
   12.7949   -0.9304    1.9429 C   0  0  0  0  0  0  0  0  0  0  0  0
   13.7403   -2.3695    2.0325 Cl  0  0  0  0  0  0  0  0  0  0  0  0
   13.4309    0.3018    1.8684 C   0  0  0  0  0  0  0  0  0  0  0  0
   12.6952    1.4765    1.7963 C   0  0  0  0  0  0  0  0  0  0  0  0
   11.3115    1.4003    1.7981 C   0  0  0  0  0  0  0  0  0  0  0  0
   10.2783    2.4319    1.7496 C   0  0  0  0  0  0  0  0  0  0  0  0
   10.5116    3.7866    1.7585 C   0  0  0  0  0  0  0  0  0  0  0  0
   11.7862    4.3765    1.6587 C   0  0  0  0  0  0  0  0  0  0  0  0
   12.7810    4.9401    1.5449 N   0  0  0  0  0  0  0  0  0  0  0  0
    9.5272    4.7817    1.8983 C   0  0  0  0  0  0  0  0  0  0  0  0
    8.8007    5.6613    2.0456 N   0  0  0  0  0  0  0  0  0  0  0  0
    6.5392    1.8812    1.1831 C   0  0  0  0  0  0  0  0  0  0  0  0
    5.4613    2.6231    0.6262 C   0  0  0  0  0  0  0  0  0  0  0  0
    5.5658    3.8710    0.0663 N   0  0  0  0  0  0  0  0  0  0  0  0
    4.5037    4.7802    0.1809 C   0  0  0  0  0  0  0  0  0  0  0  0
    4.2255    5.6736   -0.8538 C   0  0  0  0  0  0  0  0  0  0  0  0
    3.2456    6.6261   -0.7002 C   0  0  0  0  0  0  0  0  0  0  0  0
    2.5023    6.6933    0.4770 C   0  0  0  0  0  0  0  0  0  0  0  0
    1.3008    7.9843    0.5812 S   0  0  0  0  0  0  0  0  0  0  0  0
    0.5386    7.7562    2.2108 C   0  0  0  0  0  0  0  0  0  0  0  0
    2.7479    5.7817    1.4930 C   0  0  0  0  0  0  0  0  0  0  0  0
    3.7482    4.8409    1.3483 C   0  0  0  0  0  0  0  0  0  0  0  0
    6.7368    4.2707   -0.6072 C   0  0  0  0  0  0  0  0  0  0  0  0
    7.2446    5.5559   -0.4443 C   0  0  0  0  0  0  0  0  0  0  0  0
    8.4493    5.9106   -1.0206 C   0  0  0  0  0  0  0  0  0  0  0  0
    9.1719    4.9793   -1.7533 C   0  0  0  0  0  0  0  0  0  0  0  0
   10.7697    5.2891   -2.4298 S   0  0  0  0  0  0  0  0  0  0  0  0
   11.3203    6.7800   -1.5538 C   0  0  0  0  0  0  0  0  0  0  0  0
    8.6269    3.7144   -1.9805 C   0  0  0  0  0  0  0  0  0  0  0  0
    7.4180    3.3664   -1.4251 C   0  0  0  0  0  0  0  0  0  0  0  0
    4.2696    1.8829    0.6720 C   0  0  0  0  0  0  0  0  0  0  0  0
    2.6367    2.1653    0.1430 S   0  0  0  0  0  0  0  0  0  0  0  0
    2.1848    0.5254    0.6035 C   0  0  0  0  0  0  0  0  0  0  0  0
    3.2329   -0.1436    1.2326 C   0  0  0  0  0  0  0  0  0  0  0  0
    3.1508   -1.3827    1.8535 N   0  0  0  0  0  0  0  0  0  0  0  0
    4.2719   -2.2150    1.6731 C   0  0  0  0  0  0  0  0  0  0  0  0
    4.7456   -2.4205    0.3787 C   0  0  0  0  0  0  0  0  0  0  0  0
    5.9049   -3.1339    0.1699 C   0  0  0  0  0  0  0  0  0  0  0  0
    6.5986   -3.6678    1.2506 C   0  0  0  0  0  0  0  0  0  0  0  0
    8.0892   -4.5531    0.9140 S   0  0  0  0  0  0  0  0  0  0  0  0
    9.0529   -4.2314    2.4203 C   0  0  0  0  0  0  0  0  0  0  0  0
    6.1038   -3.5047    2.5371 C   0  0  0  0  0  0  0  0  0  0  0  0
    4.9542   -2.7726    2.7486 C   0  0  0  0  0  0  0  0  0  0  0  0
    2.1403   -1.6912    2.7616 C   0  0  0  0  0  0  0  0  0  0  0  0
    1.3167   -0.7051    3.3050 C   0  0  0  0  0  0  0  0  0  0  0  0
    0.2773   -1.0387    4.1507 C   0  0  0  0  0  0  0  0  0  0  0  0
    0.0386   -2.3665    4.4763 C   0  0  0  0  0  0  0  0  0  0  0  0
   -1.2843   -2.8917    5.5250 S   0  0  0  0  0  0  0  0  0  0  0  0
   -2.5232   -1.5842    5.2873 C   0  0  0  0  0  0  0  0  0  0  0  0
    0.8911   -3.3484    3.9811 C   0  0  0  0  0  0  0  0  0  0  0  0
    1.9233   -3.0194    3.1327 C   0  0  0  0  0  0  0  0  0  0  0  0
    4.4205    0.6155    1.2229 C   0  0  0  0  0  0  0  0  0  0  0  0
    6.0477    0.2560    1.6642 S   0  0  0  0  0  0  0  0  0  0  0  0
    0.9347   -0.0748    0.2870 C   0  0  0  0  0  0  0  0  0  0  0  0
   -0.3413    0.4568    0.1525 C   0  0  0  0  0  0  0  0  0  0  0  0
   -0.7213    1.7914    0.2879 N   0  0  0  0  0  0  0  0  0  0  0  0
   -1.9385    1.9759    0.9734 C   0  0  0  0  0  0  0  0  0  0  0  0
   -3.0015    2.6885    0.4263 C   0  0  0  0  0  0  0  0  0  0  0  0
   -4.2144    2.7469    1.0844 C   0  0  0  0  0  0  0  0  0  0  0  0
   -4.3895    2.0823    2.2916 C   0  0  0  0  0  0  0  0  0  0  0  0
   -5.9277    2.0461    3.1605 S   0  0  0  0  0  0  0  0  0  0  0  0
   -7.1346    2.1404    1.8074 C   0  0  0  0  0  0  0  0  0  0  0  0
   -3.3140    1.4086    2.8635 C   0  0  0  0  0  0  0  0  0  0  0  0
   -2.1024    1.3559    2.2123 C   0  0  0  0  0  0  0  0  0  0  0  0
   -0.2382    2.7694   -0.5809 C   0  0  0  0  0  0  0  0  0  0  0  0
   -0.3937    4.1182   -0.2637 C   0  0  0  0  0  0  0  0  0  0  0  0
    0.0368    5.1017   -1.1288 C   0  0  0  0  0  0  0  0  0  0  0  0
    0.6596    4.7571   -2.3214 C   0  0  0  0  0  0  0  0  0  0  0  0
    1.2558    5.9428   -3.4862 S   0  0  0  0  0  0  0  0  0  0  0  0
    0.3078    7.4397   -3.0811 C   0  0  0  0  0  0  0  0  0  0  0  0
    0.8432    3.4143   -2.6325 C   0  0  0  0  0  0  0  0  0  0  0  0
    0.3912    2.4303   -1.7803 C   0  0  0  0  0  0  0  0  0  0  0  0
   -1.2991   -0.5551   -0.0880 C   0  0  0  0  0  0  0  0  0  0  0  0
   -3.0078   -0.5179   -0.3893 S   0  0  0  0  0  0  0  0  0  0  0  0
   -3.0154   -2.2669   -0.5663 C   0  0  0  0  0  0  0  0  0  0  0  0
   -1.7201   -2.8089   -0.5909 C   0  0  0  0  0  0  0  0  0  0  0  0
   -1.3664   -4.0572   -1.0265 N   0  0  0  0  0  0  0  0  0  0  0  0
   -0.1524   -4.6036   -0.5397 C   0  0  0  0  0  0  0  0  0  0  0  0
   -0.0305   -4.9297    0.8076 C   0  0  0  0  0  0  0  0  0  0  0  0
    1.1499   -5.4606    1.2756 C   0  0  0  0  0  0  0  0  0  0  0  0
    2.2430   -5.6228    0.4244 C   0  0  0  0  0  0  0  0  0  0  0  0
    3.7306   -6.1982    1.1739 S   0  0  0  0  0  0  0  0  0  0  0  0
    4.8624   -6.4546   -0.2173 C   0  0  0  0  0  0  0  0  0  0  0  0
    2.1141   -5.3107   -0.9229 C   0  0  0  0  0  0  0  0  0  0  0  0
    0.9144   -4.8213   -1.4032 C   0  0  0  0  0  0  0  0  0  0  0  0
   -2.0631   -4.7584   -2.0146 C   0  0  0  0  0  0  0  0  0  0  0  0
   -2.8170   -4.1031   -2.9900 C   0  0  0  0  0  0  0  0  0  0  0  0
   -3.5125   -4.8261   -3.9319 C   0  0  0  0  0  0  0  0  0  0  0  0
   -3.4694   -6.2197   -3.9345 C   0  0  0  0  0  0  0  0  0  0  0  0
   -4.4220   -7.0335   -5.1743 S   0  0  0  0  0  0  0  0  0  0  0  0
   -4.2946   -8.7907   -4.7380 C   0  0  0  0  0  0  0  0  0  0  0  0
   -2.6902   -6.8746   -2.9894 C   0  0  0  0  0  0  0  0  0  0  0  0
   -1.9964   -6.1503   -2.0418 C   0  0  0  0  0  0  0  0  0  0  0  0
   -0.7687   -1.8239   -0.2362 C   0  0  0  0  0  0  0  0  0  0  0  0
    0.9451   -1.8196   -0.0107 S   0  0  0  0  0  0  0  0  0  0  0  0
   -4.2748   -2.9190   -0.5894 C   0  0  0  0  0  0  0  0  0  0  0  0
   -4.5076   -4.2460   -0.2271 C   0  0  0  0  0  0  0  0  0  0  0  0
   -3.5065   -5.0080    0.2512 F   0  0  0  0  0  0  0  0  0  0  0  0
   -5.7801   -4.8014   -0.2437 C   0  0  0  0  0  0  0  0  0  0  0  0
   -5.9051   -6.0869    0.1216 F   0  0  0  0  0  0  0  0  0  0  0  0
   -6.9330   -4.0713   -0.5278 C   0  0  0  0  0  0  0  0  0  0  0  0
   -6.7399   -2.7107   -0.9125 C   0  0  0  0  0  0  0  0  0  0  0  0
   -7.7712   -1.9687   -1.3419 N   0  0  0  0  0  0  0  0  0  0  0  0
   -7.5750   -0.7219   -1.7106 C   0  0  0  0  0  0  0  0  0  0  0  0
   -8.7622   -0.0000   -2.2752 C   0  0  0  0  0  0  0  0  0  0  0  0
   -9.4687    0.8659   -1.2308 C   0  0  0  0  0  0  0  0  0  0  0  0
   -6.2926   -0.1290   -1.5895 C   0  0  0  0  0  0  0  0  0  0  0  0
   -5.2728   -0.8687   -1.2199 N   0  0  0  0  0  0  0  0  0  0  0  0
   -5.4387   -2.1555   -0.9154 C   0  0  0  0  0  0  0  0  0  0  0  0
   -5.9694    1.2896   -1.9459 C   0  0  0  0  0  0  0  0  0  0  0  0
   -5.3879    1.3505   -3.3609 C   0  0  0  0  0  0  0  0  0  0  0  0
   -8.2161   -4.6897   -0.4635 C   0  0  0  0  0  0  0  0  0  0  0  0
   -9.4161   -4.1235   -0.1646 C   0  0  0  0  0  0  0  0  0  0  0  0
  -10.6660   -4.8421   -0.5287 C   0  0  0  0  0  0  0  0  0  0  0  0
  -10.7648   -5.9793   -0.9251 O   0  0  0  0  0  0  0  0  0  0  0  0
  -11.7504   -3.8516   -0.3402 C   0  0  0  0  0  0  0  0  0  0  0  0
  -13.0921   -3.9822   -0.6305 C   0  0  0  0  0  0  0  0  0  0  0  0
  -13.9168   -2.8945   -0.3657 C   0  0  0  0  0  0  0  0  0  0  0  0
  -15.6021   -3.0034   -0.7075 Cl  0  0  0  0  0  0  0  0  0  0  0  0
  -13.4059   -1.7197    0.1739 C   0  0  0  0  0  0  0  0  0  0  0  0
  -12.0567   -1.6015    0.4707 C   0  0  0  0  0  0  0  0  0  0  0  0
  -11.2151   -2.6735    0.2116 C   0  0  0  0  0  0  0  0  0  0  0  0
   -9.7830   -2.8618    0.4381 C   0  0  0  0  0  0  0  0  0  0  0  0
   -9.0159   -2.0848    1.2687 C   0  0  0  0  0  0  0  0  0  0  0  0
   -9.4617   -0.8978    1.8807 C   0  0  0  0  0  0  0  0  0  0  0  0
   -9.7437    0.0967    2.3838 N   0  0  0  0  0  0  0  0  0  0  0  0
   -7.6973   -2.3708    1.6740 C   0  0  0  0  0  0  0  0  0  0  0  0
   -6.6336   -2.5301    2.0769 N   0  0  0  0  0  0  0  0  0  0  0  0
    7.8946    3.4620    1.2142 H   0  0  0  0  0  0  0  0  0  0  0  0
   10.9121   -1.9833    2.0014 H   0  0  0  0  0  0  0  0  0  0  0  0
   14.5087    0.3439    1.8659 H   0  0  0  0  0  0  0  0  0  0  0  0
   13.2091    2.4220    1.7366 H   0  0  0  0  0  0  0  0  0  0  0  0
    4.7887    5.6231   -1.7727 H   0  0  0  0  0  0  0  0  0  0  0  0
    3.0517    7.3312   -1.4928 H   0  0  0  0  0  0  0  0  0  0  0  0
    0.0736    6.7764    2.2683 H   0  0  0  0  0  0  0  0  0  0  0  0
    1.2840    7.8888    2.9894 H   0  0  0  0  0  0  0  0  0  0  0  0
   -0.2183    8.5305    2.2902 H   0  0  0  0  0  0  0  0  0  0  0  0
    2.1880    5.8041    2.4136 H   0  0  0  0  0  0  0  0  0  0  0  0
    3.9631    4.1652    2.1627 H   0  0  0  0  0  0  0  0  0  0  0  0
    6.7146    6.2709    0.1648 H   0  0  0  0  0  0  0  0  0  0  0  0
    8.8257    6.9069   -0.8599 H   0  0  0  0  0  0  0  0  0  0  0  0
   10.7672    7.6480   -1.9006 H   0  0  0  0  0  0  0  0  0  0  0  0
   11.2070    6.6377   -0.4832 H   0  0  0  0  0  0  0  0  0  0  0  0
   12.3717    6.8907   -1.7996 H   0  0  0  0  0  0  0  0  0  0  0  0
    9.1713    3.0109   -2.5912 H   0  0  0  0  0  0  0  0  0  0  0  0
    7.0071    2.3820   -1.5925 H   0  0  0  0  0  0  0  0  0  0  0  0
    4.2037   -1.9970   -0.4549 H   0  0  0  0  0  0  0  0  0  0  0  0
    6.2955   -3.2686   -0.8279 H   0  0  0  0  0  0  0  0  0  0  0  0
    8.7346   -4.8886    3.2247 H   0  0  0  0  0  0  0  0  0  0  0  0
   10.0879   -4.4426    2.1680 H   0  0  0  0  0  0  0  0  0  0  0  0
    8.9233   -3.1870    2.6900 H   0  0  0  0  0  0  0  0  0  0  0  0
    6.6171   -3.9314    3.3833 H   0  0  0  0  0  0  0  0  0  0  0  0
    4.5908   -2.6171    3.7531 H   0  0  0  0  0  0  0  0  0  0  0  0
    1.4948    0.3355    3.0772 H   0  0  0  0  0  0  0  0  0  0  0  0
   -0.3342   -0.2530    4.5671 H   0  0  0  0  0  0  0  0  0  0  0  0
   -2.2398   -0.6868    5.8306 H   0  0  0  0  0  0  0  0  0  0  0  0
   -2.6341   -1.3874    4.2252 H   0  0  0  0  0  0  0  0  0  0  0  0
   -3.4520   -1.9764    5.6894 H   0  0  0  0  0  0  0  0  0  0  0  0
    0.7227   -4.3755    4.2650 H   0  0  0  0  0  0  0  0  0  0  0  0
    2.5646   -3.7901    2.7375 H   0  0  0  0  0  0  0  0  0  0  0  0
   -2.8832    3.1773   -0.5295 H   0  0  0  0  0  0  0  0  0  0  0  0
   -5.0267    3.3047    0.6451 H   0  0  0  0  0  0  0  0  0  0  0  0
   -6.8165    1.4753    1.0097 H   0  0  0  0  0  0  0  0  0  0  0  0
   -8.0783    1.7967    2.2223 H   0  0  0  0  0  0  0  0  0  0  0  0
   -7.2355    3.1627    1.4544 H   0  0  0  0  0  0  0  0  0  0  0  0
   -3.4532    0.9184    3.8144 H   0  0  0  0  0  0  0  0  0  0  0  0
   -1.2746    0.8077    2.6370 H   0  0  0  0  0  0  0  0  0  0  0  0
   -0.8673    4.3915    0.6677 H   0  0  0  0  0  0  0  0  0  0  0  0
   -0.1130    6.1353   -0.8653 H   0  0  0  0  0  0  0  0  0  0  0  0
    0.6497    7.8706   -2.1442 H   0  0  0  0  0  0  0  0  0  0  0  0
   -0.7488    7.1944   -3.0366 H   0  0  0  0  0  0  0  0  0  0  0  0
    0.4939    8.1337   -3.8947 H   0  0  0  0  0  0  0  0  0  0  0  0
    1.3282    3.1501   -3.5596 H   0  0  0  0  0  0  0  0  0  0  0  0
    0.5073    1.3915   -2.0502 H   0  0  0  0  0  0  0  0  0  0  0  0
   -0.8702   -4.7843    1.4693 H   0  0  0  0  0  0  0  0  0  0  0  0
    1.2420   -5.7602    2.3070 H   0  0  0  0  0  0  0  0  0  0  0  0
    5.0559   -5.5095   -0.7147 H   0  0  0  0  0  0  0  0  0  0  0  0
    4.4477   -7.1916   -0.8987 H   0  0  0  0  0  0  0  0  0  0  0  0
    5.7842   -6.8272    0.2185 H   0  0  0  0  0  0  0  0  0  0  0  0
    2.9377   -5.4403   -1.6058 H   0  0  0  0  0  0  0  0  0  0  0  0
    0.8066   -4.5872   -2.4522 H   0  0  0  0  0  0  0  0  0  0  0  0
   -2.8534   -3.0247   -3.0152 H   0  0  0  0  0  0  0  0  0  0  0  0
   -4.0990   -4.3180   -4.6819 H   0  0  0  0  0  0  0  0  0  0  0  0
   -4.6424   -8.9424   -3.7206 H   0  0  0  0  0  0  0  0  0  0  0  0
   -4.9459   -9.3116   -5.4329 H   0  0  0  0  0  0  0  0  0  0  0  0
   -3.2723   -9.1354   -4.8641 H   0  0  0  0  0  0  0  0  0  0  0  0
   -2.6222   -7.9498   -2.9712 H   0  0  0  0  0  0  0  0  0  0  0  0
   -1.4131   -6.6676   -1.2958 H   0  0  0  0  0  0  0  0  0  0  0  0
   -9.4625   -0.7525   -2.6417 H   0  0  0  0  0  0  0  0  0  0  0  0
   -8.4458    0.6226   -3.1136 H   0  0  0  0  0  0  0  0  0  0  0  0
  -10.3228    1.3640   -1.6825 H   0  0  0  0  0  0  0  0  0  0  0  0
   -9.8234    0.2515   -0.4094 H   0  0  0  0  0  0  0  0  0  0  0  0
   -8.8037    1.6229   -0.8214 H   0  0  0  0  0  0  0  0  0  0  0  0
   -6.8530    1.9226   -1.8790 H   0  0  0  0  0  0  0  0  0  0  0  0
   -5.2126    1.6451   -1.2446 H   0  0  0  0  0  0  0  0  0  0  0  0
   -4.4838    0.7495   -3.4120 H   0  0  0  0  0  0  0  0  0  0  0  0
   -6.0994    0.9700   -4.0910 H   0  0  0  0  0  0  0  0  0  0  0  0
   -5.1405    2.3768   -3.6195 H   0  0  0  0  0  0  0  0  0  0  0  0
   -8.2547   -5.7431   -0.7250 H   0  0  0  0  0  0  0  0  0  0  0  0
  -13.4799   -4.8995   -1.0444 H   0  0  0  0  0  0  0  0  0  0  0  0
  -14.0713   -0.8927    0.3665 H   0  0  0  0  0  0  0  0  0  0  0  0
  -11.6894   -0.6804    0.8935 H   0  0  0  0  0  0  0  0  0  0  0  0
  1  2  2  0  0  0  0
  2  3  1  0  0  0  0
  3  4  2  0  0  0  0
  3  5  1  0  0  0  0
  5  6  2  0  0  0  0
  6  7  1  0  0  0  0
  7  8  1  0  0  0  0
  7  9  2  0  0  0  0
  9 10  1  0  0  0  0
 10 11  2  0  0  0  0
 11 12  1  0  0  0  0
 12 13  2  0  0  0  0
 13 14  1  0  0  0  0
 14 15  3  0  0  0  0
 13 16  1  0  0  0  0
 16 17  3  0  0  0  0
  1 18  1  0  0  0  0
 18 19  2  0  0  0  0
 19 20  1  0  0  0  0
 20 21  1  0  0  0  0
 21 22  2  0  0  0  0
 22 23  1  0  0  0  0
 23 24  2  0  0  0  0
 24 25  1  0  0  0  0
 25 26  1  0  0  0  0
 24 27  1  0  0  0  0
 27 28  2  0  0  0  0
 20 29  1  0  0  0  0
 29 30  2  0  0  0  0
 30 31  1  0  0  0  0
 31 32  2  0  0  0  0
 32 33  1  0  0  0  0
 33 34  1  0  0  0  0
 32 35  1  0  0  0  0
 35 36  2  0  0  0  0
 19 37  1  0  0  0  0
 37 38  1  0  0  0  0
 38 39  1  0  0  0  0
 39 40  2  0  0  0  0
 40 41  1  0  0  0  0
 41 42  1  0  0  0  0
 42 43  2  0  0  0  0
 43 44  1  0  0  0  0
 44 45  2  0  0  0  0
 45 46  1  0  0  0  0
 46 47  1  0  0  0  0
 45 48  1  0  0  0  0
 48 49  2  0  0  0  0
 41 50  1  0  0  0  0
 50 51  2  0  0  0  0
 51 52  1  0  0  0  0
 52 53  2  0  0  0  0
 53 54  1  0  0  0  0
 54 55  1  0  0  0  0
 53 56  1  0  0  0  0
 56 57  2  0  0  0  0
 40 58  1  0  0  0  0
 58 59  1  0  0  0  0
 39 60  1  0  0  0  0
 60 61  2  0  0  0  0
 61 62  1  0  0  0  0
 62 63  1  0  0  0  0
 63 64  2  0  0  0  0
 64 65  1  0  0  0  0
 65 66  2  0  0  0  0
 66 67  1  0  0  0  0
 67 68  1  0  0  0  0
 66 69  1  0  0  0  0
 69 70  2  0  0  0  0
 62 71  1  0  0  0  0
 71 72  2  0  0  0  0
 72 73  1  0  0  0  0
 73 74  2  0  0  0  0
 74 75  1  0  0  0  0
 75 76  1  0  0  0  0
 74 77  1  0  0  0  0
 77 78  2  0  0  0  0
 61 79  1  0  0  0  0
 79 80  1  0  0  0  0
 80 81  1  0  0  0  0
 81 82  2  0  0  0  0
 82 83  1  0  0  0  0
 83 84  1  0  0  0  0
 84 85  2  0  0  0  0
 85 86  1  0  0  0  0
 86 87  2  0  0  0  0
 87 88  1  0  0  0  0
 88 89  1  0  0  0  0
 87 90  1  0  0  0  0
 90 91  2  0  0  0  0
 83 92  1  0  0  0  0
 92 93  2  0  0  0  0
 93 94  1  0  0  0  0
 94 95  2  0  0  0  0
 95 96  1  0  0  0  0
 96 97  1  0  0  0  0
 95 98  1  0  0  0  0
 98 99  2  0  0  0  0
 82100  1  0  0  0  0
100101  1  0  0  0  0
 81102  1  0  0  0  0
102103  2  0  0  0  0
103104  1  0  0  0  0
103105  1  0  0  0  0
105106  1  0  0  0  0
105107  2  0  0  0  0
107108  1  0  0  0  0
108109  2  0  0  0  0
109110  1  0  0  0  0
110111  1  0  0  0  0
111112  1  0  0  0  0
110113  2  0  0  0  0
113114  1  0  0  0  0
114115  2  0  0  0  0
113116  1  0  0  0  0
116117  1  0  0  0  0
107118  1  0  0  0  0
118119  2  0  0  0  0
119120  1  0  0  0  0
120121  2  0  0  0  0
120122  1  0  0  0  0
122123  2  0  0  0  0
123124  1  0  0  0  0
124125  1  0  0  0  0
124126  2  0  0  0  0
126127  1  0  0  0  0
127128  2  0  0  0  0
128129  1  0  0  0  0
129130  2  0  0  0  0
130131  1  0  0  0  0
131132  3  0  0  0  0
130133  1  0  0  0  0
133134  3  0  0  0  0
 12  2  1  0  0  0  0
 59 18  1  0  0  0  0
101 60  1  0  0  0  0
115102  1  0  0  0  0
129119  1  0  0  0  0
 11  5  1  0  0  0  0
 28 21  1  0  0  0  0
 36 29  1  0  0  0  0
 58 37  2  0  0  0  0
 70 63  1  0  0  0  0
 78 71  1  0  0  0  0
100 79  2  0  0  0  0
115108  1  0  0  0  0
128122  1  0  0  0  0
 49 42  1  0  0  0  0
 57 50  1  0  0  0  0
 91 84  1  0  0  0  0
 99 92  1  0  0  0  0
  1135  1  0  0  0  0
  6136  1  0  0  0  0
  9137  1  0  0  0  0
 10138  1  0  0  0  0
 22139  1  0  0  0  0
 23140  1  0  0  0  0
 26141  1  0  0  0  0
 26142  1  0  0  0  0
 26143  1  0  0  0  0
 27144  1  0  0  0  0
 28145  1  0  0  0  0
 30146  1  0  0  0  0
 31147  1  0  0  0  0
 34148  1  0  0  0  0
 34149  1  0  0  0  0
 34150  1  0  0  0  0
 35151  1  0  0  0  0
 36152  1  0  0  0  0
 43153  1  0  0  0  0
 44154  1  0  0  0  0
 47155  1  0  0  0  0
 47156  1  0  0  0  0
 47157  1  0  0  0  0
 48158  1  0  0  0  0
 49159  1  0  0  0  0
 51160  1  0  0  0  0
 52161  1  0  0  0  0
 55162  1  0  0  0  0
 55163  1  0  0  0  0
 55164  1  0  0  0  0
 56165  1  0  0  0  0
 57166  1  0  0  0  0
 64167  1  0  0  0  0
 65168  1  0  0  0  0
 68169  1  0  0  0  0
 68170  1  0  0  0  0
 68171  1  0  0  0  0
 69172  1  0  0  0  0
 70173  1  0  0  0  0
 72174  1  0  0  0  0
 73175  1  0  0  0  0
 76176  1  0  0  0  0
 76177  1  0  0  0  0
 76178  1  0  0  0  0
 77179  1  0  0  0  0
 78180  1  0  0  0  0
 85181  1  0  0  0  0
 86182  1  0  0  0  0
 89183  1  0  0  0  0
 89184  1  0  0  0  0
 89185  1  0  0  0  0
 90186  1  0  0  0  0
 91187  1  0  0  0  0
 93188  1  0  0  0  0
 94189  1  0  0  0  0
 97190  1  0  0  0  0
 97191  1  0  0  0  0
 97192  1  0  0  0  0
 98193  1  0  0  0  0
 99194  1  0  0  0  0
111195  1  0  0  0  0
111196  1  0  0  0  0
112197  1  0  0  0  0
112198  1  0  0  0  0
112199  1  0  0  0  0
116200  1  0  0  0  0
116201  1  0  0  0  0
117202  1  0  0  0  0
117203  1  0  0  0  0
117204  1  0  0  0  0
118205  1  0  0  0  0
123206  1  0  0  0  0
126207  1  0  0  0  0
127208  1  0  0  0  0
M  END
