
  xtb     02052215253D
 energy: -349.078803810401 gnorm: 0.000440609427 xtb: 6.4.1 (unknown)
206222  0     0  0            999 V2000
    1.5535    3.3872    6.4012 C   0  0  0  0  0  0  0  0  0  0  0  0
    1.0981    4.6241    6.7990 C   0  0  0  0  0  0  0  0  0  0  0  0
    1.5162    5.1649    8.1093 C   0  0  0  0  0  0  0  0  0  0  0  0
    2.3549    4.7172    8.8587 O   0  0  0  0  0  0  0  0  0  0  0  0
    0.6439    6.3446    8.3331 C   0  0  0  0  0  0  0  0  0  0  0  0
    0.5546    7.1511    9.4472 C   0  0  0  0  0  0  0  0  0  0  0  0
   -0.3462    8.2091    9.4018 C   0  0  0  0  0  0  0  0  0  0  0  0
   -0.5175    9.2384   10.7779 Cl  0  0  0  0  0  0  0  0  0  0  0  0
   -1.1149    8.4557    8.2708 C   0  0  0  0  0  0  0  0  0  0  0  0
   -1.0167    7.6381    7.1541 C   0  0  0  0  0  0  0  0  0  0  0  0
   -0.1424    6.5644    7.1896 C   0  0  0  0  0  0  0  0  0  0  0  0
    0.1797    5.5412    6.1958 C   0  0  0  0  0  0  0  0  0  0  0  0
   -0.1562    5.5826    4.8579 C   0  0  0  0  0  0  0  0  0  0  0  0
    0.4868    4.7959    3.8910 C   0  0  0  0  0  0  0  0  0  0  0  0
    1.0157    4.1969    3.0637 N   0  0  0  0  0  0  0  0  0  0  0  0
   -1.1277    6.4404    4.3173 C   0  0  0  0  0  0  0  0  0  0  0  0
   -1.9582    7.0771    3.8416 N   0  0  0  0  0  0  0  0  0  0  0  0
    1.0058    2.4508    5.5207 C   0  0  0  0  0  0  0  0  0  0  0  0
   -0.2975    2.2538    5.0078 C   0  0  0  0  0  0  0  0  0  0  0  0
   -1.4366    2.9302    5.3790 N   0  0  0  0  0  0  0  0  0  0  0  0
   -1.6386    3.4239    6.6772 C   0  0  0  0  0  0  0  0  0  0  0  0
   -2.4677    4.5290    6.8715 C   0  0  0  0  0  0  0  0  0  0  0  0
   -2.6752    5.0505    8.1320 C   0  0  0  0  0  0  0  0  0  0  0  0
   -2.0359    4.4909    9.2311 C   0  0  0  0  0  0  0  0  0  0  0  0
   -2.1520    5.1154   10.8702 S   0  0  0  0  0  0  0  0  0  0  0  0
   -3.3239    6.4948   10.7380 C   0  0  0  0  0  0  0  0  0  0  0  0
   -1.2341    3.3642    9.0477 C   0  0  0  0  0  0  0  0  0  0  0  0
   -1.0477    2.8297    7.7933 C   0  0  0  0  0  0  0  0  0  0  0  0
   -2.5466    2.9473    4.4998 C   0  0  0  0  0  0  0  0  0  0  0  0
   -3.8146    2.6292    4.9766 C   0  0  0  0  0  0  0  0  0  0  0  0
   -4.9187    2.7044    4.1516 C   0  0  0  0  0  0  0  0  0  0  0  0
   -4.7683    3.0869    2.8247 C   0  0  0  0  0  0  0  0  0  0  0  0
   -6.1057    3.2315    1.6853 S   0  0  0  0  0  0  0  0  0  0  0  0
   -7.5104    2.4760    2.5569 C   0  0  0  0  0  0  0  0  0  0  0  0
   -3.4982    3.3848    2.3366 C   0  0  0  0  0  0  0  0  0  0  0  0
   -2.3983    3.3153    3.1629 C   0  0  0  0  0  0  0  0  0  0  0  0
   -0.3087    1.1871    4.0889 C   0  0  0  0  0  0  0  0  0  0  0  0
   -1.5334    0.4457    3.1067 S   0  0  0  0  0  0  0  0  0  0  0  0
   -0.3608   -0.6711    2.4306 C   0  0  0  0  0  0  0  0  0  0  0  0
    0.9028   -0.5075    3.0015 C   0  0  0  0  0  0  0  0  0  0  0  0
    2.0287   -1.2742    2.6551 N   0  0  0  0  0  0  0  0  0  0  0  0
    2.0994   -2.5765    3.1590 C   0  0  0  0  0  0  0  0  0  0  0  0
    1.4518   -2.8912    4.3556 C   0  0  0  0  0  0  0  0  0  0  0  0
    1.5019   -4.1703    4.8672 C   0  0  0  0  0  0  0  0  0  0  0  0
    2.2068   -5.1658    4.2011 C   0  0  0  0  0  0  0  0  0  0  0  0
    2.2393   -6.7871    4.9138 S   0  0  0  0  0  0  0  0  0  0  0  0
    3.8349   -7.4334    4.3278 C   0  0  0  0  0  0  0  0  0  0  0  0
    2.8259   -4.8693    2.9954 C   0  0  0  0  0  0  0  0  0  0  0  0
    2.7641   -3.5940    2.4752 C   0  0  0  0  0  0  0  0  0  0  0  0
    2.9715   -0.7282    1.7755 C   0  0  0  0  0  0  0  0  0  0  0  0
    2.5838    0.2428    0.8513 C   0  0  0  0  0  0  0  0  0  0  0  0
    3.4515    0.6823   -0.1274 C   0  0  0  0  0  0  0  0  0  0  0  0
    4.7416    0.1764   -0.1880 C   0  0  0  0  0  0  0  0  0  0  0  0
    5.8820    0.5836   -1.4785 S   0  0  0  0  0  0  0  0  0  0  0  0
    5.2928    2.2024   -2.0544 C   0  0  0  0  0  0  0  0  0  0  0  0
    5.1660   -0.7206    0.7877 C   0  0  0  0  0  0  0  0  0  0  0  0
    4.2976   -1.1603    1.7637 C   0  0  0  0  0  0  0  0  0  0  0  0
    0.9180    0.5491    3.9215 C   0  0  0  0  0  0  0  0  0  0  0  0
    2.1358    1.2228    4.9291 S   0  0  0  0  0  0  0  0  0  0  0  0
   -0.6300   -1.3703    1.2323 C   0  0  0  0  0  0  0  0  0  0  0  0
   -1.7157   -1.1603    0.3758 C   0  0  0  0  0  0  0  0  0  0  0  0
   -2.9332   -0.6405    0.7750 N   0  0  0  0  0  0  0  0  0  0  0  0
   -3.4981    0.3772   -0.0105 C   0  0  0  0  0  0  0  0  0  0  0  0
   -4.8554    0.3968   -0.3118 C   0  0  0  0  0  0  0  0  0  0  0  0
   -5.3888    1.4166   -1.0738 C   0  0  0  0  0  0  0  0  0  0  0  0
   -4.5703    2.4311   -1.5527 C   0  0  0  0  0  0  0  0  0  0  0  0
   -5.1581    3.7836   -2.5190 S   0  0  0  0  0  0  0  0  0  0  0  0
   -6.9321    3.8223   -2.1352 C   0  0  0  0  0  0  0  0  0  0  0  0
   -3.2048    2.3964   -1.2803 C   0  0  0  0  0  0  0  0  0  0  0  0
   -2.6745    1.3836   -0.5140 C   0  0  0  0  0  0  0  0  0  0  0  0
   -3.6120   -1.1975    1.8615 C   0  0  0  0  0  0  0  0  0  0  0  0
   -4.5266   -0.4344    2.5911 C   0  0  0  0  0  0  0  0  0  0  0  0
   -5.1856   -0.9783    3.6678 C   0  0  0  0  0  0  0  0  0  0  0  0
   -4.9509   -2.2972    4.0536 C   0  0  0  0  0  0  0  0  0  0  0  0
   -5.8582   -2.8788    5.4514 S   0  0  0  0  0  0  0  0  0  0  0  0
   -5.3171   -4.5999    5.6434 C   0  0  0  0  0  0  0  0  0  0  0  0
   -4.0398   -3.0593    3.3364 C   0  0  0  0  0  0  0  0  0  0  0  0
   -3.3812   -2.5147    2.2511 C   0  0  0  0  0  0  0  0  0  0  0  0
   -1.3729   -1.4854   -0.9581 C   0  0  0  0  0  0  0  0  0  0  0  0
   -2.0560   -1.1581   -2.5183 S   0  0  0  0  0  0  0  0  0  0  0  0
   -0.5765   -1.6882   -3.3116 C   0  0  0  0  0  0  0  0  0  0  0  0
    0.3789   -2.1079   -2.4091 C   0  0  0  0  0  0  0  0  0  0  0  0
    1.7139   -2.3968   -2.6698 N   0  0  0  0  0  0  0  0  0  0  0  0
    2.4872   -1.5276   -3.4393 C   0  0  0  0  0  0  0  0  0  0  0  0
    3.6379   -1.9844   -4.0779 C   0  0  0  0  0  0  0  0  0  0  0  0
    4.4409   -1.1180   -4.7910 C   0  0  0  0  0  0  0  0  0  0  0  0
    4.0938    0.2199   -4.9046 C   0  0  0  0  0  0  0  0  0  0  0  0
    5.0828    1.3850   -5.7949 S   0  0  0  0  0  0  0  0  0  0  0  0
    6.7617    0.7382   -5.5238 C   0  0  0  0  0  0  0  0  0  0  0  0
    2.9243    0.6763   -4.3091 C   0  0  0  0  0  0  0  0  0  0  0  0
    2.1386   -0.1824   -3.5729 C   0  0  0  0  0  0  0  0  0  0  0  0
    2.2750   -3.4642   -1.9649 C   0  0  0  0  0  0  0  0  0  0  0  0
    3.5654   -3.4063   -1.4332 C   0  0  0  0  0  0  0  0  0  0  0  0
    4.0830   -4.4859   -0.7526 C   0  0  0  0  0  0  0  0  0  0  0  0
    3.3260   -5.6423   -0.5714 C   0  0  0  0  0  0  0  0  0  0  0  0
    4.1089   -6.9785    0.2845 S   0  0  0  0  0  0  0  0  0  0  0  0
    2.7984   -8.2279    0.4395 C   0  0  0  0  0  0  0  0  0  0  0  0
    2.0315   -5.6931   -1.0653 C   0  0  0  0  0  0  0  0  0  0  0  0
    1.5164   -4.6140   -1.7553 C   0  0  0  0  0  0  0  0  0  0  0  0
   -0.1014   -2.0205   -1.0831 C   0  0  0  0  0  0  0  0  0  0  0  0
    0.6841   -2.2272    0.4342 S   0  0  0  0  0  0  0  0  0  0  0  0
   -0.4238   -1.5128   -4.7409 C   0  0  0  0  0  0  0  0  0  0  0  0
    0.2458   -2.4758   -5.5102 C   0  0  0  0  0  0  0  0  0  0  0  0
    0.7039   -3.6017   -4.8792 O   0  0  0  0  0  0  0  0  0  0  0  0
    0.1804   -4.8485   -5.3174 C   0  0  0  0  0  0  0  0  0  0  0  0
   -1.3043   -4.9842   -4.9955 C   0  0  0  0  0  0  0  0  0  0  0  0
    0.4690   -2.2533   -6.8776 C   0  0  0  0  0  0  0  0  0  0  0  0
    1.1000   -3.2576   -7.5673 O   0  0  0  0  0  0  0  0  0  0  0  0
    2.1606   -2.9389   -8.4486 C   0  0  0  0  0  0  0  0  0  0  0  0
    3.3206   -2.2526   -7.7426 C   0  0  0  0  0  0  0  0  0  0  0  0
    0.0315   -1.0589   -7.4630 C   0  0  0  0  0  0  0  0  0  0  0  0
   -0.6590   -0.1273   -6.6857 C   0  0  0  0  0  0  0  0  0  0  0  0
   -0.9008   -0.3551   -5.3549 C   0  0  0  0  0  0  0  0  0  0  0  0
    0.2366   -0.7359   -8.8730 C   0  0  0  0  0  0  0  0  0  0  0  0
    0.9575    0.3351   -9.2727 C   0  0  0  0  0  0  0  0  0  0  0  0
    1.8301    1.1191   -8.3491 C   0  0  0  0  0  0  0  0  0  0  0  0
    1.9197    1.0118   -7.1486 O   0  0  0  0  0  0  0  0  0  0  0  0
    2.6112    2.0169   -9.2230 C   0  0  0  0  0  0  0  0  0  0  0  0
    3.6024    2.9037   -8.8554 C   0  0  0  0  0  0  0  0  0  0  0  0
    4.2056    3.6435   -9.8655 C   0  0  0  0  0  0  0  0  0  0  0  0
    5.4504    4.7621   -9.4676 Cl  0  0  0  0  0  0  0  0  0  0  0  0
    3.8219    3.4948  -11.1957 C   0  0  0  0  0  0  0  0  0  0  0  0
    2.8306    2.5964  -11.5552 C   0  0  0  0  0  0  0  0  0  0  0  0
    2.2163    1.8431  -10.5623 C   0  0  0  0  0  0  0  0  0  0  0  0
    1.1764    0.8250  -10.6282 C   0  0  0  0  0  0  0  0  0  0  0  0
    0.5056    0.4289  -11.7529 C   0  0  0  0  0  0  0  0  0  0  0  0
    0.7420    0.9508  -13.0429 C   0  0  0  0  0  0  0  0  0  0  0  0
    0.8879    1.3310  -14.1158 N   0  0  0  0  0  0  0  0  0  0  0  0
   -0.5183   -0.5421  -11.7796 C   0  0  0  0  0  0  0  0  0  0  0  0
   -1.3579   -1.3196  -11.8732 N   0  0  0  0  0  0  0  0  0  0  0  0
    2.4649    3.0681    6.8996 H   0  0  0  0  0  0  0  0  0  0  0  0
    1.1609    6.9600   10.3180 H   0  0  0  0  0  0  0  0  0  0  0  0
   -1.7956    9.2934    8.2651 H   0  0  0  0  0  0  0  0  0  0  0  0
   -1.6258    7.8403    6.2876 H   0  0  0  0  0  0  0  0  0  0  0  0
   -2.9466    4.9942    6.0222 H   0  0  0  0  0  0  0  0  0  0  0  0
   -3.3194    5.9076    8.2374 H   0  0  0  0  0  0  0  0  0  0  0  0
   -2.9280    7.2579   10.0751 H   0  0  0  0  0  0  0  0  0  0  0  0
   -4.2880    6.1306   10.3957 H   0  0  0  0  0  0  0  0  0  0  0  0
   -3.4157    6.8932   11.7436 H   0  0  0  0  0  0  0  0  0  0  0  0
   -0.7588    2.9132    9.9046 H   0  0  0  0  0  0  0  0  0  0  0  0
   -0.4419    1.9445    7.6778 H   0  0  0  0  0  0  0  0  0  0  0  0
   -3.9387    2.3265    6.0058 H   0  0  0  0  0  0  0  0  0  0  0  0
   -5.8872    2.4611    4.5571 H   0  0  0  0  0  0  0  0  0  0  0  0
   -8.3260    2.4611    1.8404 H   0  0  0  0  0  0  0  0  0  0  0  0
   -7.7908    3.0797    3.4149 H   0  0  0  0  0  0  0  0  0  0  0  0
   -7.2580    1.4610    2.8488 H   0  0  0  0  0  0  0  0  0  0  0  0
   -3.3847    3.6771    1.3045 H   0  0  0  0  0  0  0  0  0  0  0  0
   -1.4225    3.5551    2.7722 H   0  0  0  0  0  0  0  0  0  0  0  0
    0.9156   -2.1247    4.8949 H   0  0  0  0  0  0  0  0  0  0  0  0
    1.0053   -4.4044    5.7964 H   0  0  0  0  0  0  0  0  0  0  0  0
    4.0367   -8.3164    4.9257 H   0  0  0  0  0  0  0  0  0  0  0  0
    4.6035   -6.6851    4.4926 H   0  0  0  0  0  0  0  0  0  0  0  0
    3.7798   -7.7042    3.2782 H   0  0  0  0  0  0  0  0  0  0  0  0
    3.3569   -5.6280    2.4452 H   0  0  0  0  0  0  0  0  0  0  0  0
    3.2190   -3.3954    1.5178 H   0  0  0  0  0  0  0  0  0  0  0  0
    1.5807    0.6414    0.8773 H   0  0  0  0  0  0  0  0  0  0  0  0
    3.1028    1.4011   -0.8515 H   0  0  0  0  0  0  0  0  0  0  0  0
    4.3958    2.0819   -2.6545 H   0  0  0  0  0  0  0  0  0  0  0  0
    5.1148    2.8433   -1.1965 H   0  0  0  0  0  0  0  0  0  0  0  0
    6.0903    2.6119   -2.6667 H   0  0  0  0  0  0  0  0  0  0  0  0
    6.1852   -1.0753    0.7693 H   0  0  0  0  0  0  0  0  0  0  0  0
    4.6476   -1.8439    2.5212 H   0  0  0  0  0  0  0  0  0  0  0  0
   -5.4955   -0.3942    0.0498 H   0  0  0  0  0  0  0  0  0  0  0  0
   -6.4437    1.4072   -1.2937 H   0  0  0  0  0  0  0  0  0  0  0  0
   -7.4476    3.0092   -2.6383 H   0  0  0  0  0  0  0  0  0  0  0  0
   -7.2947    4.7738   -2.5115 H   0  0  0  0  0  0  0  0  0  0  0  0
   -7.0613    3.7719   -1.0583 H   0  0  0  0  0  0  0  0  0  0  0  0
   -2.5721    3.1829   -1.6621 H   0  0  0  0  0  0  0  0  0  0  0  0
   -1.6201    1.3748   -0.2802 H   0  0  0  0  0  0  0  0  0  0  0  0
   -4.6915    0.5932    2.3123 H   0  0  0  0  0  0  0  0  0  0  0  0
   -5.8840   -0.3857    4.2390 H   0  0  0  0  0  0  0  0  0  0  0  0
   -5.8635   -4.9834    6.4996 H   0  0  0  0  0  0  0  0  0  0  0  0
   -5.5746   -5.1710    4.7562 H   0  0  0  0  0  0  0  0  0  0  0  0
   -4.2498   -4.6346    5.8415 H   0  0  0  0  0  0  0  0  0  0  0  0
   -3.8324   -4.0822    3.6057 H   0  0  0  0  0  0  0  0  0  0  0  0
   -2.6811   -3.1251    1.7004 H   0  0  0  0  0  0  0  0  0  0  0  0
    3.9029   -3.0288   -4.0144 H   0  0  0  0  0  0  0  0  0  0  0  0
    5.3325   -1.4967   -5.2658 H   0  0  0  0  0  0  0  0  0  0  0  0
    6.9641   -0.0883   -6.1991 H   0  0  0  0  0  0  0  0  0  0  0  0
    7.4400    1.5580   -5.7381 H   0  0  0  0  0  0  0  0  0  0  0  0
    6.8597    0.4291   -4.4874 H   0  0  0  0  0  0  0  0  0  0  0  0
    2.6395    1.7105   -4.4255 H   0  0  0  0  0  0  0  0  0  0  0  0
    1.2575    0.2000   -3.0812 H   0  0  0  0  0  0  0  0  0  0  0  0
    4.1550   -2.5090   -1.5445 H   0  0  0  0  0  0  0  0  0  0  0  0
    5.0825   -4.4421   -0.3465 H   0  0  0  0  0  0  0  0  0  0  0  0
    3.2430   -9.0550    0.9852 H   0  0  0  0  0  0  0  0  0  0  0  0
    1.9604   -7.8206    0.9989 H   0  0  0  0  0  0  0  0  0  0  0  0
    2.4893   -8.5671   -0.5448 H   0  0  0  0  0  0  0  0  0  0  0  0
    1.4151   -6.5675   -0.9323 H   0  0  0  0  0  0  0  0  0  0  0  0
    0.5152   -4.6649   -2.1551 H   0  0  0  0  0  0  0  0  0  0  0  0
    0.7645   -5.5897   -4.7656 H   0  0  0  0  0  0  0  0  0  0  0  0
    0.3477   -4.9841   -6.3898 H   0  0  0  0  0  0  0  0  0  0  0  0
   -1.8795   -4.2442   -5.5487 H   0  0  0  0  0  0  0  0  0  0  0  0
   -1.6512   -5.9762   -5.2712 H   0  0  0  0  0  0  0  0  0  0  0  0
   -1.4793   -4.8310   -3.9325 H   0  0  0  0  0  0  0  0  0  0  0  0
    1.8022   -2.3212   -9.2819 H   0  0  0  0  0  0  0  0  0  0  0  0
    2.4703   -3.9093   -8.8466 H   0  0  0  0  0  0  0  0  0  0  0  0
    3.6928   -2.8859   -6.9415 H   0  0  0  0  0  0  0  0  0  0  0  0
    2.9989   -1.3083   -7.3078 H   0  0  0  0  0  0  0  0  0  0  0  0
    4.1221   -2.0625   -8.4517 H   0  0  0  0  0  0  0  0  0  0  0  0
   -1.0106    0.7794   -7.1533 H   0  0  0  0  0  0  0  0  0  0  0  0
   -1.4348    0.3747   -4.7653 H   0  0  0  0  0  0  0  0  0  0  0  0
   -0.2600   -1.3732   -9.5952 H   0  0  0  0  0  0  0  0  0  0  0  0
    3.8955    2.9999   -7.8218 H   0  0  0  0  0  0  0  0  0  0  0  0
    4.3094    4.0858  -11.9550 H   0  0  0  0  0  0  0  0  0  0  0  0
    2.5574    2.4935  -12.5927 H   0  0  0  0  0  0  0  0  0  0  0  0
  1  2  2  0  0  0  0
  2  3  1  0  0  0  0
  3  4  2  0  0  0  0
  3  5  1  0  0  0  0
  5  6  2  0  0  0  0
  6  7  1  0  0  0  0
  7  8  1  0  0  0  0
  7  9  2  0  0  0  0
  9 10  1  0  0  0  0
 10 11  2  0  0  0  0
 11 12  1  0  0  0  0
 12 13  2  0  0  0  0
 13 14  1  0  0  0  0
 14 15  3  0  0  0  0
 13 16  1  0  0  0  0
 16 17  3  0  0  0  0
  1 18  1  0  0  0  0
 18 19  2  0  0  0  0
 19 20  1  0  0  0  0
 20 21  1  0  0  0  0
 21 22  2  0  0  0  0
 22 23  1  0  0  0  0
 23 24  2  0  0  0  0
 24 25  1  0  0  0  0
 25 26  1  0  0  0  0
 24 27  1  0  0  0  0
 27 28  2  0  0  0  0
 20 29  1  0  0  0  0
 29 30  2  0  0  0  0
 30 31  1  0  0  0  0
 31 32  2  0  0  0  0
 32 33  1  0  0  0  0
 33 34  1  0  0  0  0
 32 35  1  0  0  0  0
 35 36  2  0  0  0  0
 19 37  1  0  0  0  0
 37 38  1  0  0  0  0
 38 39  1  0  0  0  0
 39 40  2  0  0  0  0
 40 41  1  0  0  0  0
 41 42  1  0  0  0  0
 42 43  2  0  0  0  0
 43 44  1  0  0  0  0
 44 45  2  0  0  0  0
 45 46  1  0  0  0  0
 46 47  1  0  0  0  0
 45 48  1  0  0  0  0
 48 49  2  0  0  0  0
 41 50  1  0  0  0  0
 50 51  2  0  0  0  0
 51 52  1  0  0  0  0
 52 53  2  0  0  0  0
 53 54  1  0  0  0  0
 54 55  1  0  0  0  0
 53 56  1  0  0  0  0
 56 57  2  0  0  0  0
 40 58  1  0  0  0  0
 58 59  1  0  0  0  0
 39 60  1  0  0  0  0
 60 61  2  0  0  0  0
 61 62  1  0  0  0  0
 62 63  1  0  0  0  0
 63 64  2  0  0  0  0
 64 65  1  0  0  0  0
 65 66  2  0  0  0  0
 66 67  1  0  0  0  0
 67 68  1  0  0  0  0
 66 69  1  0  0  0  0
 69 70  2  0  0  0  0
 62 71  1  0  0  0  0
 71 72  2  0  0  0  0
 72 73  1  0  0  0  0
 73 74  2  0  0  0  0
 74 75  1  0  0  0  0
 75 76  1  0  0  0  0
 74 77  1  0  0  0  0
 77 78  2  0  0  0  0
 61 79  1  0  0  0  0
 79 80  1  0  0  0  0
 80 81  1  0  0  0  0
 81 82  2  0  0  0  0
 82 83  1  0  0  0  0
 83 84  1  0  0  0  0
 84 85  2  0  0  0  0
 85 86  1  0  0  0  0
 86 87  2  0  0  0  0
 87 88  1  0  0  0  0
 88 89  1  0  0  0  0
 87 90  1  0  0  0  0
 90 91  2  0  0  0  0
 83 92  1  0  0  0  0
 92 93  2  0  0  0  0
 93 94  1  0  0  0  0
 94 95  2  0  0  0  0
 95 96  1  0  0  0  0
 96 97  1  0  0  0  0
 95 98  1  0  0  0  0
 98 99  2  0  0  0  0
 82100  1  0  0  0  0
100101  1  0  0  0  0
 81102  1  0  0  0  0
102103  2  0  0  0  0
103104  1  0  0  0  0
104105  1  0  0  0  0
105106  1  0  0  0  0
103107  1  0  0  0  0
107108  1  0  0  0  0
108109  1  0  0  0  0
109110  1  0  0  0  0
107111  2  0  0  0  0
111112  1  0  0  0  0
112113  2  0  0  0  0
111114  1  0  0  0  0
114115  2  0  0  0  0
115116  1  0  0  0  0
116117  2  0  0  0  0
116118  1  0  0  0  0
118119  2  0  0  0  0
119120  1  0  0  0  0
120121  1  0  0  0  0
120122  2  0  0  0  0
122123  1  0  0  0  0
123124  2  0  0  0  0
124125  1  0  0  0  0
125126  2  0  0  0  0
126127  1  0  0  0  0
127128  3  0  0  0  0
126129  1  0  0  0  0
129130  3  0  0  0  0
 12  2  1  0  0  0  0
 59 18  1  0  0  0  0
101 60  1  0  0  0  0
113102  1  0  0  0  0
125115  1  0  0  0  0
 11  5  1  0  0  0  0
 28 21  1  0  0  0  0
 36 29  1  0  0  0  0
 58 37  2  0  0  0  0
 70 63  1  0  0  0  0
 78 71  1  0  0  0  0
100 79  2  0  0  0  0
124118  1  0  0  0  0
 49 42  1  0  0  0  0
 57 50  1  0  0  0  0
 91 84  1  0  0  0  0
 99 92  1  0  0  0  0
  1131  1  0  0  0  0
  6132  1  0  0  0  0
  9133  1  0  0  0  0
 10134  1  0  0  0  0
 22135  1  0  0  0  0
 23136  1  0  0  0  0
 26137  1  0  0  0  0
 26138  1  0  0  0  0
 26139  1  0  0  0  0
 27140  1  0  0  0  0
 28141  1  0  0  0  0
 30142  1  0  0  0  0
 31143  1  0  0  0  0
 34144  1  0  0  0  0
 34145  1  0  0  0  0
 34146  1  0  0  0  0
 35147  1  0  0  0  0
 36148  1  0  0  0  0
 43149  1  0  0  0  0
 44150  1  0  0  0  0
 47151  1  0  0  0  0
 47152  1  0  0  0  0
 47153  1  0  0  0  0
 48154  1  0  0  0  0
 49155  1  0  0  0  0
 51156  1  0  0  0  0
 52157  1  0  0  0  0
 55158  1  0  0  0  0
 55159  1  0  0  0  0
 55160  1  0  0  0  0
 56161  1  0  0  0  0
 57162  1  0  0  0  0
 64163  1  0  0  0  0
 65164  1  0  0  0  0
 68165  1  0  0  0  0
 68166  1  0  0  0  0
 68167  1  0  0  0  0
 69168  1  0  0  0  0
 70169  1  0  0  0  0
 72170  1  0  0  0  0
 73171  1  0  0  0  0
 76172  1  0  0  0  0
 76173  1  0  0  0  0
 76174  1  0  0  0  0
 77175  1  0  0  0  0
 78176  1  0  0  0  0
 85177  1  0  0  0  0
 86178  1  0  0  0  0
 89179  1  0  0  0  0
 89180  1  0  0  0  0
 89181  1  0  0  0  0
 90182  1  0  0  0  0
 91183  1  0  0  0  0
 93184  1  0  0  0  0
 94185  1  0  0  0  0
 97186  1  0  0  0  0
 97187  1  0  0  0  0
 97188  1  0  0  0  0
 98189  1  0  0  0  0
 99190  1  0  0  0  0
105191  1  0  0  0  0
105192  1  0  0  0  0
106193  1  0  0  0  0
106194  1  0  0  0  0
106195  1  0  0  0  0
109196  1  0  0  0  0
109197  1  0  0  0  0
110198  1  0  0  0  0
110199  1  0  0  0  0
110200  1  0  0  0  0
112201  1  0  0  0  0
113202  1  0  0  0  0
114203  1  0  0  0  0
119204  1  0  0  0  0
122205  1  0  0  0  0
123206  1  0  0  0  0
M  END
