
  xtb     02062209303D
 energy: -340.615305348779 gnorm: 0.000412228354 xtb: 6.4.1 (unknown)
193210  0     0  0            999 V2000
    1.6268    6.9508   -1.9777 C   0  0  0  0  0  0  0  0  0  0  0  0
    2.6067    7.2088   -2.9232 C   0  0  0  0  0  0  0  0  0  0  0  0
    3.5796    6.2186   -3.3866 C   0  0  0  0  0  0  0  0  0  0  0  0
    3.6521    5.0378   -3.0833 O   0  0  0  0  0  0  0  0  0  0  0  0
    4.5449    6.9708   -4.2209 C   0  0  0  0  0  0  0  0  0  0  0  0
    5.6538    6.5015   -4.8895 C   0  0  0  0  0  0  0  0  0  0  0  0
    6.3884    7.4177   -5.6359 C   0  0  0  0  0  0  0  0  0  0  0  0
    7.7759    6.8778   -6.5059 Cl  0  0  0  0  0  0  0  0  0  0  0  0
    6.0239    8.7557   -5.6986 C   0  0  0  0  0  0  0  0  0  0  0  0
    4.9090    9.2200   -5.0141 C   0  0  0  0  0  0  0  0  0  0  0  0
    4.1635    8.3224   -4.2695 C   0  0  0  0  0  0  0  0  0  0  0  0
    2.9441    8.4852   -3.4826 C   0  0  0  0  0  0  0  0  0  0  0  0
    2.1653    9.6166   -3.4270 C   0  0  0  0  0  0  0  0  0  0  0  0
    2.4954   10.8374   -4.0430 C   0  0  0  0  0  0  0  0  0  0  0  0
    2.6957   11.8582   -4.5310 N   0  0  0  0  0  0  0  0  0  0  0  0
    0.8923    9.6595   -2.8276 C   0  0  0  0  0  0  0  0  0  0  0  0
   -0.1774    9.7489   -2.4162 N   0  0  0  0  0  0  0  0  0  0  0  0
    1.0746    5.7049   -1.7119 C   0  0  0  0  0  0  0  0  0  0  0  0
    1.0150    4.5302   -2.5029 C   0  0  0  0  0  0  0  0  0  0  0  0
    1.1884    4.4477   -3.8429 N   0  0  0  0  0  0  0  0  0  0  0  0
    1.2638    3.1678   -4.4659 C   0  0  0  0  0  0  0  0  0  0  0  0
    0.1366    2.6628   -5.1077 C   0  0  0  0  0  0  0  0  0  0  0  0
    0.1904    1.4287   -5.7153 C   0  0  0  0  0  0  0  0  0  0  0  0
    1.3777    0.6969   -5.7199 C   0  0  0  0  0  0  0  0  0  0  0  0
    1.3124   -0.8708   -6.5189 S   0  0  0  0  0  0  0  0  0  0  0  0
    2.9789   -1.5577   -6.3265 C   0  0  0  0  0  0  0  0  0  0  0  0
    2.5125    1.2247   -5.1176 C   0  0  0  0  0  0  0  0  0  0  0  0
    2.4495    2.4497   -4.4772 C   0  0  0  0  0  0  0  0  0  0  0  0
    1.1733    5.5519   -4.7099 C   0  0  0  0  0  0  0  0  0  0  0  0
    2.1004    5.6235   -5.7509 C   0  0  0  0  0  0  0  0  0  0  0  0
    2.1449    6.7337   -6.5639 C   0  0  0  0  0  0  0  0  0  0  0  0
    1.2540    7.7899   -6.3731 C   0  0  0  0  0  0  0  0  0  0  0  0
    1.4687    9.1935   -7.4082 S   0  0  0  0  0  0  0  0  0  0  0  0
    0.1853   10.3553   -6.8665 C   0  0  0  0  0  0  0  0  0  0  0  0
    0.2748    7.6820   -5.3901 C   0  0  0  0  0  0  0  0  0  0  0  0
    0.2403    6.5759   -4.5665 C   0  0  0  0  0  0  0  0  0  0  0  0
    0.6012    3.4349   -1.7121 C   0  0  0  0  0  0  0  0  0  0  0  0
    0.5138    1.7274   -1.9758 S   0  0  0  0  0  0  0  0  0  0  0  0
   -0.0814    1.4754   -0.3411 C   0  0  0  0  0  0  0  0  0  0  0  0
   -0.2193    2.6713    0.3603 C   0  0  0  0  0  0  0  0  0  0  0  0
   -0.7254    2.8186    1.6500 N   0  0  0  0  0  0  0  0  0  0  0  0
   -0.2522    2.0166    2.6922 C   0  0  0  0  0  0  0  0  0  0  0  0
   -1.0945    1.5860    3.7168 C   0  0  0  0  0  0  0  0  0  0  0  0
   -0.6412    0.7026    4.6750 C   0  0  0  0  0  0  0  0  0  0  0  0
    0.6593    0.2200    4.6220 C   0  0  0  0  0  0  0  0  0  0  0  0
    1.3163   -0.9797    5.7390 S   0  0  0  0  0  0  0  0  0  0  0  0
   -0.1369   -1.5694    6.6526 C   0  0  0  0  0  0  0  0  0  0  0  0
    1.5213    0.6920    3.6340 C   0  0  0  0  0  0  0  0  0  0  0  0
    1.0741    1.5856    2.6866 C   0  0  0  0  0  0  0  0  0  0  0  0
   -1.7342    3.7686    1.8466 C   0  0  0  0  0  0  0  0  0  0  0  0
   -2.6270    4.0597    0.8174 C   0  0  0  0  0  0  0  0  0  0  0  0
   -3.6229    5.0008    0.9880 C   0  0  0  0  0  0  0  0  0  0  0  0
   -3.7572    5.6576    2.2030 C   0  0  0  0  0  0  0  0  0  0  0  0
   -5.0323    6.8321    2.5416 S   0  0  0  0  0  0  0  0  0  0  0  0
   -5.5476    7.3768    0.8854 C   0  0  0  0  0  0  0  0  0  0  0  0
   -2.8714    5.3664    3.2376 C   0  0  0  0  0  0  0  0  0  0  0  0
   -1.8647    4.4447    3.0602 C   0  0  0  0  0  0  0  0  0  0  0  0
    0.2036    3.7655   -0.4235 C   0  0  0  0  0  0  0  0  0  0  0  0
    0.3557    5.4535   -0.1065 S   0  0  0  0  0  0  0  0  0  0  0  0
   -0.4511    0.1672    0.0688 C   0  0  0  0  0  0  0  0  0  0  0  0
    0.0184   -1.0508   -0.4150 C   0  0  0  0  0  0  0  0  0  0  0  0
    1.1024   -1.2102   -1.2669 N   0  0  0  0  0  0  0  0  0  0  0  0
    0.9909   -2.1019   -2.3442 C   0  0  0  0  0  0  0  0  0  0  0  0
    2.0568   -2.9322   -2.6898 C   0  0  0  0  0  0  0  0  0  0  0  0
    1.9616   -3.7567   -3.7877 C   0  0  0  0  0  0  0  0  0  0  0  0
    0.8000   -3.7771   -4.5585 C   0  0  0  0  0  0  0  0  0  0  0  0
    0.8141   -4.8247   -5.9781 S   0  0  0  0  0  0  0  0  0  0  0  0
   -0.6232   -4.2638   -6.9334 C   0  0  0  0  0  0  0  0  0  0  0  0
   -0.2802   -2.9887   -4.1869 C   0  0  0  0  0  0  0  0  0  0  0  0
   -0.1817   -2.1552   -3.0901 C   0  0  0  0  0  0  0  0  0  0  0  0
    2.2810   -0.4948   -1.0512 C   0  0  0  0  0  0  0  0  0  0  0  0
    3.0788   -0.1148   -2.1302 C   0  0  0  0  0  0  0  0  0  0  0  0
    4.1874    0.6806   -1.9332 C   0  0  0  0  0  0  0  0  0  0  0  0
    4.5115    1.1112   -0.6569 C   0  0  0  0  0  0  0  0  0  0  0  0
    5.8722    2.2417   -0.4152 S   0  0  0  0  0  0  0  0  0  0  0  0
    4.8977    3.7777   -0.3215 C   0  0  0  0  0  0  0  0  0  0  0  0
    3.7633    0.6843    0.4294 C   0  0  0  0  0  0  0  0  0  0  0  0
    2.6571   -0.1180    0.2371 C   0  0  0  0  0  0  0  0  0  0  0  0
   -0.6963   -2.1304    0.1478 C   0  0  0  0  0  0  0  0  0  0  0  0
   -0.5579   -3.8493    0.0338 S   0  0  0  0  0  0  0  0  0  0  0  0
   -1.7938   -4.0477    1.2698 C   0  0  0  0  0  0  0  0  0  0  0  0
   -2.2349   -2.8314    1.7881 C   0  0  0  0  0  0  0  0  0  0  0  0
   -2.9803   -2.6748    2.9386 N   0  0  0  0  0  0  0  0  0  0  0  0
   -3.6960   -1.4887    3.1428 C   0  0  0  0  0  0  0  0  0  0  0  0
   -4.3871   -0.8842    2.0958 C   0  0  0  0  0  0  0  0  0  0  0  0
   -4.9966    0.3448    2.2679 C   0  0  0  0  0  0  0  0  0  0  0  0
   -4.9356    0.9862    3.4975 C   0  0  0  0  0  0  0  0  0  0  0  0
   -5.5816    2.5927    3.8289 S   0  0  0  0  0  0  0  0  0  0  0  0
   -6.2811    3.1256    2.2448 C   0  0  0  0  0  0  0  0  0  0  0  0
   -4.3128    0.3447    4.5690 C   0  0  0  0  0  0  0  0  0  0  0  0
   -3.7021   -0.8748    4.3968 C   0  0  0  0  0  0  0  0  0  0  0  0
   -2.8567   -3.5946    3.9950 C   0  0  0  0  0  0  0  0  0  0  0  0
   -3.9773   -3.9611    4.7402 C   0  0  0  0  0  0  0  0  0  0  0  0
   -3.8745   -4.9202    5.7247 C   0  0  0  0  0  0  0  0  0  0  0  0
   -2.6477   -5.5191    6.0010 C   0  0  0  0  0  0  0  0  0  0  0  0
   -2.6154   -6.7833    7.2351 S   0  0  0  0  0  0  0  0  0  0  0  0
   -0.9085   -6.6868    7.8490 C   0  0  0  0  0  0  0  0  0  0  0  0
   -1.5180   -5.1182    5.2996 C   0  0  0  0  0  0  0  0  0  0  0  0
   -1.6240   -4.1617    4.3107 C   0  0  0  0  0  0  0  0  0  0  0  0
   -1.6438   -1.7527    1.0880 C   0  0  0  0  0  0  0  0  0  0  0  0
   -1.7366   -0.0390    1.2483 S   0  0  0  0  0  0  0  0  0  0  0  0
   -2.1731   -5.3542    1.7108 C   0  0  0  0  0  0  0  0  0  0  0  0
   -1.2819   -6.4141    1.7918 C   0  0  0  0  0  0  0  0  0  0  0  0
   -1.6108   -7.5962    2.4486 C   0  0  0  0  0  0  0  0  0  0  0  0
   -0.6908   -8.5702    2.4385 F   0  0  0  0  0  0  0  0  0  0  0  0
   -2.8390   -7.8285    3.0643 C   0  0  0  0  0  0  0  0  0  0  0  0
   -3.8309   -6.8486    2.7950 C   0  0  0  0  0  0  0  0  0  0  0  0
   -3.5062   -5.6210    2.1266 C   0  0  0  0  0  0  0  0  0  0  0  0
   -4.5781   -4.8549    1.9419 N   0  0  0  0  0  0  0  0  0  0  0  0
   -5.8599   -5.5975    2.5690 S   0  0  0  0  0  0  0  0  0  0  0  0
   -5.1205   -6.9189    3.1098 N   0  0  0  0  0  0  0  0  0  0  0  0
   -3.1795   -8.9497    3.8814 C   0  0  0  0  0  0  0  0  0  0  0  0
   -2.3633   -9.5725    4.7735 C   0  0  0  0  0  0  0  0  0  0  0  0
   -1.0733   -9.0383    5.2738 C   0  0  0  0  0  0  0  0  0  0  0  0
   -0.4889   -8.0312    4.9352 O   0  0  0  0  0  0  0  0  0  0  0  0
   -0.6857   -9.9322    6.3880 C   0  0  0  0  0  0  0  0  0  0  0  0
    0.4387   -9.8630    7.1850 C   0  0  0  0  0  0  0  0  0  0  0  0
    0.5694  -10.8045    8.1985 C   0  0  0  0  0  0  0  0  0  0  0  0
    1.9553  -10.7596    9.2226 Cl  0  0  0  0  0  0  0  0  0  0  0  0
   -0.3995  -11.7806    8.4031 C   0  0  0  0  0  0  0  0  0  0  0  0
   -1.5214  -11.8483    7.5921 C   0  0  0  0  0  0  0  0  0  0  0  0
   -1.6686  -10.9194    6.5713 C   0  0  0  0  0  0  0  0  0  0  0  0
   -2.7055  -10.7452    5.5611 C   0  0  0  0  0  0  0  0  0  0  0  0
   -3.7650  -11.5848    5.3487 C   0  0  0  0  0  0  0  0  0  0  0  0
   -4.7039  -11.4637    4.3010 C   0  0  0  0  0  0  0  0  0  0  0  0
   -5.4936  -11.4587    3.4678 N   0  0  0  0  0  0  0  0  0  0  0  0
   -4.0429  -12.7206    6.1389 C   0  0  0  0  0  0  0  0  0  0  0  0
   -4.3229  -13.6532    6.7467 N   0  0  0  0  0  0  0  0  0  0  0  0
    1.2947    7.7644   -1.3437 H   0  0  0  0  0  0  0  0  0  0  0  0
    5.9354    5.4617   -4.8385 H   0  0  0  0  0  0  0  0  0  0  0  0
    6.6156    9.4401   -6.2857 H   0  0  0  0  0  0  0  0  0  0  0  0
    4.6460   10.2637   -5.0711 H   0  0  0  0  0  0  0  0  0  0  0  0
   -0.7779    3.2369   -5.1138 H   0  0  0  0  0  0  0  0  0  0  0  0
   -0.6816    1.0163   -6.1989 H   0  0  0  0  0  0  0  0  0  0  0  0
    2.9440   -2.5361   -6.7963 H   0  0  0  0  0  0  0  0  0  0  0  0
    3.2146   -1.6712   -5.2723 H   0  0  0  0  0  0  0  0  0  0  0  0
    3.7020   -0.9279   -6.8361 H   0  0  0  0  0  0  0  0  0  0  0  0
    3.4521    0.6969   -5.1463 H   0  0  0  0  0  0  0  0  0  0  0  0
    3.3161    2.8664   -3.9875 H   0  0  0  0  0  0  0  0  0  0  0  0
    2.7999    4.8155   -5.8988 H   0  0  0  0  0  0  0  0  0  0  0  0
    2.8834    6.8072   -7.3471 H   0  0  0  0  0  0  0  0  0  0  0  0
    0.3270   11.2428   -7.4753 H   0  0  0  0  0  0  0  0  0  0  0  0
    0.3236   10.6090   -5.8199 H   0  0  0  0  0  0  0  0  0  0  0  0
   -0.7993    9.9348   -7.0484 H   0  0  0  0  0  0  0  0  0  0  0  0
   -0.4589    8.4581   -5.2458 H   0  0  0  0  0  0  0  0  0  0  0  0
   -0.5151    6.5154   -3.7976 H   0  0  0  0  0  0  0  0  0  0  0  0
   -2.1215    1.9155    3.7444 H   0  0  0  0  0  0  0  0  0  0  0  0
   -1.3232    0.3850    5.4457 H   0  0  0  0  0  0  0  0  0  0  0  0
   -0.5486   -0.7718    7.2642 H   0  0  0  0  0  0  0  0  0  0  0  0
   -0.8750   -1.9623    5.9585 H   0  0  0  0  0  0  0  0  0  0  0  0
    0.2270   -2.3685    7.2911 H   0  0  0  0  0  0  0  0  0  0  0  0
    2.5430    0.3437    3.6205 H   0  0  0  0  0  0  0  0  0  0  0  0
    1.7430    1.9465    1.9201 H   0  0  0  0  0  0  0  0  0  0  0  0
   -2.5492    3.5348   -0.1240 H   0  0  0  0  0  0  0  0  0  0  0  0
   -4.2963    5.2032    0.1697 H   0  0  0  0  0  0  0  0  0  0  0  0
   -6.1685    8.2527    1.0444 H   0  0  0  0  0  0  0  0  0  0  0  0
   -4.6706    7.6444    0.3041 H   0  0  0  0  0  0  0  0  0  0  0  0
   -6.1285    6.6031    0.3909 H   0  0  0  0  0  0  0  0  0  0  0  0
   -2.9776    5.8820    4.1792 H   0  0  0  0  0  0  0  0  0  0  0  0
   -1.1665    4.2494    3.8593 H   0  0  0  0  0  0  0  0  0  0  0  0
    2.9599   -2.9150   -2.0981 H   0  0  0  0  0  0  0  0  0  0  0  0
    2.7872   -4.3938   -4.0660 H   0  0  0  0  0  0  0  0  0  0  0  0
   -1.5434   -4.5599   -6.4382 H   0  0  0  0  0  0  0  0  0  0  0  0
   -0.5682   -3.1871   -7.0657 H   0  0  0  0  0  0  0  0  0  0  0  0
   -0.5485   -4.7621   -7.8949 H   0  0  0  0  0  0  0  0  0  0  0  0
   -1.1971   -3.0003   -4.7528 H   0  0  0  0  0  0  0  0  0  0  0  0
   -1.0137   -1.5218   -2.8188 H   0  0  0  0  0  0  0  0  0  0  0  0
    2.7912   -0.4176   -3.1240 H   0  0  0  0  0  0  0  0  0  0  0  0
    4.7962    0.9919   -2.7676 H   0  0  0  0  0  0  0  0  0  0  0  0
    4.1449    3.6815    0.4560 H   0  0  0  0  0  0  0  0  0  0  0  0
    4.4345    3.9809   -1.2837 H   0  0  0  0  0  0  0  0  0  0  0  0
    5.5954    4.5696   -0.0695 H   0  0  0  0  0  0  0  0  0  0  0  0
    4.0535    0.9828    1.4257 H   0  0  0  0  0  0  0  0  0  0  0  0
    2.0737   -0.4498    1.0828 H   0  0  0  0  0  0  0  0  0  0  0  0
   -4.4443   -1.3844    1.1409 H   0  0  0  0  0  0  0  0  0  0  0  0
   -5.5106    0.7917    1.4326 H   0  0  0  0  0  0  0  0  0  0  0  0
   -6.6335    4.1383    2.4159 H   0  0  0  0  0  0  0  0  0  0  0  0
   -7.1130    2.4838    1.9693 H   0  0  0  0  0  0  0  0  0  0  0  0
   -5.5051    3.1271    1.4850 H   0  0  0  0  0  0  0  0  0  0  0  0
   -4.3003    0.8319    5.5321 H   0  0  0  0  0  0  0  0  0  0  0  0
   -3.2123   -1.3566    5.2298 H   0  0  0  0  0  0  0  0  0  0  0  0
   -4.9295   -3.4977    4.5277 H   0  0  0  0  0  0  0  0  0  0  0  0
   -4.7464   -5.2235    6.2831 H   0  0  0  0  0  0  0  0  0  0  0  0
   -0.8618   -7.3513    8.7061 H   0  0  0  0  0  0  0  0  0  0  0  0
   -0.6961   -5.6661    8.1523 H   0  0  0  0  0  0  0  0  0  0  0  0
   -0.2191   -7.0207    7.0805 H   0  0  0  0  0  0  0  0  0  0  0  0
   -0.5562   -5.5598    5.4961 H   0  0  0  0  0  0  0  0  0  0  0  0
   -0.7392   -3.8586    3.7706 H   0  0  0  0  0  0  0  0  0  0  0  0
   -0.2808   -6.3095    1.4018 H   0  0  0  0  0  0  0  0  0  0  0  0
   -4.2200   -9.2430    3.8209 H   0  0  0  0  0  0  0  0  0  0  0  0
    1.1940   -9.1112    7.0181 H   0  0  0  0  0  0  0  0  0  0  0  0
   -0.2716  -12.4939    9.2021 H   0  0  0  0  0  0  0  0  0  0  0  0
   -2.2589  -12.6136    7.7698 H   0  0  0  0  0  0  0  0  0  0  0  0
  1  2  2  0  0  0  0
  2  3  1  0  0  0  0
  3  4  2  0  0  0  0
  3  5  1  0  0  0  0
  5  6  2  0  0  0  0
  6  7  1  0  0  0  0
  7  8  1  0  0  0  0
  7  9  2  0  0  0  0
  9 10  1  0  0  0  0
 10 11  2  0  0  0  0
 11 12  1  0  0  0  0
 12 13  2  0  0  0  0
 13 14  1  0  0  0  0
 14 15  3  0  0  0  0
 13 16  1  0  0  0  0
 16 17  3  0  0  0  0
  1 18  1  0  0  0  0
 18 19  2  0  0  0  0
 19 20  1  0  0  0  0
 20 21  1  0  0  0  0
 21 22  2  0  0  0  0
 22 23  1  0  0  0  0
 23 24  2  0  0  0  0
 24 25  1  0  0  0  0
 25 26  1  0  0  0  0
 24 27  1  0  0  0  0
 27 28  2  0  0  0  0
 20 29  1  0  0  0  0
 29 30  2  0  0  0  0
 30 31  1  0  0  0  0
 31 32  2  0  0  0  0
 32 33  1  0  0  0  0
 33 34  1  0  0  0  0
 32 35  1  0  0  0  0
 35 36  2  0  0  0  0
 19 37  1  0  0  0  0
 37 38  1  0  0  0  0
 38 39  1  0  0  0  0
 39 40  2  0  0  0  0
 40 41  1  0  0  0  0
 41 42  1  0  0  0  0
 42 43  2  0  0  0  0
 43 44  1  0  0  0  0
 44 45  2  0  0  0  0
 45 46  1  0  0  0  0
 46 47  1  0  0  0  0
 45 48  1  0  0  0  0
 48 49  2  0  0  0  0
 41 50  1  0  0  0  0
 50 51  2  0  0  0  0
 51 52  1  0  0  0  0
 52 53  2  0  0  0  0
 53 54  1  0  0  0  0
 54 55  1  0  0  0  0
 53 56  1  0  0  0  0
 56 57  2  0  0  0  0
 40 58  1  0  0  0  0
 58 59  1  0  0  0  0
 39 60  1  0  0  0  0
 60 61  2  0  0  0  0
 61 62  1  0  0  0  0
 62 63  1  0  0  0  0
 63 64  2  0  0  0  0
 64 65  1  0  0  0  0
 65 66  2  0  0  0  0
 66 67  1  0  0  0  0
 67 68  1  0  0  0  0
 66 69  1  0  0  0  0
 69 70  2  0  0  0  0
 62 71  1  0  0  0  0
 71 72  2  0  0  0  0
 72 73  1  0  0  0  0
 73 74  2  0  0  0  0
 74 75  1  0  0  0  0
 75 76  1  0  0  0  0
 74 77  1  0  0  0  0
 77 78  2  0  0  0  0
 61 79  1  0  0  0  0
 79 80  1  0  0  0  0
 80 81  1  0  0  0  0
 81 82  2  0  0  0  0
 82 83  1  0  0  0  0
 83 84  1  0  0  0  0
 84 85  2  0  0  0  0
 85 86  1  0  0  0  0
 86 87  2  0  0  0  0
 87 88  1  0  0  0  0
 88 89  1  0  0  0  0
 87 90  1  0  0  0  0
 90 91  2  0  0  0  0
 83 92  1  0  0  0  0
 92 93  2  0  0  0  0
 93 94  1  0  0  0  0
 94 95  2  0  0  0  0
 95 96  1  0  0  0  0
 96 97  1  0  0  0  0
 95 98  1  0  0  0  0
 98 99  2  0  0  0  0
 82100  1  0  0  0  0
100101  1  0  0  0  0
 81102  1  0  0  0  0
102103  2  0  0  0  0
103104  1  0  0  0  0
104105  1  0  0  0  0
104106  2  0  0  0  0
106107  1  0  0  0  0
107108  1  0  0  0  0
108109  2  0  0  0  0
109110  1  0  0  0  0
110111  1  0  0  0  0
106112  1  0  0  0  0
112113  2  0  0  0  0
113114  1  0  0  0  0
114115  2  0  0  0  0
114116  1  0  0  0  0
116117  2  0  0  0  0
117118  1  0  0  0  0
118119  1  0  0  0  0
118120  2  0  0  0  0
120121  1  0  0  0  0
121122  2  0  0  0  0
122123  1  0  0  0  0
123124  2  0  0  0  0
124125  1  0  0  0  0
125126  3  0  0  0  0
124127  1  0  0  0  0
127128  3  0  0  0  0
 12  2  1  0  0  0  0
 59 18  1  0  0  0  0
101 60  1  0  0  0  0
108102  1  0  0  0  0
123113  1  0  0  0  0
 11  5  1  0  0  0  0
 28 21  1  0  0  0  0
 36 29  1  0  0  0  0
 58 37  2  0  0  0  0
 70 63  1  0  0  0  0
 78 71  1  0  0  0  0
100 79  2  0  0  0  0
111107  2  0  0  0  0
122116  1  0  0  0  0
 49 42  1  0  0  0  0
 57 50  1  0  0  0  0
 91 84  1  0  0  0  0
 99 92  1  0  0  0  0
  1129  1  0  0  0  0
  6130  1  0  0  0  0
  9131  1  0  0  0  0
 10132  1  0  0  0  0
 22133  1  0  0  0  0
 23134  1  0  0  0  0
 26135  1  0  0  0  0
 26136  1  0  0  0  0
 26137  1  0  0  0  0
 27138  1  0  0  0  0
 28139  1  0  0  0  0
 30140  1  0  0  0  0
 31141  1  0  0  0  0
 34142  1  0  0  0  0
 34143  1  0  0  0  0
 34144  1  0  0  0  0
 35145  1  0  0  0  0
 36146  1  0  0  0  0
 43147  1  0  0  0  0
 44148  1  0  0  0  0
 47149  1  0  0  0  0
 47150  1  0  0  0  0
 47151  1  0  0  0  0
 48152  1  0  0  0  0
 49153  1  0  0  0  0
 51154  1  0  0  0  0
 52155  1  0  0  0  0
 55156  1  0  0  0  0
 55157  1  0  0  0  0
 55158  1  0  0  0  0
 56159  1  0  0  0  0
 57160  1  0  0  0  0
 64161  1  0  0  0  0
 65162  1  0  0  0  0
 68163  1  0  0  0  0
 68164  1  0  0  0  0
 68165  1  0  0  0  0
 69166  1  0  0  0  0
 70167  1  0  0  0  0
 72168  1  0  0  0  0
 73169  1  0  0  0  0
 76170  1  0  0  0  0
 76171  1  0  0  0  0
 76172  1  0  0  0  0
 77173  1  0  0  0  0
 78174  1  0  0  0  0
 85175  1  0  0  0  0
 86176  1  0  0  0  0
 89177  1  0  0  0  0
 89178  1  0  0  0  0
 89179  1  0  0  0  0
 90180  1  0  0  0  0
 91181  1  0  0  0  0
 93182  1  0  0  0  0
 94183  1  0  0  0  0
 97184  1  0  0  0  0
 97185  1  0  0  0  0
 97186  1  0  0  0  0
 98187  1  0  0  0  0
 99188  1  0  0  0  0
103189  1  0  0  0  0
112190  1  0  0  0  0
117191  1  0  0  0  0
120192  1  0  0  0  0
121193  1  0  0  0  0
M  END
