210

C          1.01180       -6.18250        0.04080
C          0.39700       -6.43030       -1.16750
C          0.19870       -5.46760       -2.25200
O          0.83700       -4.45880       -2.49800
C         -0.93440       -5.98880       -3.04610
C         -1.60750       -5.37690       -4.08110
C         -2.65520       -6.07800       -4.66690
Cl        -3.54130       -5.34650       -5.95280
C         -3.00140       -7.35050       -4.23140
C         -2.32140       -7.95330       -3.18140
C         -1.28310       -7.26530       -2.57180
C         -0.42010       -7.59240       -1.43600
C         -0.42300       -8.78080       -0.74720
C         -1.31840       -9.83570       -1.01130
N         -2.04510      -10.71040       -1.17240
C          0.47490       -9.11730        0.28470
N          1.18760       -9.46790        1.11510
C          1.55260       -4.99140        0.52750
C          1.66350       -4.66590        1.90360
N          1.20910       -5.44130        2.94200
C          1.81570       -5.31500        4.20170
C          3.19840       -5.19290        4.30690
C          3.80280       -5.05910        5.54140
C          3.03090       -5.05300        6.69560
S          3.68010       -4.88110        8.32460
C          5.47740       -4.81000        8.07890
C          1.64620       -5.18950        6.59350
C          1.04350       -5.31800        5.36380
C          0.07790       -6.27030        2.80940
C          0.06700       -7.53910        3.38700
C         -1.00330       -8.38090        3.18170
C         -2.07860       -7.98110        2.38970
S         -3.35120       -9.16990        2.12230
C         -4.32040       -8.46400        0.75910
C         -2.09780       -6.69250        1.86670
C         -1.03340       -5.84200        2.08620
C          2.18840       -3.37430        2.06920
S          2.38760       -2.30620        3.42980
C          2.76150       -0.96350        2.34860
C          2.86450       -1.37650        1.02350
N          3.19100       -0.56860       -0.06560
C          2.37180       -0.77580       -1.19790
C          0.98940       -0.68840       -1.03860
C          0.14610       -0.97620       -2.08890
C          0.67090       -1.35510       -3.32100
S         -0.47930       -1.71440       -4.61390
C          0.50280       -2.72560       -5.76010
C          2.04600       -1.41810       -3.49320
C          2.88870       -1.14170       -2.43560
C          4.44480        0.03160       -0.17160
C          5.44610       -0.21260        0.76740
C          6.67990        0.39950        0.66970
C          6.95470        1.24990       -0.39050
S          8.48710        2.11480       -0.58490
C          9.63710        1.17770        0.46420
C          5.96520        1.49060       -1.34060
C          4.72240        0.90630       -1.22550
C          2.49440       -2.73110        0.87550
S          2.09410       -3.67190       -0.51010
C          2.60610        0.36940        2.80140
C          2.08990        0.78610        4.00630
C          1.57630        2.09830        3.99110
C          0.94420        2.76630        5.12140
O          0.36980        3.83800        5.01120
C          1.04740        2.06170        6.45820
C          0.45760        2.89340        7.58850
C          1.70340        2.70390        2.73120
S          2.64460        1.69230        1.65290
C          0.95240        3.74530        2.15140
C          1.11860        4.13750        0.81340
N          2.33520        4.05510        0.17510
C          3.48260        4.52220        0.83690
C          3.40600        5.56320        1.76330
C          4.54250        6.00710        2.40090
C          5.78290        5.43080        2.12800
S          7.17330        6.08580        2.99330
C          8.58470        5.20080        2.27140
C          5.86170        4.39420        1.20940
C          4.72020        3.94550        0.57690
C          2.37830        3.63670       -1.16250
C          3.24700        4.21340       -2.08660
C          3.23590        3.79240       -3.39910
C          2.34730        2.80510       -3.81530
S          2.35610        2.33270       -5.51500
C          0.62660        1.83170       -5.76370
C          1.49720        2.21150       -2.89270
C          1.51990        2.62160       -1.57790
C         -0.10050        4.55550        0.24530
S         -0.64710        4.71160       -1.38360
C         -2.30360        4.87840       -0.82390
C         -2.40410        4.80560        0.57920
N         -3.59610        4.74950        1.27190
C         -3.57600        5.04900        2.64150
C         -2.82470        6.12960        3.10020
C         -2.66620        6.34730        4.45250
C         -3.26410        5.49030        5.36670
S         -2.98760        5.63250        7.10410
C         -1.27050        6.23250        7.14050
C         -4.10000        4.47470        4.91280
C         -4.25590        4.25260        3.56230
C         -4.71240        4.08830        0.71830
C         -4.55150        2.89130        0.01680
C         -5.62850        2.30330       -0.60440
C         -6.89410        2.88570       -0.52700
S         -8.18030        2.06920       -1.41520
C         -9.59320        3.19680       -1.28330
C         -7.06850        4.03970        0.22590
C         -5.98430        4.63480        0.84400
C         -1.14320        4.59880        1.16870
S         -0.61990        4.21180        2.78540
C         -3.42670        4.91280       -1.67590
C         -3.60960        4.24310       -2.85390
C         -2.62960        3.35310       -3.50080
O         -1.41500        3.42970       -3.47640
C         -3.42770        2.33740       -4.20800
C         -2.96890        1.14170       -4.75480
C         -3.96180        0.35420       -5.28430
C         -5.31200        0.72920       -5.28380
C         -5.77930        1.90480       -4.74250
C         -4.78590        2.71780       -4.18800
C         -4.90710        3.96540       -3.43900
C         -6.05220        4.69910       -3.27680
C         -7.28820        4.39700       -3.88200
N         -8.32900        4.23040       -4.33840
C         -6.15610        5.87060       -2.49990
N         -6.33710        6.82100       -1.88000
C         -5.74560       -0.54740       -5.96320
C         -6.06090       -0.45950       -7.47150
C         -5.98140       -1.89450       -7.94110
C         -4.70390       -2.25270       -7.93100
C         -3.89850       -1.06650       -7.45330
C         -4.73920        0.07610       -8.03720
C         -4.24020       -0.96710       -5.95270
H          0.96320       -6.98310        0.76700
H         -1.34260       -4.38380       -4.40530
H         -3.81410       -7.87340       -4.71090
H         -2.61500       -8.93880       -2.85840
H          3.80610       -5.21440        3.41430
H          4.87570       -4.96790        5.58640
H          5.90390       -4.73310        9.07420
H          5.82230       -5.72170        7.60030
H          5.74020       -3.93140        7.49700
H          1.05200       -5.18610        7.49410
H         -0.02910       -5.41540        5.29230
H          0.91400       -7.87050        3.96690
H         -1.00340       -9.37300        3.60410
H         -4.99010       -9.25670        0.44130
H         -3.66080       -8.19240       -0.06020
H         -4.89640       -7.60990        1.10380
H         -2.93900       -6.33800        1.29280
H         -1.05270       -4.84340        1.67430
H          0.58410       -0.41460       -0.07480
H         -0.92510       -0.91940       -1.96460
H         -0.20590       -3.17230       -6.45170
H          1.20380       -2.10410       -6.31050
H          1.01690       -3.49580       -5.19190
H          2.47680       -1.69920       -4.44010
H          3.95570       -1.23460       -2.56840
H          5.26370       -0.88870        1.58880
H          7.42020        0.19680        1.42720
H          9.56880        0.12150        0.22260
H         10.62740        1.55120        0.22310
H          9.42580        1.35420        1.51530
H          6.17210        2.15870       -2.16290
H          3.95790        1.13940       -1.94940
H          2.01320        0.11970        4.84670
H          2.09780        1.83550        6.65550
H          0.51190        1.11230        6.37550
H          0.99860        3.83140        7.68730
H         -0.58520        3.12070        7.38260
H          0.52030        2.35160        8.52880
H          2.45630        6.03090        1.97510
H          4.48490        6.81700        3.11170
H          8.61330        5.35890        1.19750
H          9.46720        5.63190        2.73390
H          8.52220        4.14340        2.51080
H          6.79930        3.92070        0.97140
H          4.78720        3.13400       -0.12710
H          3.91440        5.00330       -1.77730
H          3.90020        4.24180       -4.12090
H         -0.01190        2.49540       -5.18800
H          0.48940        0.79560       -5.46640
H          0.42590        1.93870       -6.82540
H          0.82090        1.42660       -3.18460
H          0.87330        2.14260       -0.85860
H         -2.35050        6.78890        2.38850
H         -2.06620        7.17800        4.78660
H         -0.90090        6.02040        8.13890
H         -1.23830        7.30310        6.95990
H         -0.69560        5.68630        6.39800
H         -4.59420        3.83820        5.63060
H         -4.86810        3.43410        3.21390
H         -3.57340        2.43780       -0.05070
H         -5.50630        1.38770       -1.16360
H        -10.36910        2.76040       -1.90440
H         -9.32210        4.17350       -1.67290
H         -9.93140        3.25470       -0.25270
H         -8.03850        4.49860        0.32390
H         -6.11890        5.54510        1.40790
H         -4.30070        5.38540       -1.24470
H         -1.92670        0.86920       -4.72440
H         -6.82360        2.16860       -4.71690
H         -6.46220       -1.15520       -5.41400
H         -6.96850        0.08570       -7.71570
H         -6.83920       -2.49870       -8.17150
H         -4.28230       -3.21610       -8.15070
H         -2.83470       -1.07310       -7.67530
H         -4.46510        1.06200       -7.66620
H         -4.72990        0.08060       -9.12590
H         -3.94510       -1.85030       -5.38960
