
  xtb     02102219413D
 energy: -255.607869470126 gnorm: 0.000818502130 xtb: 6.4.1 (unknown)
140150  0     0  0            999 V2000
   -5.3423    7.4423   -1.8821 C   0  0  0  0  0  0  0  0  0  0  0  0
   -5.7038    8.3535   -0.9552 C   0  0  0  0  0  0  0  0  0  0  0  0
   -5.2223    8.3361    0.4591 C   0  0  0  0  0  0  0  0  0  0  0  0
   -4.2943    7.7031    0.9040 O   0  0  0  0  0  0  0  0  0  0  0  0
   -6.0494    9.3382    1.1592 C   0  0  0  0  0  0  0  0  0  0  0  0
   -6.0759    9.6348    2.5065 C   0  0  0  0  0  0  0  0  0  0  0  0
   -6.9518   10.6278    2.9300 C   0  0  0  0  0  0  0  0  0  0  0  0
   -7.0333   11.0324    4.5999 Cl  0  0  0  0  0  0  0  0  0  0  0  0
   -7.7677   11.3014    2.0245 C   0  0  0  0  0  0  0  0  0  0  0  0
   -7.7284   11.0045    0.6725 C   0  0  0  0  0  0  0  0  0  0  0  0
   -6.8610   10.0143    0.2285 C   0  0  0  0  0  0  0  0  0  0  0  0
   -6.6030    9.4918   -1.1069 C   0  0  0  0  0  0  0  0  0  0  0  0
   -7.0914    9.9957   -2.2796 C   0  0  0  0  0  0  0  0  0  0  0  0
   -6.7634    9.5060   -3.5627 C   0  0  0  0  0  0  0  0  0  0  0  0
   -6.5163    9.1708   -4.6322 N   0  0  0  0  0  0  0  0  0  0  0  0
   -7.9570   11.1083   -2.3644 C   0  0  0  0  0  0  0  0  0  0  0  0
   -8.6601   12.0048   -2.4988 N   0  0  0  0  0  0  0  0  0  0  0  0
   -4.6206    6.2165   -1.5657 C   0  0  0  0  0  0  0  0  0  0  0  0
   -5.1052    5.3823   -0.5608 C   0  0  0  0  0  0  0  0  0  0  0  0
   -6.2170    5.7265    0.1153 F   0  0  0  0  0  0  0  0  0  0  0  0
   -4.5039    4.1696   -0.2953 C   0  0  0  0  0  0  0  0  0  0  0  0
   -5.0332    3.3977    0.6685 F   0  0  0  0  0  0  0  0  0  0  0  0
   -3.4044    3.7217   -1.0302 C   0  0  0  0  0  0  0  0  0  0  0  0
   -2.8931    4.5640   -2.0507 C   0  0  0  0  0  0  0  0  0  0  0  0
   -1.8172    4.0738   -2.6961 O   0  0  0  0  0  0  0  0  0  0  0  0
   -1.2618    4.6489   -3.8716 C   0  0  0  0  0  0  0  0  0  0  0  0
   -0.3284    3.6040   -4.4690 C   0  0  0  0  0  0  0  0  0  0  0  0
   -3.4940    5.8078   -2.2977 C   0  0  0  0  0  0  0  0  0  0  0  0
   -2.9644    6.6260   -3.2657 O   0  0  0  0  0  0  0  0  0  0  0  0
   -2.5943    7.9473   -2.8842 C   0  0  0  0  0  0  0  0  0  0  0  0
   -1.7249    7.9941   -1.6354 C   0  0  0  0  0  0  0  0  0  0  0  0
   -2.7870    2.4424   -0.7333 C   0  0  0  0  0  0  0  0  0  0  0  0
   -2.1014    1.6246   -1.5800 C   0  0  0  0  0  0  0  0  0  0  0  0
   -1.5827    0.4602   -0.9632 C   0  0  0  0  0  0  0  0  0  0  0  0
   -0.8194   -0.5539   -1.5609 C   0  0  0  0  0  0  0  0  0  0  0  0
   -0.5065   -0.5159   -2.9965 C   0  0  0  0  0  0  0  0  0  0  0  0
   -1.5258   -0.3945   -3.9396 C   0  0  0  0  0  0  0  0  0  0  0  0
   -1.2167   -0.3400   -5.2851 C   0  0  0  0  0  0  0  0  0  0  0  0
    0.0988   -0.3928   -5.7131 C   0  0  0  0  0  0  0  0  0  0  0  0
    1.1193   -0.5021   -4.7782 C   0  0  0  0  0  0  0  0  0  0  0  0
    2.8347   -0.5925   -5.1970 S   0  0  0  0  0  0  0  0  0  0  0  0
    2.9391    0.2126   -6.8346 C   0  0  0  0  0  0  0  0  0  0  0  0
    2.5729    1.6832   -6.7734 C   0  0  0  0  0  0  0  0  0  0  0  0
    0.8116   -0.5740   -3.4245 C   0  0  0  0  0  0  0  0  0  0  0  0
   -0.3722   -1.5677   -0.7300 C   0  0  0  0  0  0  0  0  0  0  0  0
   -0.6962   -1.6318    0.6494 C   0  0  0  0  0  0  0  0  0  0  0  0
   -1.4831   -0.6300    1.2447 C   0  0  0  0  0  0  0  0  0  0  0  0
   -1.8912   -0.6805    2.6541 C   0  0  0  0  0  0  0  0  0  0  0  0
   -2.4500   -1.8328    3.1998 C   0  0  0  0  0  0  0  0  0  0  0  0
   -2.8629   -1.8422    4.5211 C   0  0  0  0  0  0  0  0  0  0  0  0
   -2.7586   -0.7050    5.2977 C   0  0  0  0  0  0  0  0  0  0  0  0
   -2.2216    0.4572    4.7517 C   0  0  0  0  0  0  0  0  0  0  0  0
   -2.1492    1.8934    5.7760 S   0  0  0  0  0  0  0  0  0  0  0  0
   -2.1802    3.2575    4.5475 C   0  0  0  0  0  0  0  0  0  0  0  0
   -2.6751    4.5264    5.2146 C   0  0  0  0  0  0  0  0  0  0  0  0
   -1.7637    0.4578    3.4441 C   0  0  0  0  0  0  0  0  0  0  0  0
   -1.8819    0.4124    0.4201 C   0  0  0  0  0  0  0  0  0  0  0  0
   -2.8366    1.7898    0.8947 S   0  0  0  0  0  0  0  0  0  0  0  0
   -0.1071   -2.7608    1.2701 C   0  0  0  0  0  0  0  0  0  0  0  0
    0.6007   -3.5533    0.4116 C   0  0  0  0  0  0  0  0  0  0  0  0
    0.5818   -2.9359   -1.2297 S   0  0  0  0  0  0  0  0  0  0  0  0
    1.3630   -4.7437    0.7102 C   0  0  0  0  0  0  0  0  0  0  0  0
    1.8296   -5.0270    1.9992 C   0  0  0  0  0  0  0  0  0  0  0  0
    1.5230   -4.2271    3.0348 F   0  0  0  0  0  0  0  0  0  0  0  0
    2.6372   -6.1175    2.2527 C   0  0  0  0  0  0  0  0  0  0  0  0
    3.0130   -6.3535    3.5244 F   0  0  0  0  0  0  0  0  0  0  0  0
    3.0343   -6.9937    1.2406 C   0  0  0  0  0  0  0  0  0  0  0  0
    2.5467   -6.7419   -0.0579 C   0  0  0  0  0  0  0  0  0  0  0  0
    2.8556   -7.5815   -1.0855 O   0  0  0  0  0  0  0  0  0  0  0  0
    4.2017   -7.5389   -1.5544 C   0  0  0  0  0  0  0  0  0  0  0  0
    4.5719   -6.1766   -2.1212 C   0  0  0  0  0  0  0  0  0  0  0  0
    1.7256   -5.6437   -0.3134 C   0  0  0  0  0  0  0  0  0  0  0  0
    1.3052   -5.4192   -1.5961 O   0  0  0  0  0  0  0  0  0  0  0  0
    0.0081   -5.9169   -1.9187 C   0  0  0  0  0  0  0  0  0  0  0  0
   -0.0529   -7.4354   -1.9877 C   0  0  0  0  0  0  0  0  0  0  0  0
    3.8169   -8.1796    1.4917 C   0  0  0  0  0  0  0  0  0  0  0  0
    4.8015   -8.3977    2.3911 C   0  0  0  0  0  0  0  0  0  0  0  0
    5.1933   -9.8045    2.7103 C   0  0  0  0  0  0  0  0  0  0  0  0
    4.9081  -10.7926    2.0790 O   0  0  0  0  0  0  0  0  0  0  0  0
    5.9517   -9.7105    3.9751 C   0  0  0  0  0  0  0  0  0  0  0  0
    6.4232  -10.7328    4.7735 C   0  0  0  0  0  0  0  0  0  0  0  0
    7.0877  -10.3813    5.9430 C   0  0  0  0  0  0  0  0  0  0  0  0
    7.6973  -11.6169    6.9750 Cl  0  0  0  0  0  0  0  0  0  0  0  0
    7.2661   -9.0474    6.2983 C   0  0  0  0  0  0  0  0  0  0  0  0
    6.7976   -8.0262    5.4874 C   0  0  0  0  0  0  0  0  0  0  0  0
    6.1385   -8.3565    4.3119 C   0  0  0  0  0  0  0  0  0  0  0  0
    5.5648   -7.5206    3.2638 C   0  0  0  0  0  0  0  0  0  0  0  0
    5.8707   -6.2082    3.0346 C   0  0  0  0  0  0  0  0  0  0  0  0
    5.4614   -5.4965    1.8894 C   0  0  0  0  0  0  0  0  0  0  0  0
    5.1817   -4.8903    0.9557 N   0  0  0  0  0  0  0  0  0  0  0  0
    6.7022   -5.4363    3.8748 C   0  0  0  0  0  0  0  0  0  0  0  0
    7.3712   -4.7674    4.5231 N   0  0  0  0  0  0  0  0  0  0  0  0
   -5.6435    7.5481   -2.9171 H   0  0  0  0  0  0  0  0  0  0  0  0
   -5.4422    9.1044    3.1994 H   0  0  0  0  0  0  0  0  0  0  0  0
   -8.4387   12.0649    2.3858 H   0  0  0  0  0  0  0  0  0  0  0  0
   -8.3711   11.5383   -0.0085 H   0  0  0  0  0  0  0  0  0  0  0  0
   -0.6985    5.5541   -3.6205 H   0  0  0  0  0  0  0  0  0  0  0  0
   -2.0526    4.9106   -4.5800 H   0  0  0  0  0  0  0  0  0  0  0  0
    0.4076    3.2963   -3.7309 H   0  0  0  0  0  0  0  0  0  0  0  0
   -0.8871    2.7256   -4.7832 H   0  0  0  0  0  0  0  0  0  0  0  0
    0.1834    4.0242   -5.3299 H   0  0  0  0  0  0  0  0  0  0  0  0
   -2.0487    8.3205   -3.7546 H   0  0  0  0  0  0  0  0  0  0  0  0
   -3.4877    8.5685   -2.7429 H   0  0  0  0  0  0  0  0  0  0  0  0
   -1.3824    9.0124   -1.4739 H   0  0  0  0  0  0  0  0  0  0  0  0
   -2.2869    7.6721   -0.7607 H   0  0  0  0  0  0  0  0  0  0  0  0
   -0.8577    7.3473   -1.7491 H   0  0  0  0  0  0  0  0  0  0  0  0
   -1.9648    1.8342   -2.6218 H   0  0  0  0  0  0  0  0  0  0  0  0
   -2.5553   -0.3667   -3.6151 H   0  0  0  0  0  0  0  0  0  0  0  0
   -2.0079   -0.2593   -6.0166 H   0  0  0  0  0  0  0  0  0  0  0  0
    0.3114   -0.3599   -6.7698 H   0  0  0  0  0  0  0  0  0  0  0  0
    3.9831    0.0820   -7.1186 H   0  0  0  0  0  0  0  0  0  0  0  0
    2.3175   -0.3394   -7.5389 H   0  0  0  0  0  0  0  0  0  0  0  0
    1.5435    1.8131   -6.4454 H   0  0  0  0  0  0  0  0  0  0  0  0
    2.6861    2.1348   -7.7572 H   0  0  0  0  0  0  0  0  0  0  0  0
    3.2237    2.2024   -6.0737 H   0  0  0  0  0  0  0  0  0  0  0  0
    1.6138   -0.6555   -2.7074 H   0  0  0  0  0  0  0  0  0  0  0  0
   -2.5855   -2.7078    2.5821 H   0  0  0  0  0  0  0  0  0  0  0  0
   -3.2897   -2.7398    4.9432 H   0  0  0  0  0  0  0  0  0  0  0  0
   -3.0982   -0.6996    6.3217 H   0  0  0  0  0  0  0  0  0  0  0  0
   -2.8507    2.9514    3.7448 H   0  0  0  0  0  0  0  0  0  0  0  0
   -1.1695    3.3929    4.1601 H   0  0  0  0  0  0  0  0  0  0  0  0
   -2.0130    4.8157    6.0275 H   0  0  0  0  0  0  0  0  0  0  0  0
   -3.6735    4.3767    5.6188 H   0  0  0  0  0  0  0  0  0  0  0  0
   -2.7101    5.3328    4.4853 H   0  0  0  0  0  0  0  0  0  0  0  0
   -1.2833    1.3302    3.0319 H   0  0  0  0  0  0  0  0  0  0  0  0
   -0.2126   -2.9587    2.3200 H   0  0  0  0  0  0  0  0  0  0  0  0
    4.8922   -7.8154   -0.7455 H   0  0  0  0  0  0  0  0  0  0  0  0
    4.2334   -8.3099   -2.3275 H   0  0  0  0  0  0  0  0  0  0  0  0
    3.8099   -5.8459   -2.8224 H   0  0  0  0  0  0  0  0  0  0  0  0
    5.5273   -6.2421   -2.6340 H   0  0  0  0  0  0  0  0  0  0  0  0
    4.6511   -5.4428   -1.3221 H   0  0  0  0  0  0  0  0  0  0  0  0
   -0.7274   -5.5419   -1.1936 H   0  0  0  0  0  0  0  0  0  0  0  0
   -0.2057   -5.4774   -2.8954 H   0  0  0  0  0  0  0  0  0  0  0  0
    0.7109   -7.8094   -2.6627 H   0  0  0  0  0  0  0  0  0  0  0  0
   -1.0318   -7.7400   -2.3478 H   0  0  0  0  0  0  0  0  0  0  0  0
    0.1133   -7.8738   -1.0065 H   0  0  0  0  0  0  0  0  0  0  0  0
    3.5197   -9.0476    0.9082 H   0  0  0  0  0  0  0  0  0  0  0  0
    6.2764  -11.7640    4.4937 H   0  0  0  0  0  0  0  0  0  0  0  0
    7.7757   -8.8100    7.2189 H   0  0  0  0  0  0  0  0  0  0  0  0
    6.9365   -6.9995    5.7849 H   0  0  0  0  0  0  0  0  0  0  0  0
  1  2  2  0  0  0  0
  2  3  1  0  0  0  0
  3  4  2  0  0  0  0
  3  5  1  0  0  0  0
  5  6  2  0  0  0  0
  6  7  1  0  0  0  0
  7  8  1  0  0  0  0
  7  9  2  0  0  0  0
  9 10  1  0  0  0  0
 10 11  2  0  0  0  0
 11 12  1  0  0  0  0
 12 13  2  0  0  0  0
 13 14  1  0  0  0  0
 14 15  3  0  0  0  0
 13 16  1  0  0  0  0
 16 17  3  0  0  0  0
  1 18  1  0  0  0  0
 18 19  2  0  0  0  0
 19 20  1  0  0  0  0
 19 21  1  0  0  0  0
 21 22  1  0  0  0  0
 21 23  2  0  0  0  0
 23 24  1  0  0  0  0
 24 25  1  0  0  0  0
 25 26  1  0  0  0  0
 26 27  1  0  0  0  0
 24 28  2  0  0  0  0
 28 29  1  0  0  0  0
 29 30  1  0  0  0  0
 30 31  1  0  0  0  0
 23 32  1  0  0  0  0
 32 33  2  0  0  0  0
 33 34  1  0  0  0  0
 34 35  2  0  0  0  0
 35 36  1  0  0  0  0
 36 37  2  0  0  0  0
 37 38  1  0  0  0  0
 38 39  2  0  0  0  0
 39 40  1  0  0  0  0
 40 41  1  0  0  0  0
 41 42  1  0  0  0  0
 42 43  1  0  0  0  0
 40 44  2  0  0  0  0
 35 45  1  0  0  0  0
 45 46  2  0  0  0  0
 46 47  1  0  0  0  0
 47 48  1  0  0  0  0
 48 49  2  0  0  0  0
 49 50  1  0  0  0  0
 50 51  2  0  0  0  0
 51 52  1  0  0  0  0
 52 53  1  0  0  0  0
 53 54  1  0  0  0  0
 54 55  1  0  0  0  0
 52 56  2  0  0  0  0
 47 57  2  0  0  0  0
 57 58  1  0  0  0  0
 46 59  1  0  0  0  0
 59 60  2  0  0  0  0
 60 61  1  0  0  0  0
 60 62  1  0  0  0  0
 62 63  2  0  0  0  0
 63 64  1  0  0  0  0
 63 65  1  0  0  0  0
 65 66  1  0  0  0  0
 65 67  2  0  0  0  0
 67 68  1  0  0  0  0
 68 69  1  0  0  0  0
 69 70  1  0  0  0  0
 70 71  1  0  0  0  0
 68 72  2  0  0  0  0
 72 73  1  0  0  0  0
 73 74  1  0  0  0  0
 74 75  1  0  0  0  0
 67 76  1  0  0  0  0
 76 77  2  0  0  0  0
 77 78  1  0  0  0  0
 78 79  2  0  0  0  0
 78 80  1  0  0  0  0
 80 81  2  0  0  0  0
 81 82  1  0  0  0  0
 82 83  1  0  0  0  0
 82 84  2  0  0  0  0
 84 85  1  0  0  0  0
 85 86  2  0  0  0  0
 86 87  1  0  0  0  0
 87 88  2  0  0  0  0
 88 89  1  0  0  0  0
 89 90  3  0  0  0  0
 88 91  1  0  0  0  0
 91 92  3  0  0  0  0
 12  2  1  0  0  0  0
 28 18  1  0  0  0  0
 58 32  1  0  0  0  0
 72 62  1  0  0  0  0
 87 77  1  0  0  0  0
 11  5  1  0  0  0  0
 57 34  1  0  0  0  0
 86 80  1  0  0  0  0
 44 36  1  0  0  0  0
 61 45  1  0  0  0  0
 56 48  1  0  0  0  0
  1 93  1  0  0  0  0
  6 94  1  0  0  0  0
  9 95  1  0  0  0  0
 10 96  1  0  0  0  0
 26 97  1  0  0  0  0
 26 98  1  0  0  0  0
 27 99  1  0  0  0  0
 27100  1  0  0  0  0
 27101  1  0  0  0  0
 30102  1  0  0  0  0
 30103  1  0  0  0  0
 31104  1  0  0  0  0
 31105  1  0  0  0  0
 31106  1  0  0  0  0
 33107  1  0  0  0  0
 37108  1  0  0  0  0
 38109  1  0  0  0  0
 39110  1  0  0  0  0
 42111  1  0  0  0  0
 42112  1  0  0  0  0
 43113  1  0  0  0  0
 43114  1  0  0  0  0
 43115  1  0  0  0  0
 44116  1  0  0  0  0
 49117  1  0  0  0  0
 50118  1  0  0  0  0
 51119  1  0  0  0  0
 54120  1  0  0  0  0
 54121  1  0  0  0  0
 55122  1  0  0  0  0
 55123  1  0  0  0  0
 55124  1  0  0  0  0
 56125  1  0  0  0  0
 59126  1  0  0  0  0
 70127  1  0  0  0  0
 70128  1  0  0  0  0
 71129  1  0  0  0  0
 71130  1  0  0  0  0
 71131  1  0  0  0  0
 74132  1  0  0  0  0
 74133  1  0  0  0  0
 75134  1  0  0  0  0
 75135  1  0  0  0  0
 75136  1  0  0  0  0
 76137  1  0  0  0  0
 81138  1  0  0  0  0
 84139  1  0  0  0  0
 85140  1  0  0  0  0
M  END
