177

C          6.16410       -6.24260        2.14290
C          6.29700       -7.10710        3.17820
C          7.66190       -7.48790        3.63520
O          8.70690       -7.27270        3.06680
C          7.45700       -8.13100        4.95240
C          8.40370       -8.54890        5.86490
C          7.94860       -9.10580        7.05480
Cl         9.08860       -9.64670        8.22820
C          6.58890       -9.23220        7.31870
C          5.64400       -8.81740        6.39290
C          6.07760       -8.26600        5.19660
C          5.33860       -7.75710        4.04510
C          4.04460       -8.07390        3.73020
C          3.40220       -7.68500        2.53800
N          2.82710       -7.40630        1.58440
C          3.21950       -8.88640        4.53350
N          2.50970       -9.54820        5.14770
C          5.06250       -5.40480        1.78600
C          4.93020       -4.95610        0.47670
F          5.75680       -5.44630       -0.46170
C          3.97660       -4.02120        0.09310
F          3.87400       -3.70490       -1.21070
C          3.13900       -3.41040        1.01900
C          3.19330       -3.90090        2.35530
N          2.36880       -3.36750        3.26550
C          2.45670       -3.73410        4.52070
C          1.53650       -3.03410        5.47080
C          2.18110       -1.73440        5.95980
C          3.44960       -4.67010        4.92220
N          4.25570       -5.21030        4.03820
C          4.14900       -4.87130        2.74370
C          3.65650       -5.08850        6.34700
C          2.64190       -6.14660        6.78670
C          2.31860       -2.28600        0.68260
C          2.66310       -1.22610       -0.15590
N          3.91950       -0.99690       -0.67630
C          4.04190       -0.36320       -1.92050
C          5.06180        0.55570       -2.14650
C          5.17910        1.18910       -3.36800
C          4.27010        0.91770       -4.38280
S          4.31250        1.66300       -5.97950
C          5.68790        2.84410       -5.87930
C          3.25200       -0.00870       -4.16110
C          3.14030       -0.64650       -2.94730
C          5.06040       -1.42060        0.02240
C          6.14190       -1.97880       -0.65320
C          7.20120       -2.52990        0.04320
C          7.18700       -2.55020        1.43140
S          8.39330       -3.36220        2.42910
C          9.34790       -4.35560        1.24540
C          6.14790       -1.91140        2.10990
C          5.10640       -1.34130        1.41670
C          1.57770       -0.32590       -0.28690
S          1.31590        1.11670       -1.20120
C         -0.28430        1.27620       -0.51320
C         -0.61500        0.23520        0.33900
N         -1.86320        0.02560        0.90510
C         -3.01690        0.41160        0.20980
C         -3.09010        0.23560       -1.17070
C         -4.14280        0.75270       -1.89920
C         -5.15350        1.45360       -1.25540
S         -6.48290        2.26380       -2.08830
C         -6.03420        2.14830       -3.84460
C         -5.13670        1.54800        0.13470
C         -4.08710        1.02900        0.85960
C         -1.92370       -0.45410        2.21540
C         -2.95580       -1.29500        2.62230
C         -3.00010       -1.78230        3.91480
C         -2.00750       -1.43920        4.82230
S         -1.94730       -2.00690        6.49580
C         -3.29100       -3.22110        6.59630
C         -0.98100       -0.58560        4.42340
C         -0.93650       -0.10010        3.13720
C          0.46870       -0.66910        0.47340
S          0.74430       -2.09180        1.41960
C         -1.15790        2.36300       -0.89410
C         -1.39740        2.68260       -2.21780
F         -0.74540        2.02170       -3.18930
C         -2.40080        3.57970       -2.60490
F         -2.68760        3.65300       -3.91340
C         -3.19180        4.22890       -1.67640
C         -2.91990        3.97090       -0.30260
N         -3.65770        4.60040        0.62210
C         -3.42830        4.38160        1.89320
C         -4.33940        5.10870        2.83460
C         -5.75890        4.54160        2.74310
C         -2.36480        3.52050        2.29370
N         -1.63900        2.89340        1.39820
C         -1.90450        3.07050        0.09220
C         -1.98150        3.30250        3.72720
C         -2.97530        2.41330        4.47740
C         -4.35050        5.02910       -1.98170
C         -4.49470        5.91540       -2.98870
C         -3.40840        6.40900       -3.88390
O         -2.21870        6.23520       -3.75290
C         -4.08150        7.24720       -4.89210
C         -3.48610        7.87500       -5.98420
C         -4.35870        8.59970       -6.75870
C         -5.72640        8.70200       -6.46480
C         -6.32510        8.09840       -5.38610
C         -5.45490        7.35100       -4.58420
C         -5.72450        6.60430       -3.36080
C         -6.90620        6.58150       -2.67180
C         -8.07910        7.25220       -3.08200
N         -9.06830        7.76550       -3.35700
C         -7.12700        5.94350       -1.43030
N         -7.39570        5.49240       -0.40910
C         -5.99930        9.57680       -7.66230
C         -6.66740        8.92190       -8.89650
C         -6.29840        7.45950       -8.85840
C         -5.00540        7.36050       -9.13670
C         -4.47660        8.75450       -9.36870
C         -5.71470        9.41280       -9.99830
C         -4.47720        9.46140       -7.99040
H          7.06350       -6.10470        1.55150
H          9.45660       -8.44430        5.65590
H          6.27040       -9.66010        8.25640
H          4.59500       -8.91940        6.61900
H          1.29330       -3.66430        6.32360
H          0.61960       -2.79050        4.93360
H          1.51710       -1.23740        6.66240
H          3.12840       -1.92950        6.45850
H          2.36700       -1.07330        5.11700
H          4.66340       -5.50270        6.42860
H          3.58050       -4.22000        7.00250
H          2.70410       -7.02510        6.15140
H          2.84490       -6.44640        7.81180
H          1.62450       -5.76760        6.73420
H          5.76480        0.77760       -1.35690
H          5.97960        1.89680       -3.51040
H          6.62280        2.31690       -5.71260
H          5.71440        3.34210       -6.84350
H          5.49600        3.57010       -5.09480
H          2.55590       -0.22360       -4.95660
H          2.36660       -1.38190       -2.78980
H          6.13250       -2.01730       -1.73200
H          8.01670       -2.96420       -0.51170
H          9.84690       -5.11640        1.83850
H         10.07870       -3.73270        0.73710
H          8.67860       -4.82870        0.53400
H          6.16760       -1.88170        3.18870
H          4.30230       -0.85990        1.95300
H         -2.30000       -0.29380       -1.68260
H         -4.15540        0.61020       -2.96760
H         -6.78520        2.72670       -4.37410
H         -5.05230        2.58020       -4.01120
H         -6.07180        1.11430       -4.17470
H         -5.94450        2.06110        0.63300
H         -4.07140        1.13570        1.93330
H         -3.72680       -1.57280        1.91920
H         -3.81250       -2.43300        4.19560
H         -3.22810       -3.64670        7.59310
H         -4.25100       -2.72930        6.46760
H         -3.14090       -3.99790        5.85230
H         -0.22830       -0.29860        5.14010
H         -0.15110        0.57570        2.83810
H         -3.97340        5.05620        3.85860
H         -4.37020        6.15590        2.52720
H         -6.14050        4.65850        1.73250
H         -5.77100        3.48460        3.00230
H         -6.41600        5.07340        3.42630
H         -1.00190        2.82440        3.73630
H         -1.90140        4.26810        4.23170
H         -2.64440        2.28130        5.50470
H         -3.02850        1.43210        4.01360
H         -3.97030        2.84890        4.48950
H         -5.16360        4.87610       -1.28530
H         -2.42870        7.77170       -6.17120
H         -7.37680        8.19000       -5.17200
H         -6.40170       10.56480       -7.44790
H         -7.72420        9.14780       -9.01030
H         -6.98160        6.67670       -8.58550
H         -4.39190        6.47870       -9.14190
H         -3.53890        8.82790       -9.91320
H         -5.95710        9.00320      -10.97770
H         -5.64530       10.49790      -10.06020
H         -3.88510       10.37440       -7.99250
