
  xtb     02032220483D
 energy: -196.949346511184 gnorm: 0.000716143576 xtb: 6.4.1 (unknown)
101107  0     0  0            999 V2000
   -4.5059    5.6318   -0.8761 C   0  0  0  0  0  0  0  0  0  0  0  0
   -4.3201    6.0550   -2.1473 C   0  0  0  0  0  0  0  0  0  0  0  0
   -3.6036    5.2731   -3.1952 C   0  0  0  0  0  0  0  0  0  0  0  0
   -2.9828    4.2433   -3.0691 O   0  0  0  0  0  0  0  0  0  0  0  0
   -3.9053    5.9663   -4.4667 C   0  0  0  0  0  0  0  0  0  0  0  0
   -3.5112    5.6120   -5.7411 C   0  0  0  0  0  0  0  0  0  0  0  0
   -3.9328    6.4164   -6.7932 C   0  0  0  0  0  0  0  0  0  0  0  0
   -3.4621    6.0253   -8.4024 Cl  0  0  0  0  0  0  0  0  0  0  0  0
   -4.7319    7.5336   -6.5689 C   0  0  0  0  0  0  0  0  0  0  0  0
   -5.1257    7.8807   -5.2868 C   0  0  0  0  0  0  0  0  0  0  0  0
   -4.7083    7.0943   -4.2208 C   0  0  0  0  0  0  0  0  0  0  0  0
   -4.9434    7.2053   -2.7868 C   0  0  0  0  0  0  0  0  0  0  0  0
   -5.5561    8.2472   -2.1487 C   0  0  0  0  0  0  0  0  0  0  0  0
   -6.1214    9.3580   -2.8119 C   0  0  0  0  0  0  0  0  0  0  0  0
   -6.5988   10.2812   -3.2983 N   0  0  0  0  0  0  0  0  0  0  0  0
   -5.6693    8.3757   -0.7463 C   0  0  0  0  0  0  0  0  0  0  0  0
   -5.7752    8.5638    0.3805 N   0  0  0  0  0  0  0  0  0  0  0  0
   -3.7854    4.5292   -0.2780 C   0  0  0  0  0  0  0  0  0  0  0  0
   -4.4919    3.5655    0.4417 C   0  0  0  0  0  0  0  0  0  0  0  0
   -5.8241    3.6953    0.5604 F   0  0  0  0  0  0  0  0  0  0  0  0
   -3.8553    2.4648    0.9809 C   0  0  0  0  0  0  0  0  0  0  0  0
   -4.5612    1.5460    1.6646 F   0  0  0  0  0  0  0  0  0  0  0  0
   -2.4852    2.2999    0.8066 C   0  0  0  0  0  0  0  0  0  0  0  0
   -1.7544    3.2620    0.0990 C   0  0  0  0  0  0  0  0  0  0  0  0
   -0.4180    3.0320   -0.1248 O   0  0  0  0  0  0  0  0  0  0  0  0
   -0.1463    2.1245   -1.1912 C   0  0  0  0  0  0  0  0  0  0  0  0
    1.2729    1.6097   -1.0221 C   0  0  0  0  0  0  0  0  0  0  0  0
   -2.3798    4.4148   -0.4011 C   0  0  0  0  0  0  0  0  0  0  0  0
   -1.7665    5.4540   -0.9891 O   0  0  0  0  0  0  0  0  0  0  0  0
   -0.3910    5.7452   -0.7604 C   0  0  0  0  0  0  0  0  0  0  0  0
   -0.0733    5.9744    0.7107 C   0  0  0  0  0  0  0  0  0  0  0  0
   -1.7859    1.1108    1.3249 C   0  0  0  0  0  0  0  0  0  0  0  0
   -2.1997   -0.1676    0.9624 C   0  0  0  0  0  0  0  0  0  0  0  0
   -1.4847   -1.2918    1.3576 C   0  0  0  0  0  0  0  0  0  0  0  0
   -1.7841   -2.5558    1.0162 O   0  0  0  0  0  0  0  0  0  0  0  0
   -2.9705   -2.8468    0.3008 C   0  0  0  0  0  0  0  0  0  0  0  0
   -3.0789   -4.3620    0.2427 C   0  0  0  0  0  0  0  0  0  0  0  0
   -0.3172   -1.1252    2.1303 C   0  0  0  0  0  0  0  0  0  0  0  0
    0.0771    0.1413    2.5224 C   0  0  0  0  0  0  0  0  0  0  0  0
   -0.6589    1.2422    2.1287 C   0  0  0  0  0  0  0  0  0  0  0  0
   -0.2770    2.4630    2.5571 F   0  0  0  0  0  0  0  0  0  0  0  0
    0.4815   -2.3215    2.4542 C   0  0  0  0  0  0  0  0  0  0  0  0
    1.8145   -2.4124    1.9998 C   0  0  0  0  0  0  0  0  0  0  0  0
    2.2893   -1.3168    1.3588 O   0  0  0  0  0  0  0  0  0  0  0  0
    3.4934   -1.3804    0.6214 C   0  0  0  0  0  0  0  0  0  0  0  0
    2.4851   -3.5989    2.2420 C   0  0  0  0  0  0  0  0  0  0  0  0
    3.7965   -3.7113    1.8920 F   0  0  0  0  0  0  0  0  0  0  0  0
    1.9156   -4.7118    2.8903 C   0  0  0  0  0  0  0  0  0  0  0  0
    0.5962   -4.6054    3.3506 C   0  0  0  0  0  0  0  0  0  0  0  0
   -0.1637   -5.5460    3.9435 O   0  0  0  0  0  0  0  0  0  0  0  0
    0.2357   -6.8915    4.0533 C   0  0  0  0  0  0  0  0  0  0  0  0
   -0.0754   -3.3933    3.1183 C   0  0  0  0  0  0  0  0  0  0  0  0
   -1.3261   -3.2911    3.5901 F   0  0  0  0  0  0  0  0  0  0  0  0
    2.7548   -5.8843    3.0906 C   0  0  0  0  0  0  0  0  0  0  0  0
    3.5899   -6.4618    2.2010 C   0  0  0  0  0  0  0  0  0  0  0  0
    4.6485   -7.4049    2.6903 C   0  0  0  0  0  0  0  0  0  0  0  0
    4.6896   -7.9293    3.7797 O   0  0  0  0  0  0  0  0  0  0  0  0
    5.5996   -7.4915    1.5832 C   0  0  0  0  0  0  0  0  0  0  0  0
    5.0986   -6.7556    0.4566 C   0  0  0  0  0  0  0  0  0  0  0  0
    5.9407   -6.7891   -0.6105 C   0  0  0  0  0  0  0  0  0  0  0  0
    7.3535   -7.7113   -0.2489 S   0  0  0  0  0  0  0  0  0  0  0  0
    6.8095   -8.0783    1.3685 C   0  0  0  0  0  0  0  0  0  0  0  0
    7.6077   -8.9103    2.2955 C   0  0  0  0  0  0  0  0  0  0  0  0
    3.7930   -6.2236    0.7771 C   0  0  0  0  0  0  0  0  0  0  0  0
    2.8930   -5.7389   -0.1317 C   0  0  0  0  0  0  0  0  0  0  0  0
    1.5358   -5.4852    0.1423 C   0  0  0  0  0  0  0  0  0  0  0  0
    0.4077   -5.3399    0.2986 N   0  0  0  0  0  0  0  0  0  0  0  0
    3.2533   -5.5237   -1.4780 C   0  0  0  0  0  0  0  0  0  0  0  0
    3.5420   -5.3104   -2.5678 N   0  0  0  0  0  0  0  0  0  0  0  0
   -5.2699    6.0882   -0.2588 H   0  0  0  0  0  0  0  0  0  0  0  0
   -2.8960    4.7414   -5.9049 H   0  0  0  0  0  0  0  0  0  0  0  0
   -5.0481    8.1336   -7.4077 H   0  0  0  0  0  0  0  0  0  0  0  0
   -5.7509    8.7459   -5.1385 H   0  0  0  0  0  0  0  0  0  0  0  0
   -0.8573    1.2901   -1.1666 H   0  0  0  0  0  0  0  0  0  0  0  0
   -0.2670    2.6496   -2.1502 H   0  0  0  0  0  0  0  0  0  0  0  0
    1.3525    1.0463   -0.0954 H   0  0  0  0  0  0  0  0  0  0  0  0
    1.5291    0.9639   -1.8573 H   0  0  0  0  0  0  0  0  0  0  0  0
    1.9690    2.4438   -0.9858 H   0  0  0  0  0  0  0  0  0  0  0  0
   -0.2400    6.6662   -1.3315 H   0  0  0  0  0  0  0  0  0  0  0  0
    0.2506    4.9638   -1.1738 H   0  0  0  0  0  0  0  0  0  0  0  0
    0.9360    6.3654    0.8012 H   0  0  0  0  0  0  0  0  0  0  0  0
   -0.7696    6.6936    1.1365 H   0  0  0  0  0  0  0  0  0  0  0  0
   -0.1351    5.0444    1.2687 H   0  0  0  0  0  0  0  0  0  0  0  0
   -3.0755   -0.2667    0.3412 H   0  0  0  0  0  0  0  0  0  0  0  0
   -2.9105   -2.4237   -0.7120 H   0  0  0  0  0  0  0  0  0  0  0  0
   -3.8387   -2.4156    0.8158 H   0  0  0  0  0  0  0  0  0  0  0  0
   -3.9306   -4.6540   -0.3647 H   0  0  0  0  0  0  0  0  0  0  0  0
   -3.1987   -4.7581    1.2469 H   0  0  0  0  0  0  0  0  0  0  0  0
   -2.1679   -4.7752   -0.1810 H   0  0  0  0  0  0  0  0  0  0  0  0
    0.9556    0.2785    3.1314 H   0  0  0  0  0  0  0  0  0  0  0  0
    3.5495   -0.4321    0.0890 H   0  0  0  0  0  0  0  0  0  0  0  0
    3.4812   -2.1999   -0.1021 H   0  0  0  0  0  0  0  0  0  0  0  0
    4.3658   -1.4807    1.2715 H   0  0  0  0  0  0  0  0  0  0  0  0
    0.8576   -7.0558    4.9371 H   0  0  0  0  0  0  0  0  0  0  0  0
    0.7628   -7.2306    3.1579 H   0  0  0  0  0  0  0  0  0  0  0  0
   -0.6889   -7.4587    4.1646 H   0  0  0  0  0  0  0  0  0  0  0  0
    2.8169   -6.2776    4.0985 H   0  0  0  0  0  0  0  0  0  0  0  0
    5.8413   -6.3321   -1.5748 H   0  0  0  0  0  0  0  0  0  0  0  0
    7.0791   -9.0004    3.2418 H   0  0  0  0  0  0  0  0  0  0  0  0
    8.5853   -8.4619    2.4702 H   0  0  0  0  0  0  0  0  0  0  0  0
    7.7681   -9.9041    1.8781 H   0  0  0  0  0  0  0  0  0  0  0  0
  1  2  2  0  0  0  0
  2  3  1  0  0  0  0
  3  4  2  0  0  0  0
  3  5  1  0  0  0  0
  5  6  2  0  0  0  0
  6  7  1  0  0  0  0
  7  8  1  0  0  0  0
  7  9  2  0  0  0  0
  9 10  1  0  0  0  0
 10 11  2  0  0  0  0
 11 12  1  0  0  0  0
 12 13  2  0  0  0  0
 13 14  1  0  0  0  0
 14 15  3  0  0  0  0
 13 16  1  0  0  0  0
 16 17  3  0  0  0  0
  1 18  1  0  0  0  0
 18 19  2  0  0  0  0
 19 20  1  0  0  0  0
 19 21  1  0  0  0  0
 21 22  1  0  0  0  0
 21 23  2  0  0  0  0
 23 24  1  0  0  0  0
 24 25  1  0  0  0  0
 25 26  1  0  0  0  0
 26 27  1  0  0  0  0
 24 28  2  0  0  0  0
 28 29  1  0  0  0  0
 29 30  1  0  0  0  0
 30 31  1  0  0  0  0
 23 32  1  0  0  0  0
 32 33  2  0  0  0  0
 33 34  1  0  0  0  0
 34 35  1  0  0  0  0
 35 36  1  0  0  0  0
 36 37  1  0  0  0  0
 34 38  2  0  0  0  0
 38 39  1  0  0  0  0
 39 40  2  0  0  0  0
 40 41  1  0  0  0  0
 38 42  1  0  0  0  0
 42 43  2  0  0  0  0
 43 44  1  0  0  0  0
 44 45  1  0  0  0  0
 43 46  1  0  0  0  0
 46 47  1  0  0  0  0
 46 48  2  0  0  0  0
 48 49  1  0  0  0  0
 49 50  1  0  0  0  0
 50 51  1  0  0  0  0
 49 52  2  0  0  0  0
 52 53  1  0  0  0  0
 48 54  1  0  0  0  0
 54 55  2  0  0  0  0
 55 56  1  0  0  0  0
 56 57  2  0  0  0  0
 56 58  1  0  0  0  0
 58 59  1  0  0  0  0
 59 60  2  0  0  0  0
 60 61  1  0  0  0  0
 61 62  1  0  0  0  0
 62 63  1  0  0  0  0
 59 64  1  0  0  0  0
 64 65  2  0  0  0  0
 65 66  1  0  0  0  0
 66 67  3  0  0  0  0
 65 68  1  0  0  0  0
 68 69  3  0  0  0  0
 12  2  1  0  0  0  0
 28 18  1  0  0  0  0
 40 32  1  0  0  0  0
 52 42  1  0  0  0  0
 64 55  1  0  0  0  0
 11  5  1  0  0  0  0
 62 58  2  0  0  0  0
  1 70  1  0  0  0  0
  6 71  1  0  0  0  0
  9 72  1  0  0  0  0
 10 73  1  0  0  0  0
 26 74  1  0  0  0  0
 26 75  1  0  0  0  0
 27 76  1  0  0  0  0
 27 77  1  0  0  0  0
 27 78  1  0  0  0  0
 30 79  1  0  0  0  0
 30 80  1  0  0  0  0
 31 81  1  0  0  0  0
 31 82  1  0  0  0  0
 31 83  1  0  0  0  0
 33 84  1  0  0  0  0
 36 85  1  0  0  0  0
 36 86  1  0  0  0  0
 37 87  1  0  0  0  0
 37 88  1  0  0  0  0
 37 89  1  0  0  0  0
 39 90  1  0  0  0  0
 45 91  1  0  0  0  0
 45 92  1  0  0  0  0
 45 93  1  0  0  0  0
 51 94  1  0  0  0  0
 51 95  1  0  0  0  0
 51 96  1  0  0  0  0
 54 97  1  0  0  0  0
 60 98  1  0  0  0  0
 63 99  1  0  0  0  0
 63100  1  0  0  0  0
 63101  1  0  0  0  0
M  END
