
  xtb     02102218443D
 energy: -199.892945414561 gnorm: 0.000706546787 xtb: 6.4.1 (unknown)
101107  0     0  0            999 V2000
    4.0630   -2.7800   -5.7393 C   0  0  0  0  0  0  0  0  0  0  0  0
    3.8039   -3.9478   -6.3640 C   0  0  0  0  0  0  0  0  0  0  0  0
    4.4664   -4.2597   -7.6661 C   0  0  0  0  0  0  0  0  0  0  0  0
    5.4258   -3.7048   -8.1426 O   0  0  0  0  0  0  0  0  0  0  0  0
    3.6533   -5.3471   -8.2535 C   0  0  0  0  0  0  0  0  0  0  0  0
    3.7536   -5.9143   -9.5080 C   0  0  0  0  0  0  0  0  0  0  0  0
    2.8442   -6.9126   -9.8375 C   0  0  0  0  0  0  0  0  0  0  0  0
    2.9264   -7.6549  -11.3892 Cl  0  0  0  0  0  0  0  0  0  0  0  0
    1.8645   -7.3229   -8.9381 C   0  0  0  0  0  0  0  0  0  0  0  0
    1.7747   -6.7551   -7.6776 C   0  0  0  0  0  0  0  0  0  0  0  0
    2.6775   -5.7614   -7.3272 C   0  0  0  0  0  0  0  0  0  0  0  0
    2.8509   -5.0126   -6.0889 C   0  0  0  0  0  0  0  0  0  0  0  0
    2.3863   -5.3803   -4.8579 C   0  0  0  0  0  0  0  0  0  0  0  0
    1.5245   -6.4761   -4.6383 C   0  0  0  0  0  0  0  0  0  0  0  0
    0.8215   -7.3532   -4.4097 N   0  0  0  0  0  0  0  0  0  0  0  0
    2.7956   -4.7640   -3.6564 C   0  0  0  0  0  0  0  0  0  0  0  0
    3.1459   -4.3275   -2.6548 N   0  0  0  0  0  0  0  0  0  0  0  0
    3.3045   -2.1292   -4.6949 C   0  0  0  0  0  0  0  0  0  0  0  0
    1.9090   -2.1406   -4.6802 C   0  0  0  0  0  0  0  0  0  0  0  0
    1.2318   -2.7694   -5.6617 F   0  0  0  0  0  0  0  0  0  0  0  0
    1.2041   -1.4925   -3.6884 C   0  0  0  0  0  0  0  0  0  0  0  0
   -0.1409   -1.5590   -3.6891 F   0  0  0  0  0  0  0  0  0  0  0  0
    1.8619   -0.7812   -2.6861 C   0  0  0  0  0  0  0  0  0  0  0  0
    3.2574   -0.6797   -2.7274 C   0  0  0  0  0  0  0  0  0  0  0  0
    3.9571    0.1067   -1.8506 O   0  0  0  0  0  0  0  0  0  0  0  0
    3.5967    1.4791   -1.7503 C   0  0  0  0  0  0  0  0  0  0  0  0
    3.6105    2.1909   -3.0977 C   0  0  0  0  0  0  0  0  0  0  0  0
    3.9856   -1.3875   -3.7039 C   0  0  0  0  0  0  0  0  0  0  0  0
    5.3232   -1.4314   -3.7919 O   0  0  0  0  0  0  0  0  0  0  0  0
    6.1573   -1.2115   -2.6559 C   0  0  0  0  0  0  0  0  0  0  0  0
    7.4487   -1.9769   -2.8995 C   0  0  0  0  0  0  0  0  0  0  0  0
    1.0612   -0.1955   -1.5950 C   0  0  0  0  0  0  0  0  0  0  0  0
   -0.0053    0.6565   -1.8676 C   0  0  0  0  0  0  0  0  0  0  0  0
   -0.7924    1.1790   -0.8490 C   0  0  0  0  0  0  0  0  0  0  0  0
   -1.8266    2.0332   -1.0225 O   0  0  0  0  0  0  0  0  0  0  0  0
   -2.1532    2.5032   -2.3169 C   0  0  0  0  0  0  0  0  0  0  0  0
   -1.2117    3.6070   -2.7900 C   0  0  0  0  0  0  0  0  0  0  0  0
   -0.5089    0.8215    0.4830 C   0  0  0  0  0  0  0  0  0  0  0  0
    0.5535   -0.0222    0.7603 C   0  0  0  0  0  0  0  0  0  0  0  0
    1.3273   -0.5218   -0.2683 C   0  0  0  0  0  0  0  0  0  0  0  0
    2.3424   -1.3527    0.0296 F   0  0  0  0  0  0  0  0  0  0  0  0
   -1.3493    1.3427    1.5776 C   0  0  0  0  0  0  0  0  0  0  0  0
   -0.7638    2.1178    2.5942 C   0  0  0  0  0  0  0  0  0  0  0  0
    0.5655    2.3464    2.4832 O   0  0  0  0  0  0  0  0  0  0  0  0
    1.2924    2.7401    3.6341 C   0  0  0  0  0  0  0  0  0  0  0  0
   -1.6029    2.5967    3.5923 C   0  0  0  0  0  0  0  0  0  0  0  0
   -1.1416    3.4827    4.5015 F   0  0  0  0  0  0  0  0  0  0  0  0
   -2.9632    2.2807    3.6456 C   0  0  0  0  0  0  0  0  0  0  0  0
   -3.5527    1.5262    2.6093 C   0  0  0  0  0  0  0  0  0  0  0  0
   -4.8732    1.2857    2.7552 O   0  0  0  0  0  0  0  0  0  0  0  0
   -5.6031    0.6342    1.7330 C   0  0  0  0  0  0  0  0  0  0  0  0
   -2.7123    1.0772    1.5923 C   0  0  0  0  0  0  0  0  0  0  0  0
   -3.1973    0.3055    0.5935 F   0  0  0  0  0  0  0  0  0  0  0  0
   -3.8034    2.7465    4.7246 C   0  0  0  0  0  0  0  0  0  0  0  0
   -3.4611    2.7342    6.0340 C   0  0  0  0  0  0  0  0  0  0  0  0
   -2.3082    1.9719    6.6004 C   0  0  0  0  0  0  0  0  0  0  0  0
   -1.4701    1.3447    5.9958 O   0  0  0  0  0  0  0  0  0  0  0  0
   -2.4701    2.0582    8.0648 C   0  0  0  0  0  0  0  0  0  0  0  0
   -1.6909    1.5039    9.0692 C   0  0  0  0  0  0  0  0  0  0  0  0
   -0.2944    0.5816    8.6967 Cl  0  0  0  0  0  0  0  0  0  0  0  0
   -2.0582    1.7134   10.3966 C   0  0  0  0  0  0  0  0  0  0  0  0
   -3.1876    2.4547   10.6977 C   0  0  0  0  0  0  0  0  0  0  0  0
   -3.9782    3.0150    9.7019 C   0  0  0  0  0  0  0  0  0  0  0  0
   -3.6134    2.8182    8.3800 C   0  0  0  0  0  0  0  0  0  0  0  0
   -4.2298    3.2809    7.1400 C   0  0  0  0  0  0  0  0  0  0  0  0
   -5.2895    4.1386    7.0432 C   0  0  0  0  0  0  0  0  0  0  0  0
   -5.8263    4.6305    5.8323 C   0  0  0  0  0  0  0  0  0  0  0  0
   -6.3149    5.0875    4.8996 N   0  0  0  0  0  0  0  0  0  0  0  0
   -5.9836    4.6778    8.1486 C   0  0  0  0  0  0  0  0  0  0  0  0
   -6.5943    5.1502    8.9976 N   0  0  0  0  0  0  0  0  0  0  0  0
    4.9266   -2.2298   -6.0973 H   0  0  0  0  0  0  0  0  0  0  0  0
    4.5127   -5.5888  -10.2015 H   0  0  0  0  0  0  0  0  0  0  0  0
    1.1681   -8.0930   -9.2307 H   0  0  0  0  0  0  0  0  0  0  0  0
    1.0040   -7.0790   -6.9969 H   0  0  0  0  0  0  0  0  0  0  0  0
    4.3616    1.8941   -1.0896 H   0  0  0  0  0  0  0  0  0  0  0  0
    2.6193    1.6000   -1.2701 H   0  0  0  0  0  0  0  0  0  0  0  0
    3.4339    3.2523   -2.9489 H   0  0  0  0  0  0  0  0  0  0  0  0
    2.8345    1.7933   -3.7492 H   0  0  0  0  0  0  0  0  0  0  0  0
    4.5727    2.0594   -3.5873 H   0  0  0  0  0  0  0  0  0  0  0  0
    6.3620   -0.1410   -2.5471 H   0  0  0  0  0  0  0  0  0  0  0  0
    5.6579   -1.5705   -1.7528 H   0  0  0  0  0  0  0  0  0  0  0  0
    7.2428   -3.0408   -2.9786 H   0  0  0  0  0  0  0  0  0  0  0  0
    7.9129   -1.6434   -3.8236 H   0  0  0  0  0  0  0  0  0  0  0  0
    8.1344   -1.8077   -2.0747 H   0  0  0  0  0  0  0  0  0  0  0  0
   -0.2037    0.9018   -2.8981 H   0  0  0  0  0  0  0  0  0  0  0  0
   -3.1649    2.9033   -2.2085 H   0  0  0  0  0  0  0  0  0  0  0  0
   -2.1872    1.6744   -3.0330 H   0  0  0  0  0  0  0  0  0  0  0  0
   -1.2159    4.4244   -2.0733 H   0  0  0  0  0  0  0  0  0  0  0  0
   -0.1922    3.2413   -2.8855 H   0  0  0  0  0  0  0  0  0  0  0  0
   -1.5436    3.9817   -3.7542 H   0  0  0  0  0  0  0  0  0  0  0  0
    0.7736   -0.3073    1.7760 H   0  0  0  0  0  0  0  0  0  0  0  0
    2.3359    2.5349    3.3993 H   0  0  0  0  0  0  0  0  0  0  0  0
    1.1706    3.8057    3.8425 H   0  0  0  0  0  0  0  0  0  0  0  0
    0.9920    2.1620    4.5107 H   0  0  0  0  0  0  0  0  0  0  0  0
   -5.2903   -0.4054    1.6145 H   0  0  0  0  0  0  0  0  0  0  0  0
   -5.5090    1.1541    0.7774 H   0  0  0  0  0  0  0  0  0  0  0  0
   -6.6401    0.6655    2.0634 H   0  0  0  0  0  0  0  0  0  0  0  0
   -4.7913    3.0735    4.4274 H   0  0  0  0  0  0  0  0  0  0  0  0
   -1.4549    1.2911   11.1843 H   0  0  0  0  0  0  0  0  0  0  0  0
   -3.4610    2.6014   11.7314 H   0  0  0  0  0  0  0  0  0  0  0  0
   -4.8546    3.5827    9.9664 H   0  0  0  0  0  0  0  0  0  0  0  0
  1  2  2  0  0  0  0
  2  3  1  0  0  0  0
  3  4  2  0  0  0  0
  3  5  1  0  0  0  0
  5  6  2  0  0  0  0
  6  7  1  0  0  0  0
  7  8  1  0  0  0  0
  7  9  2  0  0  0  0
  9 10  1  0  0  0  0
 10 11  2  0  0  0  0
 11 12  1  0  0  0  0
 12 13  2  0  0  0  0
 13 14  1  0  0  0  0
 14 15  3  0  0  0  0
 13 16  1  0  0  0  0
 16 17  3  0  0  0  0
  1 18  1  0  0  0  0
 18 19  2  0  0  0  0
 19 20  1  0  0  0  0
 19 21  1  0  0  0  0
 21 22  1  0  0  0  0
 21 23  2  0  0  0  0
 23 24  1  0  0  0  0
 24 25  1  0  0  0  0
 25 26  1  0  0  0  0
 26 27  1  0  0  0  0
 24 28  2  0  0  0  0
 28 29  1  0  0  0  0
 29 30  1  0  0  0  0
 30 31  1  0  0  0  0
 23 32  1  0  0  0  0
 32 33  2  0  0  0  0
 33 34  1  0  0  0  0
 34 35  1  0  0  0  0
 35 36  1  0  0  0  0
 36 37  1  0  0  0  0
 34 38  2  0  0  0  0
 38 39  1  0  0  0  0
 39 40  2  0  0  0  0
 40 41  1  0  0  0  0
 38 42  1  0  0  0  0
 42 43  2  0  0  0  0
 43 44  1  0  0  0  0
 44 45  1  0  0  0  0
 43 46  1  0  0  0  0
 46 47  1  0  0  0  0
 46 48  2  0  0  0  0
 48 49  1  0  0  0  0
 49 50  1  0  0  0  0
 50 51  1  0  0  0  0
 49 52  2  0  0  0  0
 52 53  1  0  0  0  0
 48 54  1  0  0  0  0
 54 55  2  0  0  0  0
 55 56  1  0  0  0  0
 56 57  2  0  0  0  0
 56 58  1  0  0  0  0
 58 59  2  0  0  0  0
 59 60  1  0  0  0  0
 59 61  1  0  0  0  0
 61 62  2  0  0  0  0
 62 63  1  0  0  0  0
 63 64  2  0  0  0  0
 64 65  1  0  0  0  0
 65 66  2  0  0  0  0
 66 67  1  0  0  0  0
 67 68  3  0  0  0  0
 66 69  1  0  0  0  0
 69 70  3  0  0  0  0
 12  2  1  0  0  0  0
 28 18  1  0  0  0  0
 40 32  1  0  0  0  0
 52 42  1  0  0  0  0
 65 55  1  0  0  0  0
 11  5  1  0  0  0  0
 64 58  1  0  0  0  0
  1 71  1  0  0  0  0
  6 72  1  0  0  0  0
  9 73  1  0  0  0  0
 10 74  1  0  0  0  0
 26 75  1  0  0  0  0
 26 76  1  0  0  0  0
 27 77  1  0  0  0  0
 27 78  1  0  0  0  0
 27 79  1  0  0  0  0
 30 80  1  0  0  0  0
 30 81  1  0  0  0  0
 31 82  1  0  0  0  0
 31 83  1  0  0  0  0
 31 84  1  0  0  0  0
 33 85  1  0  0  0  0
 36 86  1  0  0  0  0
 36 87  1  0  0  0  0
 37 88  1  0  0  0  0
 37 89  1  0  0  0  0
 37 90  1  0  0  0  0
 39 91  1  0  0  0  0
 45 92  1  0  0  0  0
 45 93  1  0  0  0  0
 45 94  1  0  0  0  0
 51 95  1  0  0  0  0
 51 96  1  0  0  0  0
 51 97  1  0  0  0  0
 54 98  1  0  0  0  0
 61 99  1  0  0  0  0
 62100  1  0  0  0  0
 63101  1  0  0  0  0
M  END
