
  xtb     02062203303D
 energy: -352.021415443281 gnorm: 0.000444028012 xtb: 6.4.1 (unknown)
207224  0     0  0            999 V2000
   -7.2212    3.9357    0.9672 C   0  0  0  0  0  0  0  0  0  0  0  0
   -7.3194    5.2931    0.7345 C   0  0  0  0  0  0  0  0  0  0  0  0
   -6.6875    5.9632   -0.4102 C   0  0  0  0  0  0  0  0  0  0  0  0
   -6.0279    5.4502   -1.2951 O   0  0  0  0  0  0  0  0  0  0  0  0
   -7.1588    7.3676   -0.3549 C   0  0  0  0  0  0  0  0  0  0  0  0
   -6.8317    8.4183   -1.1845 C   0  0  0  0  0  0  0  0  0  0  0  0
   -7.3852    9.6603   -0.8950 C   0  0  0  0  0  0  0  0  0  0  0  0
   -6.9778   11.0207   -1.8784 Cl  0  0  0  0  0  0  0  0  0  0  0  0
   -8.2505    9.8334    0.1780 C   0  0  0  0  0  0  0  0  0  0  0  0
   -8.5843    8.7655    0.9991 C   0  0  0  0  0  0  0  0  0  0  0  0
   -8.0324    7.5226    0.7341 C   0  0  0  0  0  0  0  0  0  0  0  0
   -8.1536    6.2398    1.4235 C   0  0  0  0  0  0  0  0  0  0  0  0
   -8.8295    6.0256    2.5992 C   0  0  0  0  0  0  0  0  0  0  0  0
   -8.8127    4.8119    3.3096 C   0  0  0  0  0  0  0  0  0  0  0  0
   -8.8251    3.8618    3.9561 N   0  0  0  0  0  0  0  0  0  0  0  0
   -9.5989    7.0026    3.2608 C   0  0  0  0  0  0  0  0  0  0  0  0
  -10.2525    7.7515    3.8358 N   0  0  0  0  0  0  0  0  0  0  0  0
   -6.1470    3.1226    0.5977 C   0  0  0  0  0  0  0  0  0  0  0  0
   -4.7873    3.4048    0.3681 C   0  0  0  0  0  0  0  0  0  0  0  0
   -4.1320    4.6098    0.3847 N   0  0  0  0  0  0  0  0  0  0  0  0
   -4.4820    5.6875    1.1905 C   0  0  0  0  0  0  0  0  0  0  0  0
   -4.2635    6.9912    0.7437 C   0  0  0  0  0  0  0  0  0  0  0  0
   -4.6753    8.0744    1.4931 C   0  0  0  0  0  0  0  0  0  0  0  0
   -5.3200    7.8760    2.7079 C   0  0  0  0  0  0  0  0  0  0  0  0
   -5.9907    9.1664    3.6976 S   0  0  0  0  0  0  0  0  0  0  0  0
   -5.6685   10.6718    2.7361 C   0  0  0  0  0  0  0  0  0  0  0  0
   -5.4759    6.5757    3.1912 C   0  0  0  0  0  0  0  0  0  0  0  0
   -5.0651    5.4947    2.4464 C   0  0  0  0  0  0  0  0  0  0  0  0
   -3.0527    4.7107   -0.5252 C   0  0  0  0  0  0  0  0  0  0  0  0
   -3.2553    4.2974   -1.8408 C   0  0  0  0  0  0  0  0  0  0  0  0
   -2.1956    4.2183   -2.7161 C   0  0  0  0  0  0  0  0  0  0  0  0
   -0.9181    4.5533   -2.2841 C   0  0  0  0  0  0  0  0  0  0  0  0
    0.4811    4.3516   -3.3408 S   0  0  0  0  0  0  0  0  0  0  0  0
    0.0465    2.8273   -4.2313 C   0  0  0  0  0  0  0  0  0  0  0  0
   -0.7264    5.0546   -1.0011 C   0  0  0  0  0  0  0  0  0  0  0  0
   -1.7895    5.1347   -0.1223 C   0  0  0  0  0  0  0  0  0  0  0  0
   -4.0742    2.2108    0.1106 C   0  0  0  0  0  0  0  0  0  0  0  0
   -2.3936    1.8975   -0.1155 S   0  0  0  0  0  0  0  0  0  0  0  0
   -2.7183    0.1812   -0.2571 C   0  0  0  0  0  0  0  0  0  0  0  0
   -4.0702   -0.1168   -0.2324 C   0  0  0  0  0  0  0  0  0  0  0  0
   -4.5831   -1.3398   -0.6981 N   0  0  0  0  0  0  0  0  0  0  0  0
   -4.4953   -1.6220   -2.0661 C   0  0  0  0  0  0  0  0  0  0  0  0
   -5.3077   -2.6193   -2.6188 C   0  0  0  0  0  0  0  0  0  0  0  0
   -5.2612   -2.9082   -3.9627 C   0  0  0  0  0  0  0  0  0  0  0  0
   -4.4136   -2.2047   -4.8147 C   0  0  0  0  0  0  0  0  0  0  0  0
   -4.4262   -2.6783   -6.5186 S   0  0  0  0  0  0  0  0  0  0  0  0
   -3.4042   -1.4134   -7.3261 C   0  0  0  0  0  0  0  0  0  0  0  0
   -3.6289   -1.1934   -4.2860 C   0  0  0  0  0  0  0  0  0  0  0  0
   -3.6743   -0.9045   -2.9341 C   0  0  0  0  0  0  0  0  0  0  0  0
   -5.1427   -2.2988    0.1718 C   0  0  0  0  0  0  0  0  0  0  0  0
   -4.6495   -3.6000    0.1423 C   0  0  0  0  0  0  0  0  0  0  0  0
   -5.1322   -4.5672    0.9992 C   0  0  0  0  0  0  0  0  0  0  0  0
   -6.1350   -4.2472    1.9049 C   0  0  0  0  0  0  0  0  0  0  0  0
   -6.7801   -5.3796    3.0945 S   0  0  0  0  0  0  0  0  0  0  0  0
   -5.8713   -6.9168    2.7721 C   0  0  0  0  0  0  0  0  0  0  0  0
   -6.6691   -2.9599    1.9050 C   0  0  0  0  0  0  0  0  0  0  0  0
   -6.1781   -1.9946    1.0504 C   0  0  0  0  0  0  0  0  0  0  0  0
   -4.8264    1.0455    0.0673 C   0  0  0  0  0  0  0  0  0  0  0  0
   -6.4735    1.3853    0.4586 S   0  0  0  0  0  0  0  0  0  0  0  0
   -1.5626   -0.6660   -0.3438 C   0  0  0  0  0  0  0  0  0  0  0  0
   -1.1925   -1.7205    0.4761 C   0  0  0  0  0  0  0  0  0  0  0  0
   -1.9131   -2.1703    1.5705 N   0  0  0  0  0  0  0  0  0  0  0  0
   -2.6183   -1.2265    2.3395 C   0  0  0  0  0  0  0  0  0  0  0  0
   -3.8518   -1.5344    2.9015 C   0  0  0  0  0  0  0  0  0  0  0  0
   -4.6179   -0.5564    3.5045 C   0  0  0  0  0  0  0  0  0  0  0  0
   -4.1623    0.7531    3.5575 C   0  0  0  0  0  0  0  0  0  0  0  0
   -5.1275    2.1073    4.1460 S   0  0  0  0  0  0  0  0  0  0  0  0
   -6.7886    1.4046    4.3191 C   0  0  0  0  0  0  0  0  0  0  0  0
   -2.8739    1.0394    3.1108 C   0  0  0  0  0  0  0  0  0  0  0  0
   -2.1072    0.0606    2.5202 C   0  0  0  0  0  0  0  0  0  0  0  0
   -1.8949   -3.5239    1.9128 C   0  0  0  0  0  0  0  0  0  0  0  0
   -2.0433   -3.9269    3.2379 C   0  0  0  0  0  0  0  0  0  0  0  0
   -2.0950   -5.2656    3.5710 C   0  0  0  0  0  0  0  0  0  0  0  0
   -1.9724   -6.2345    2.5845 C   0  0  0  0  0  0  0  0  0  0  0  0
   -2.0835   -7.9752    2.8799 S   0  0  0  0  0  0  0  0  0  0  0  0
   -2.0977   -8.1117    4.6897 C   0  0  0  0  0  0  0  0  0  0  0  0
   -1.7744   -5.8391    1.2640 C   0  0  0  0  0  0  0  0  0  0  0  0
   -1.7384   -4.5041    0.9303 C   0  0  0  0  0  0  0  0  0  0  0  0
    0.1184   -2.1659    0.1574 C   0  0  0  0  0  0  0  0  0  0  0  0
    1.1350   -3.4436    0.7261 S   0  0  0  0  0  0  0  0  0  0  0  0
    2.4681   -2.8501   -0.2518 C   0  0  0  0  0  0  0  0  0  0  0  0
    2.1154   -1.7547   -1.0197 C   0  0  0  0  0  0  0  0  0  0  0  0
    2.9251   -1.0998   -1.9348 N   0  0  0  0  0  0  0  0  0  0  0  0
    3.7759   -1.8515   -2.7535 C   0  0  0  0  0  0  0  0  0  0  0  0
    5.0512   -1.4109   -3.0948 C   0  0  0  0  0  0  0  0  0  0  0  0
    5.8711   -2.1731   -3.9036 C   0  0  0  0  0  0  0  0  0  0  0  0
    5.4370   -3.4036   -4.3753 C   0  0  0  0  0  0  0  0  0  0  0  0
    6.3840   -4.4565   -5.4250 S   0  0  0  0  0  0  0  0  0  0  0  0
    8.0327   -3.7013   -5.4091 C   0  0  0  0  0  0  0  0  0  0  0  0
    4.1613   -3.8505   -4.0376 C   0  0  0  0  0  0  0  0  0  0  0  0
    3.3399   -3.0839   -3.2445 C   0  0  0  0  0  0  0  0  0  0  0  0
    3.0088    0.2942   -1.8449 C   0  0  0  0  0  0  0  0  0  0  0  0
    3.2688    1.0781   -2.9660 C   0  0  0  0  0  0  0  0  0  0  0  0
    3.3806    2.4522   -2.8585 C   0  0  0  0  0  0  0  0  0  0  0  0
    3.2120    3.0727   -1.6281 C   0  0  0  0  0  0  0  0  0  0  0  0
    3.3623    4.8087   -1.3506 S   0  0  0  0  0  0  0  0  0  0  0  0
    3.8946    5.4708   -2.9513 C   0  0  0  0  0  0  0  0  0  0  0  0
    2.9153    2.2954   -0.5106 C   0  0  0  0  0  0  0  0  0  0  0  0
    2.8229    0.9272   -0.6136 C   0  0  0  0  0  0  0  0  0  0  0  0
    0.7671   -1.3893   -0.7866 C   0  0  0  0  0  0  0  0  0  0  0  0
   -0.2525   -0.1403   -1.3990 S   0  0  0  0  0  0  0  0  0  0  0  0
    3.7478   -3.5050   -0.1519 C   0  0  0  0  0  0  0  0  0  0  0  0
    4.9434   -2.7404   -0.0715 C   0  0  0  0  0  0  0  0  0  0  0  0
    4.8596   -1.3952    0.0357 N   0  0  0  0  0  0  0  0  0  0  0  0
    5.9539   -0.7144    0.1681 C   0  0  0  0  0  0  0  0  0  0  0  0
    7.2225   -1.3589    0.2444 C   0  0  0  0  0  0  0  0  0  0  0  0
    8.2959   -0.5892    0.4151 O   0  0  0  0  0  0  0  0  0  0  0  0
    9.5680   -1.2281    0.4597 C   0  0  0  0  0  0  0  0  0  0  0  0
    9.8063   -1.9906    1.7556 C   0  0  0  0  0  0  0  0  0  0  0  0
    7.3253   -2.6618    0.1793 N   0  0  0  0  0  0  0  0  0  0  0  0
    6.2031   -3.3836   -0.0057 C   0  0  0  0  0  0  0  0  0  0  0  0
    6.2721   -4.8063   -0.0181 C   0  0  0  0  0  0  0  0  0  0  0  0
    5.0766   -5.5161    0.0076 C   0  0  0  0  0  0  0  0  0  0  0  0
    3.8453   -4.8853   -0.0628 C   0  0  0  0  0  0  0  0  0  0  0  0
    7.5237   -5.4966    0.0900 C   0  0  0  0  0  0  0  0  0  0  0  0
    8.7125   -5.1098   -0.4434 C   0  0  0  0  0  0  0  0  0  0  0  0
    8.8797   -4.1424   -1.5533 C   0  0  0  0  0  0  0  0  0  0  0  0
    8.0220   -3.5869   -2.2076 O   0  0  0  0  0  0  0  0  0  0  0  0
   10.3354   -4.0929   -1.8190 C   0  0  0  0  0  0  0  0  0  0  0  0
   11.0117   -3.3292   -2.7401 C   0  0  0  0  0  0  0  0  0  0  0  0
   12.4031   -3.4677   -2.8403 C   0  0  0  0  0  0  0  0  0  0  0  0
   13.0031   -2.6850   -3.7621 O   0  0  0  0  0  0  0  0  0  0  0  0
   14.3997   -2.7718   -3.9358 C   0  0  0  0  0  0  0  0  0  0  0  0
   13.0641   -4.3756   -2.0103 C   0  0  0  0  0  0  0  0  0  0  0  0
   12.3737   -5.1432   -1.0854 C   0  0  0  0  0  0  0  0  0  0  0  0
   10.9978   -5.0087   -0.9795 C   0  0  0  0  0  0  0  0  0  0  0  0
   10.0204   -5.6601   -0.1212 C   0  0  0  0  0  0  0  0  0  0  0  0
   10.3061   -6.5731    0.8604 C   0  0  0  0  0  0  0  0  0  0  0  0
    9.3685   -7.1663    1.7314 C   0  0  0  0  0  0  0  0  0  0  0  0
    8.6793   -7.6884    2.4878 N   0  0  0  0  0  0  0  0  0  0  0  0
   11.6053   -7.0422    1.1460 C   0  0  0  0  0  0  0  0  0  0  0  0
   12.6364   -7.4628    1.4259 N   0  0  0  0  0  0  0  0  0  0  0  0
   -8.0452    3.4328    1.4591 H   0  0  0  0  0  0  0  0  0  0  0  0
   -6.1604    8.2780   -2.0167 H   0  0  0  0  0  0  0  0  0  0  0  0
   -8.6674   10.8096    0.3716 H   0  0  0  0  0  0  0  0  0  0  0  0
   -9.2584    8.9208    1.8253 H   0  0  0  0  0  0  0  0  0  0  0  0
   -3.7923    7.1510   -0.2144 H   0  0  0  0  0  0  0  0  0  0  0  0
   -4.5084    9.0663    1.1066 H   0  0  0  0  0  0  0  0  0  0  0  0
   -4.5987   10.8371    2.6488 H   0  0  0  0  0  0  0  0  0  0  0  0
   -6.1414   10.5960    1.7612 H   0  0  0  0  0  0  0  0  0  0  0  0
   -6.1199   11.4790    3.3045 H   0  0  0  0  0  0  0  0  0  0  0  0
   -5.9375    6.4244    4.1551 H   0  0  0  0  0  0  0  0  0  0  0  0
   -5.1883    4.4967    2.8381 H   0  0  0  0  0  0  0  0  0  0  0  0
   -4.2530    4.0422   -2.1614 H   0  0  0  0  0  0  0  0  0  0  0  0
   -2.3668    3.8911   -3.7293 H   0  0  0  0  0  0  0  0  0  0  0  0
   -0.6387    3.0412   -5.0465 H   0  0  0  0  0  0  0  0  0  0  0  0
    0.9769    2.4319   -4.6259 H   0  0  0  0  0  0  0  0  0  0  0  0
   -0.3829    2.1214   -3.5269 H   0  0  0  0  0  0  0  0  0  0  0  0
    0.2659    5.3429   -0.6903 H   0  0  0  0  0  0  0  0  0  0  0  0
   -1.6376    5.4850    0.8877 H   0  0  0  0  0  0  0  0  0  0  0  0
   -5.9951   -3.1619   -1.9889 H   0  0  0  0  0  0  0  0  0  0  0  0
   -5.8942   -3.6810   -4.3711 H   0  0  0  0  0  0  0  0  0  0  0  0
   -3.8135   -0.4274   -7.1263 H   0  0  0  0  0  0  0  0  0  0  0  0
   -3.4590   -1.6281   -8.3887 H   0  0  0  0  0  0  0  0  0  0  0  0
   -2.3746   -1.4905   -6.9881 H   0  0  0  0  0  0  0  0  0  0  0  0
   -2.9675   -0.6137   -4.9101 H   0  0  0  0  0  0  0  0  0  0  0  0
   -3.0570   -0.0977   -2.5723 H   0  0  0  0  0  0  0  0  0  0  0  0
   -3.8782   -3.8551   -0.5672 H   0  0  0  0  0  0  0  0  0  0  0  0
   -4.7079   -5.5566    0.9558 H   0  0  0  0  0  0  0  0  0  0  0  0
   -6.0902   -7.2758    1.7708 H   0  0  0  0  0  0  0  0  0  0  0  0
   -4.8058   -6.7563    2.9061 H   0  0  0  0  0  0  0  0  0  0  0  0
   -6.2354   -7.6299    3.5052 H   0  0  0  0  0  0  0  0  0  0  0  0
   -7.4717   -2.7265    2.5879 H   0  0  0  0  0  0  0  0  0  0  0  0
   -6.6014   -1.0036    1.0624 H   0  0  0  0  0  0  0  0  0  0  0  0
   -4.2261   -2.5432    2.8493 H   0  0  0  0  0  0  0  0  0  0  0  0
   -5.5779   -0.8307    3.9091 H   0  0  0  0  0  0  0  0  0  0  0  0
   -7.0633    0.8978    3.3985 H   0  0  0  0  0  0  0  0  0  0  0  0
   -6.8207    0.7301    5.1697 H   0  0  0  0  0  0  0  0  0  0  0  0
   -7.4523    2.2490    4.4860 H   0  0  0  0  0  0  0  0  0  0  0  0
   -2.4893    2.0425    3.2167 H   0  0  0  0  0  0  0  0  0  0  0  0
   -1.1127    0.2990    2.1730 H   0  0  0  0  0  0  0  0  0  0  0  0
   -2.1226   -3.1848    4.0176 H   0  0  0  0  0  0  0  0  0  0  0  0
   -2.2286   -5.5366    4.6059 H   0  0  0  0  0  0  0  0  0  0  0  0
   -2.0790   -9.1765    4.9007 H   0  0  0  0  0  0  0  0  0  0  0  0
   -3.0051   -7.6736    5.0956 H   0  0  0  0  0  0  0  0  0  0  0  0
   -1.2111   -7.6377    5.1002 H   0  0  0  0  0  0  0  0  0  0  0  0
   -1.6644   -6.5941    0.5006 H   0  0  0  0  0  0  0  0  0  0  0  0
   -1.6041   -4.2172   -0.1013 H   0  0  0  0  0  0  0  0  0  0  0  0
    5.4090   -0.4652   -2.7153 H   0  0  0  0  0  0  0  0  0  0  0  0
    6.8521   -1.7996   -4.1441 H   0  0  0  0  0  0  0  0  0  0  0  0
    8.0227   -2.7677   -5.9650 H   0  0  0  0  0  0  0  0  0  0  0  0
    8.3291   -3.5511   -4.3757 H   0  0  0  0  0  0  0  0  0  0  0  0
    8.6938   -4.4132   -5.8934 H   0  0  0  0  0  0  0  0  0  0  0  0
    3.8215   -4.8032   -4.4143 H   0  0  0  0  0  0  0  0  0  0  0  0
    2.3484   -3.4360   -3.0006 H   0  0  0  0  0  0  0  0  0  0  0  0
    3.3928    0.6054   -3.9296 H   0  0  0  0  0  0  0  0  0  0  0  0
    3.5925    3.0294   -3.7445 H   0  0  0  0  0  0  0  0  0  0  0  0
    4.8205    4.9931   -3.2578 H   0  0  0  0  0  0  0  0  0  0  0  0
    3.1066    5.3306   -3.6853 H   0  0  0  0  0  0  0  0  0  0  0  0
    4.0619    6.5308   -2.7880 H   0  0  0  0  0  0  0  0  0  0  0  0
    2.7796    2.7812    0.4437 H   0  0  0  0  0  0  0  0  0  0  0  0
    2.6404    0.3328    0.2677 H   0  0  0  0  0  0  0  0  0  0  0  0
    5.8734    0.3598    0.2556 H   0  0  0  0  0  0  0  0  0  0  0  0
    9.6571   -1.9040   -0.3967 H   0  0  0  0  0  0  0  0  0  0  0  0
   10.2838   -0.4092    0.3554 H   0  0  0  0  0  0  0  0  0  0  0  0
   10.8184   -2.3861    1.7594 H   0  0  0  0  0  0  0  0  0  0  0  0
    9.6805   -1.3298    2.6097 H   0  0  0  0  0  0  0  0  0  0  0  0
    9.1031   -2.8152    1.8386 H   0  0  0  0  0  0  0  0  0  0  0  0
    5.1143   -6.5951    0.0431 H   0  0  0  0  0  0  0  0  0  0  0  0
    2.9412   -5.4765   -0.0714 H   0  0  0  0  0  0  0  0  0  0  0  0
    7.4941   -6.4028    0.6825 H   0  0  0  0  0  0  0  0  0  0  0  0
   10.5008   -2.6272   -3.3800 H   0  0  0  0  0  0  0  0  0  0  0  0
   14.7026   -3.7759   -4.2468 H   0  0  0  0  0  0  0  0  0  0  0  0
   14.9351   -2.4933   -3.0232 H   0  0  0  0  0  0  0  0  0  0  0  0
   14.6405   -2.0623   -4.7254 H   0  0  0  0  0  0  0  0  0  0  0  0
   14.1333   -4.4972   -2.0790 H   0  0  0  0  0  0  0  0  0  0  0  0
   12.9205   -5.8367   -0.4681 H   0  0  0  0  0  0  0  0  0  0  0  0
  1  2  2  0  0  0  0
  2  3  1  0  0  0  0
  3  4  2  0  0  0  0
  3  5  1  0  0  0  0
  5  6  2  0  0  0  0
  6  7  1  0  0  0  0
  7  8  1  0  0  0  0
  7  9  2  0  0  0  0
  9 10  1  0  0  0  0
 10 11  2  0  0  0  0
 11 12  1  0  0  0  0
 12 13  2  0  0  0  0
 13 14  1  0  0  0  0
 14 15  3  0  0  0  0
 13 16  1  0  0  0  0
 16 17  3  0  0  0  0
  1 18  1  0  0  0  0
 18 19  2  0  0  0  0
 19 20  1  0  0  0  0
 20 21  1  0  0  0  0
 21 22  2  0  0  0  0
 22 23  1  0  0  0  0
 23 24  2  0  0  0  0
 24 25  1  0  0  0  0
 25 26  1  0  0  0  0
 24 27  1  0  0  0  0
 27 28  2  0  0  0  0
 20 29  1  0  0  0  0
 29 30  2  0  0  0  0
 30 31  1  0  0  0  0
 31 32  2  0  0  0  0
 32 33  1  0  0  0  0
 33 34  1  0  0  0  0
 32 35  1  0  0  0  0
 35 36  2  0  0  0  0
 19 37  1  0  0  0  0
 37 38  1  0  0  0  0
 38 39  1  0  0  0  0
 39 40  2  0  0  0  0
 40 41  1  0  0  0  0
 41 42  1  0  0  0  0
 42 43  2  0  0  0  0
 43 44  1  0  0  0  0
 44 45  2  0  0  0  0
 45 46  1  0  0  0  0
 46 47  1  0  0  0  0
 45 48  1  0  0  0  0
 48 49  2  0  0  0  0
 41 50  1  0  0  0  0
 50 51  2  0  0  0  0
 51 52  1  0  0  0  0
 52 53  2  0  0  0  0
 53 54  1  0  0  0  0
 54 55  1  0  0  0  0
 53 56  1  0  0  0  0
 56 57  2  0  0  0  0
 40 58  1  0  0  0  0
 58 59  1  0  0  0  0
 39 60  1  0  0  0  0
 60 61  2  0  0  0  0
 61 62  1  0  0  0  0
 62 63  1  0  0  0  0
 63 64  2  0  0  0  0
 64 65  1  0  0  0  0
 65 66  2  0  0  0  0
 66 67  1  0  0  0  0
 67 68  1  0  0  0  0
 66 69  1  0  0  0  0
 69 70  2  0  0  0  0
 62 71  1  0  0  0  0
 71 72  2  0  0  0  0
 72 73  1  0  0  0  0
 73 74  2  0  0  0  0
 74 75  1  0  0  0  0
 75 76  1  0  0  0  0
 74 77  1  0  0  0  0
 77 78  2  0  0  0  0
 61 79  1  0  0  0  0
 79 80  1  0  0  0  0
 80 81  1  0  0  0  0
 81 82  2  0  0  0  0
 82 83  1  0  0  0  0
 83 84  1  0  0  0  0
 84 85  2  0  0  0  0
 85 86  1  0  0  0  0
 86 87  2  0  0  0  0
 87 88  1  0  0  0  0
 88 89  1  0  0  0  0
 87 90  1  0  0  0  0
 90 91  2  0  0  0  0
 83 92  1  0  0  0  0
 92 93  2  0  0  0  0
 93 94  1  0  0  0  0
 94 95  2  0  0  0  0
 95 96  1  0  0  0  0
 96 97  1  0  0  0  0
 95 98  1  0  0  0  0
 98 99  2  0  0  0  0
 82100  1  0  0  0  0
100101  1  0  0  0  0
 81102  1  0  0  0  0
102103  1  0  0  0  0
103104  2  0  0  0  0
104105  1  0  0  0  0
105106  2  0  0  0  0
106107  1  0  0  0  0
107108  1  0  0  0  0
108109  1  0  0  0  0
106110  1  0  0  0  0
110111  2  0  0  0  0
111112  1  0  0  0  0
112113  2  0  0  0  0
113114  1  0  0  0  0
112115  1  0  0  0  0
115116  2  0  0  0  0
116117  1  0  0  0  0
117118  2  0  0  0  0
117119  1  0  0  0  0
119120  2  0  0  0  0
120121  1  0  0  0  0
121122  1  0  0  0  0
122123  1  0  0  0  0
121124  2  0  0  0  0
124125  1  0  0  0  0
125126  2  0  0  0  0
126127  1  0  0  0  0
127128  2  0  0  0  0
128129  1  0  0  0  0
129130  3  0  0  0  0
128131  1  0  0  0  0
131132  3  0  0  0  0
 12  2  1  0  0  0  0
 59 18  1  0  0  0  0
101 60  1  0  0  0  0
114102  2  0  0  0  0
127116  1  0  0  0  0
 11  5  1  0  0  0  0
 28 21  1  0  0  0  0
 36 29  1  0  0  0  0
 58 37  2  0  0  0  0
 70 63  1  0  0  0  0
 78 71  1  0  0  0  0
100 79  2  0  0  0  0
111103  1  0  0  0  0
126119  1  0  0  0  0
 49 42  1  0  0  0  0
 57 50  1  0  0  0  0
 91 84  1  0  0  0  0
 99 92  1  0  0  0  0
  1133  1  0  0  0  0
  6134  1  0  0  0  0
  9135  1  0  0  0  0
 10136  1  0  0  0  0
 22137  1  0  0  0  0
 23138  1  0  0  0  0
 26139  1  0  0  0  0
 26140  1  0  0  0  0
 26141  1  0  0  0  0
 27142  1  0  0  0  0
 28143  1  0  0  0  0
 30144  1  0  0  0  0
 31145  1  0  0  0  0
 34146  1  0  0  0  0
 34147  1  0  0  0  0
 34148  1  0  0  0  0
 35149  1  0  0  0  0
 36150  1  0  0  0  0
 43151  1  0  0  0  0
 44152  1  0  0  0  0
 47153  1  0  0  0  0
 47154  1  0  0  0  0
 47155  1  0  0  0  0
 48156  1  0  0  0  0
 49157  1  0  0  0  0
 51158  1  0  0  0  0
 52159  1  0  0  0  0
 55160  1  0  0  0  0
 55161  1  0  0  0  0
 55162  1  0  0  0  0
 56163  1  0  0  0  0
 57164  1  0  0  0  0
 64165  1  0  0  0  0
 65166  1  0  0  0  0
 68167  1  0  0  0  0
 68168  1  0  0  0  0
 68169  1  0  0  0  0
 69170  1  0  0  0  0
 70171  1  0  0  0  0
 72172  1  0  0  0  0
 73173  1  0  0  0  0
 76174  1  0  0  0  0
 76175  1  0  0  0  0
 76176  1  0  0  0  0
 77177  1  0  0  0  0
 78178  1  0  0  0  0
 85179  1  0  0  0  0
 86180  1  0  0  0  0
 89181  1  0  0  0  0
 89182  1  0  0  0  0
 89183  1  0  0  0  0
 90184  1  0  0  0  0
 91185  1  0  0  0  0
 93186  1  0  0  0  0
 94187  1  0  0  0  0
 97188  1  0  0  0  0
 97189  1  0  0  0  0
 97190  1  0  0  0  0
 98191  1  0  0  0  0
 99192  1  0  0  0  0
105193  1  0  0  0  0
108194  1  0  0  0  0
108195  1  0  0  0  0
109196  1  0  0  0  0
109197  1  0  0  0  0
109198  1  0  0  0  0
113199  1  0  0  0  0
114200  1  0  0  0  0
115201  1  0  0  0  0
120202  1  0  0  0  0
123203  1  0  0  0  0
123204  1  0  0  0  0
123205  1  0  0  0  0
124206  1  0  0  0  0
125207  1  0  0  0  0
M  END
