208

C          7.81530        2.39690        1.38660
C          8.99870        1.76670        1.71230
C          9.21620        0.32800        1.86340
O          8.38510       -0.55810        1.96630
C         10.68580        0.14410        1.87660
C         11.40750       -1.02760        1.94810
C         12.79490       -0.93040        1.94290
Cl        13.74030       -2.36950        2.03250
C         13.43090        0.30180        1.86840
C         12.69520        1.47650        1.79630
C         11.31150        1.40030        1.79810
C         10.27830        2.43190        1.74960
C         10.51160        3.78660        1.75850
C         11.78620        4.37650        1.65870
N         12.78100        4.94010        1.54490
C          9.52720        4.78170        1.89830
N          8.80070        5.66130        2.04560
C          6.53920        1.88120        1.18310
C          5.46130        2.62310        0.62620
N          5.56580        3.87100        0.06630
C          4.50370        4.78020        0.18090
C          4.22550        5.67360       -0.85380
C          3.24560        6.62610       -0.70020
C          2.50230        6.69330        0.47700
S          1.30080        7.98430        0.58120
C          0.53860        7.75620        2.21080
C          2.74790        5.78170        1.49300
C          3.74820        4.84090        1.34830
C          6.73680        4.27070       -0.60720
C          7.24460        5.55590       -0.44430
C          8.44930        5.91060       -1.02060
C          9.17190        4.97930       -1.75330
S         10.76970        5.28910       -2.42980
C         11.32030        6.78000       -1.55380
C          8.62690        3.71440       -1.98050
C          7.41800        3.36640       -1.42510
C          4.26960        1.88290        0.67200
S          2.63670        2.16530        0.14300
C          2.18480        0.52540        0.60350
C          3.23290       -0.14360        1.23260
N          3.15080       -1.38270        1.85350
C          4.27190       -2.21500        1.67310
C          4.74560       -2.42050        0.37870
C          5.90490       -3.13390        0.16990
C          6.59860       -3.66780        1.25060
S          8.08920       -4.55310        0.91400
C          9.05290       -4.23140        2.42030
C          6.10380       -3.50470        2.53710
C          4.95420       -2.77260        2.74860
C          2.14030       -1.69120        2.76160
C          1.31670       -0.70510        3.30500
C          0.27730       -1.03870        4.15070
C          0.03860       -2.36650        4.47630
S         -1.28430       -2.89170        5.52500
C         -2.52320       -1.58420        5.28730
C          0.89110       -3.34840        3.98110
C          1.92330       -3.01940        3.13270
C          4.42050        0.61550        1.22290
S          6.04770        0.25600        1.66420
C          0.93470       -0.07480        0.28700
C         -0.34130        0.45680        0.15250
N         -0.72130        1.79140        0.28790
C         -1.93850        1.97590        0.97340
C         -3.00150        2.68850        0.42630
C         -4.21440        2.74690        1.08440
C         -4.38950        2.08230        2.29160
S         -5.92770        2.04610        3.16050
C         -7.13460        2.14040        1.80740
C         -3.31400        1.40860        2.86350
C         -2.10240        1.35590        2.21230
C         -0.23820        2.76940       -0.58090
C         -0.39370        4.11820       -0.26370
C          0.03680        5.10170       -1.12880
C          0.65960        4.75710       -2.32140
S          1.25580        5.94280       -3.48620
C          0.30780        7.43970       -3.08110
C          0.84320        3.41430       -2.63250
C          0.39120        2.43030       -1.78030
C         -1.29910       -0.55510       -0.08800
S         -3.00780       -0.51790       -0.38930
C         -3.01540       -2.26690       -0.56630
C         -1.72010       -2.80890       -0.59090
N         -1.36640       -4.05720       -1.02650
C         -0.15240       -4.60360       -0.53970
C         -0.03050       -4.92970        0.80760
C          1.14990       -5.46060        1.27560
C          2.24300       -5.62280        0.42440
S          3.73060       -6.19820        1.17390
C          4.86240       -6.45460       -0.21730
C          2.11410       -5.31070       -0.92290
C          0.91440       -4.82130       -1.40320
C         -2.06310       -4.75840       -2.01460
C         -2.81700       -4.10310       -2.99000
C         -3.51250       -4.82610       -3.93190
C         -3.46940       -6.21970       -3.93450
S         -4.42200       -7.03350       -5.17430
C         -4.29460       -8.79070       -4.73800
C         -2.69020       -6.87460       -2.98940
C         -1.99640       -6.15030       -2.04180
C         -0.76870       -1.82390       -0.23620
S          0.94510       -1.81960       -0.01070
C         -4.27480       -2.91900       -0.58940
C         -4.50760       -4.24600       -0.22710
F         -3.50650       -5.00800        0.25120
C         -5.78010       -4.80140       -0.24370
F         -5.90510       -6.08690        0.12160
C         -6.93300       -4.07130       -0.52780
C         -6.73990       -2.71070       -0.91250
N         -7.77120       -1.96870       -1.34190
C         -7.57500       -0.72190       -1.71060
C         -8.76220       -0.00000       -2.27520
C         -9.46870        0.86590       -1.23080
C         -6.29260       -0.12900       -1.58950
N         -5.27280       -0.86870       -1.21990
C         -5.43870       -2.15550       -0.91540
C         -5.96940        1.28960       -1.94590
C         -5.38790        1.35050       -3.36090
C         -8.21610       -4.68970       -0.46350
C         -9.41610       -4.12350       -0.16460
C        -10.66600       -4.84210       -0.52870
O        -10.76480       -5.97930       -0.92510
C        -11.75040       -3.85160       -0.34020
C        -13.09210       -3.98220       -0.63050
C        -13.91680       -2.89450       -0.36570
Cl       -15.60210       -3.00340       -0.70750
C        -13.40590       -1.71970        0.17390
C        -12.05670       -1.60150        0.47070
C        -11.21510       -2.67350        0.21160
C         -9.78300       -2.86180        0.43810
C         -9.01590       -2.08480        1.26870
C         -9.46170       -0.89780        1.88070
N         -9.74370        0.09670        2.38380
C         -7.69730       -2.37080        1.67400
N         -6.63360       -2.53010        2.07690
H          7.89460        3.46200        1.21420
H         10.91210       -1.98330        2.00140
H         14.50870        0.34390        1.86590
H         13.20910        2.42200        1.73660
H          4.78870        5.62310       -1.77270
H          3.05170        7.33120       -1.49280
H          0.07360        6.77640        2.26830
H          1.28400        7.88880        2.98940
H         -0.21830        8.53050        2.29020
H          2.18800        5.80410        2.41360
H          3.96310        4.16520        2.16270
H          6.71460        6.27090        0.16480
H          8.82570        6.90690       -0.85990
H         10.76720        7.64800       -1.90060
H         11.20700        6.63770       -0.48320
H         12.37170        6.89070       -1.79960
H          9.17130        3.01090       -2.59120
H          7.00710        2.38200       -1.59250
H          4.20370       -1.99700       -0.45490
H          6.29550       -3.26860       -0.82790
H          8.73460       -4.88860        3.22470
H         10.08790       -4.44260        2.16800
H          8.92330       -3.18700        2.69000
H          6.61710       -3.93140        3.38330
H          4.59080       -2.61710        3.75310
H          1.49480        0.33550        3.07720
H         -0.33420       -0.25300        4.56710
H         -2.23980       -0.68680        5.83060
H         -2.63410       -1.38740        4.22520
H         -3.45200       -1.97640        5.68940
H          0.72270       -4.37550        4.26500
H          2.56460       -3.79010        2.73750
H         -2.88320        3.17730       -0.52950
H         -5.02670        3.30470        0.64510
H         -6.81650        1.47530        1.00970
H         -8.07830        1.79670        2.22230
H         -7.23550        3.16270        1.45440
H         -3.45320        0.91840        3.81440
H         -1.27460        0.80770        2.63700
H         -0.86730        4.39150        0.66770
H         -0.11300        6.13530       -0.86530
H          0.64970        7.87060       -2.14420
H         -0.74880        7.19440       -3.03660
H          0.49390        8.13370       -3.89470
H          1.32820        3.15010       -3.55960
H          0.50730        1.39150       -2.05020
H         -0.87020       -4.78430        1.46930
H          1.24200       -5.76020        2.30700
H          5.05590       -5.50950       -0.71470
H          4.44770       -7.19160       -0.89870
H          5.78420       -6.82720        0.21850
H          2.93770       -5.44030       -1.60580
H          0.80660       -4.58720       -2.45220
H         -2.85340       -3.02470       -3.01520
H         -4.09900       -4.31800       -4.68190
H         -4.64240       -8.94240       -3.72060
H         -4.94590       -9.31160       -5.43290
H         -3.27230       -9.13540       -4.86410
H         -2.62220       -7.94980       -2.97120
H         -1.41310       -6.66760       -1.29580
H         -9.46250       -0.75250       -2.64170
H         -8.44580        0.62260       -3.11360
H        -10.32280        1.36400       -1.68250
H         -9.82340        0.25150       -0.40940
H         -8.80370        1.62290       -0.82140
H         -6.85300        1.92260       -1.87900
H         -5.21260        1.64510       -1.24460
H         -4.48380        0.74950       -3.41200
H         -6.09940        0.97000       -4.09100
H         -5.14050        2.37680       -3.61950
H         -8.25470       -5.74310       -0.72500
H        -13.47990       -4.89950       -1.04440
H        -14.07130       -0.89270        0.36650
H        -11.68940       -0.68040        0.89350
