107

C          6.61830        2.65840        0.26310
C          7.42490        1.68990        0.74880
C          6.93430        0.45330        1.42330
O          5.79150        0.10040        1.59690
C          8.14880       -0.21470        1.93900
C          8.23080       -1.39490        2.65010
C          9.49320       -1.82620        3.03910
Cl         9.65480       -3.29720        3.91920
C         10.63150       -1.08730        2.72970
C         10.53960        0.09860        2.01950
C          9.28760        0.54350        1.61400
C          8.87770        1.71920        0.85560
C          9.71440        2.63440        0.28070
C         11.12170        2.59940        0.39220
N         12.26740        2.62570        0.44950
C          9.30130        3.71870       -0.52540
N          9.05380        4.60750       -1.20730
C          5.18590        2.51480        0.07880
C          4.33850        3.52160        0.53530
F          4.87260        4.58550        1.15600
C          2.96510        3.39860        0.42930
F          2.16270        4.33290        0.96290
C          2.41390        2.28410       -0.19160
C          3.25190        1.29990       -0.73580
O          2.68090        0.22950       -1.38580
C          2.10930        0.51520       -2.66340
C          1.03290       -0.51510       -2.95650
C          4.64340        1.39640       -0.59450
O          5.55340        0.55090       -1.10800
C          5.21750       -0.77970       -1.48420
C          6.51940       -1.56360       -1.55440
C          0.94980        2.12000       -0.27580
C          0.35900        0.98620        0.27570
C         -1.00940        0.78140        0.17570
O         -1.67580       -0.28930        0.66070
C         -0.95120       -1.36950        1.22080
C         -1.96010       -2.45910        1.54830
C         -1.80050        1.72810       -0.50020
C         -1.22250        2.85730       -1.04310
C          0.14270        3.04770       -0.92010
F          0.70400        4.12790       -1.50220
C         -3.24140        1.41650       -0.63770
C         -3.70010        0.77660       -1.77570
F         -2.85380        0.55360       -2.79610
C         -5.01430        0.35790       -1.86320
F         -5.46050       -0.22270       -2.99510
C         -5.89070        0.55800       -0.79890
C         -5.44000        1.20930        0.35980
O         -6.28300        1.40040        1.42730
C         -6.87820        0.24460        2.00610
C         -5.87090       -0.84980        2.33220
C         -4.10870        1.65340        0.44020
O         -3.52770        2.29930        1.46660
C         -4.26070        2.81000        2.57220
C         -3.32560        3.75030        3.31730
C         -7.27520        0.11130       -0.94680
C         -7.60040       -1.15000       -1.29250
C         -6.61300       -2.26950       -1.37910
O         -5.49930       -2.29920       -0.91210
C         -7.33200       -3.36300       -2.06120
C         -6.83450       -4.57800       -2.48610
C         -7.71590       -5.45070       -3.11340
Cl        -7.14800       -6.97560       -3.67130
C         -9.05350       -5.11100       -3.30020
C         -9.54750       -3.89360       -2.86250
C         -8.68270       -3.00620       -2.23380
C         -8.90620       -1.67910       -1.67550
C        -10.11450       -1.06580       -1.50730
C        -10.29520        0.19040       -0.88710
N        -10.50760        1.19390       -0.37310
C        -11.35030       -1.63490       -1.88740
N        -12.38200       -2.04740       -2.17210
H          7.02430        3.63410        0.02590
H          7.34130       -1.95650        2.88870
H         11.59690       -1.44580        3.05070
H         11.43540        0.65530        1.79820
H          1.68540        1.52400       -2.67650
H          2.90330        0.46860       -3.42420
H          1.44730       -1.51670       -2.87950
H          0.64570       -0.36390       -3.95960
H          0.21510       -0.41560       -2.24820
H          4.54170       -1.21580       -0.74390
H          4.72650       -0.78200       -2.46380
H          6.32090       -2.57210       -1.90520
H          7.20940       -1.07740       -2.23900
H          6.98230       -1.61500       -0.57220
H          0.99700        0.27400        0.77260
H         -0.42640       -1.04430        2.12930
H         -0.21050       -1.73750        0.49830
H         -1.44670       -3.34290        1.91500
H         -2.52720       -2.71410        0.65710
H         -2.65500       -2.10910        2.30650
H         -1.81770        3.58450       -1.57150
H         -7.35140        0.62550        2.91460
H         -7.66230       -0.14960        1.34640
H         -5.07610       -0.45780        2.96300
H         -5.42640       -1.24800        1.42200
H         -6.37220       -1.65610        2.86050
H         -5.15040        3.34330        2.22420
H         -4.57630        1.99130        3.22840
H         -3.01830        4.56460        2.66730
H         -3.83100        4.15890        4.18730
H         -2.43690        3.21400        3.63810
H         -8.03250        0.87730       -0.83530
H         -5.79600       -4.82890       -2.33920
H         -9.71090       -5.80940       -3.79380
H        -10.58590       -3.65240       -3.02100
