194

C         -5.92430       -2.19000       -2.46570
C         -6.58040       -2.60710       -3.60730
C         -5.98030       -2.86150       -4.91160
O         -4.83100       -2.65220       -5.27300
C         -7.04440       -3.48370       -5.73180
C         -6.98130       -3.92940       -7.03480
C         -8.13790       -4.46630       -7.58940
Cl        -8.10740       -5.03080       -9.21920
C         -9.31400       -4.55410       -6.85700
C         -9.36590       -4.10950       -5.54330
C         -8.22360       -3.57190       -4.97150
C         -7.96380       -3.01780       -3.64300
C         -8.89460       -2.90090       -2.63840
C         -8.68970       -2.26630       -1.39800
N         -8.61510       -1.73470       -0.38100
C        -10.21420       -3.38770       -2.72810
N        -11.29530       -3.77530       -2.73430
C         -4.62890       -1.72730       -2.28210
C         -4.06970       -1.43350       -1.01070
N         -4.60070       -1.76370        0.19790
C         -5.43900       -2.87560        0.42050
C         -5.20900       -4.09050       -0.21780
C         -6.03850       -5.16860        0.01280
C         -7.10290       -5.05290        0.90030
S         -8.23630       -6.35170        1.26170
C         -7.69010       -7.72210        0.20270
C         -7.30920       -3.84710        1.56810
C         -6.48880       -2.76680        1.33140
C         -4.16040       -1.06470        1.34420
C         -4.22280        0.32400        1.39050
C         -3.73340        1.01230        2.48400
C         -3.17350        0.31650        3.54810
S         -2.45200        1.08070        4.95890
C         -2.63230        2.85630        4.64250
C         -3.15770       -1.07920        3.52250
C         -3.64860       -1.76470        2.43570
C         -2.83990       -0.76400       -1.15860
S         -1.69330       -0.15510       -0.02020
C         -0.60120        0.26110       -1.33080
C         -1.15320        0.04690       -2.58390
N         -0.56510        0.49270       -3.74940
C          0.26470        1.63180       -3.71490
C         -0.07160        2.75190       -2.96110
C          0.74070        3.86820       -2.95440
C          1.89460        3.89070       -3.72520
S          2.98250        5.27960       -3.79740
C          1.95930        6.64410       -3.17160
C          2.23140        2.77540       -4.48930
C          1.42660        1.65610       -4.48340
C         -1.00660        0.04900       -5.00750
C         -1.21910       -1.30390       -5.24610
C         -1.71350       -1.73760       -6.45980
C         -2.00710       -0.81780       -7.45560
S         -2.71480       -1.28610       -9.00200
C         -3.62920       -2.79000       -8.54560
C         -1.73800        0.53190       -7.24460
C         -1.24440        0.96370       -6.03390
C         -2.42390       -0.58220       -2.47250
S         -3.54440       -1.26400       -3.59990
C          0.70030        0.74240       -0.95600
C          1.93200        0.13420       -1.13590
N          2.16590       -1.02840       -1.84690
C          3.41030       -1.20790       -2.47240
C          4.05770       -0.13990       -3.08560
C          5.29070       -0.31130       -3.68550
C          5.89660       -1.55960       -3.68490
S          7.46400       -1.90440       -4.41730
C          8.08810       -0.27030       -4.90280
C          5.24520       -2.63450       -3.08100
C          4.02020       -2.46280       -2.47890
C          1.20340       -2.04390       -1.90170
C          1.00180       -2.75590       -3.08050
C         -0.00550       -3.69780       -3.16830
C         -0.84820       -3.91960       -2.08780
S         -2.22860       -5.02240       -2.16050
C         -2.70880       -4.97580       -3.91270
C         -0.59890       -3.27070       -0.88230
C          0.42870       -2.35770       -0.78420
C          2.94840        0.83880       -0.44220
S          4.62190        0.54910       -0.11980
C          4.70590        1.97250        0.88950
C          3.49470        2.65760        0.94110
N          3.21550        3.81100        1.68640
C          3.56800        5.05400        1.17820
C          3.88250        5.18470       -0.17490
C          4.31490        6.38830       -0.68920
C          4.41790        7.50120        0.13310
S          4.94920        9.08760       -0.43740
C          5.83000        8.69470       -1.97730
C          4.07780        7.38790        1.47830
C          3.66870        6.18040        1.99990
C          2.49700        3.63110        2.87530
C          2.80080        2.55340        3.70510
C          2.14200        2.37280        4.90410
C          1.15260        3.26480        5.29360
S          0.28470        3.16750        6.82630
C          0.84280        1.60070        7.54540
C          0.81520        4.32200        4.44790
C          1.47170        4.50160        3.25150
C          2.49710        1.96450        0.22990
S          0.79150        2.16420        0.08170
C          5.78860        2.13780        1.81020
C          6.24550        1.03100        2.55780
C          6.91700        1.19370        3.83080
N          7.19740        0.01790        4.38810
S          6.64730       -1.15760        3.44650
N          6.03310       -0.25390        2.27170
C          7.21940        2.46330        4.36870
C          7.02810        3.53820        3.47580
N          7.37560        4.80860        3.68050
S          6.89480        5.69420        2.42900
N          6.19660        4.53440        1.57440
C          6.30200        3.37930        2.23070
C          7.65550        2.66520        5.70200
C          7.20070        1.94080        6.77050
C          5.92540        1.19060        6.77950
O          5.13800        1.01490        5.87150
C          5.70550        0.81120        8.19380
C          4.64070        0.12090        8.73440
C          4.64040       -0.08900       10.10840
Cl         3.32950       -0.94410       10.83290
C          5.67520        0.38110       10.90810
C          6.74220        1.07420       10.35530
C          6.76040        1.29440        8.98600
C          7.71830        1.97760        8.12070
C          8.93130        2.48510        8.50720
C          9.87890        3.05120        7.62810
N         10.71070        3.50340        6.97850
C          9.40280        2.47670        9.83570
N          9.83520        2.50110       10.89900
H         -6.50900       -2.22820       -1.55640
H         -6.06790       -3.86230       -7.60300
H        -10.19560       -4.97340       -7.31570
H        -10.28930       -4.18990       -4.99390
H         -4.37680       -4.19440       -0.89680
H         -5.83260       -6.09530       -0.49750
H         -8.38450       -8.53340        0.39750
H         -7.74870       -7.43100       -0.84200
H         -6.68350       -8.02620        0.47430
H         -8.13170       -3.76320        2.26030
H         -6.66490       -1.83120        1.83790
H         -4.65220        0.86550        0.56040
H         -3.78820        2.08830        2.48800
H         -2.08750        3.12620        3.74220
H         -3.68440        3.11480        4.56920
H         -2.18840        3.34810        5.50290
H         -2.74030       -1.61330        4.36190
H         -3.62250       -2.84380        2.41190
H         -0.98020        2.75300       -2.37750
H          0.46000        4.71320       -2.34690
H          1.84220        6.56600       -2.09410
H          2.49600        7.55600       -3.41460
H          1.00010        6.63750       -3.68010
H          3.12880        2.79960       -5.08860
H          1.68420        0.79550       -5.08240
H         -0.98420       -2.01640       -4.47370
H         -1.87120       -2.79210       -6.61610
H         -4.05280       -2.64880       -7.55470
H         -4.41110       -2.90060       -9.29130
H         -2.97250       -3.65570       -8.57320
H         -1.94580        1.23960       -8.03230
H         -1.06560        2.01580       -5.86860
H          3.58950        0.83290       -3.10120
H          5.76080        0.53840       -4.15310
H          8.12120        0.38310       -4.03600
H          9.09320       -0.44130       -5.27560
H          7.47060        0.14850       -5.69210
H          5.72120       -3.60290       -3.08180
H          3.53020       -3.29750       -2.00060
H          1.62620       -2.55620       -3.93860
H         -0.13780       -4.24240       -4.09020
H         -2.83950       -3.94620       -4.23380
H         -1.97430       -5.49510       -4.52120
H         -3.65900       -5.49880       -3.96810
H         -1.21930       -3.48620       -0.02560
H          0.62880       -1.87010        0.15790
H          3.80490        4.33060       -0.83040
H          4.56550        6.44260       -1.73590
H          5.12800        8.43110       -2.76310
H          6.36290        9.59960       -2.25180
H          6.53290        7.88770       -1.79520
H          4.15970        8.25420        2.11680
H          3.45760        6.09890        3.05530
H          3.58160        1.86050        3.43340
H          2.43770        1.54520        5.52650
H          0.60560        0.78690        6.86670
H          1.90670        1.65010        7.75990
H          0.28460        1.48670        8.46950
H          0.03220        5.00330        4.74530
H          1.19280        5.31470        2.59860
H          8.32580        3.50070        5.85980
H          3.84380       -0.24780        8.10760
H          5.64430        0.20480       11.97180
H          7.53060        1.43450       10.99570
