
  xtb     02062203513D
 energy: -425.856266571780 gnorm: 0.000732538016 xtb: 6.4.1 (unknown)
252273  0     0  0            999 V2000
   -1.6371   -8.5200    3.2144 C   0  0  0  0  0  0  0  0  0  0  0  0
   -0.6549   -8.9965    4.0675 C   0  0  0  0  0  0  0  0  0  0  0  0
    0.7636   -8.6637    3.9366 C   0  0  0  0  0  0  0  0  0  0  0  0
    1.2852   -7.9403    3.1029 O   0  0  0  0  0  0  0  0  0  0  0  0
    1.4632   -9.5040    4.9364 C   0  0  0  0  0  0  0  0  0  0  0  0
    2.8068   -9.5517    5.2358 C   0  0  0  0  0  0  0  0  0  0  0  0
    3.2068  -10.4075    6.2572 C   0  0  0  0  0  0  0  0  0  0  0  0
    4.8759  -10.4872    6.6850 Cl  0  0  0  0  0  0  0  0  0  0  0  0
    2.2906  -11.1924    6.9432 C   0  0  0  0  0  0  0  0  0  0  0  0
    0.9398  -11.1447    6.6268 C   0  0  0  0  0  0  0  0  0  0  0  0
    0.5220  -10.2949    5.6173 C   0  0  0  0  0  0  0  0  0  0  0  0
   -0.8061   -9.9872    5.0924 C   0  0  0  0  0  0  0  0  0  0  0  0
   -1.9992  -10.4334    5.6085 C   0  0  0  0  0  0  0  0  0  0  0  0
   -2.1129  -11.3514    6.6677 C   0  0  0  0  0  0  0  0  0  0  0  0
   -2.2818  -12.0825    7.5383 N   0  0  0  0  0  0  0  0  0  0  0  0
   -3.2571   -9.9474    5.2026 C   0  0  0  0  0  0  0  0  0  0  0  0
   -4.3098   -9.5515    4.9673 N   0  0  0  0  0  0  0  0  0  0  0  0
   -1.6058   -7.3046    2.5382 C   0  0  0  0  0  0  0  0  0  0  0  0
   -0.9093   -6.1008    2.8071 C   0  0  0  0  0  0  0  0  0  0  0  0
   -0.2122   -5.7901    3.9333 N   0  0  0  0  0  0  0  0  0  0  0  0
   -0.4083   -6.4037    5.1743 C   0  0  0  0  0  0  0  0  0  0  0  0
   -1.6832   -6.7489    5.6203 C   0  0  0  0  0  0  0  0  0  0  0  0
   -1.8600   -7.3851    6.8312 C   0  0  0  0  0  0  0  0  0  0  0  0
   -0.7597   -7.6963    7.6243 C   0  0  0  0  0  0  0  0  0  0  0  0
   -0.8477   -8.5821    9.1398 S   0  0  0  0  0  0  0  0  0  0  0  0
   -2.6199   -8.8804    9.3868 C   0  0  0  0  0  0  0  0  0  0  0  0
    0.5113   -7.3009    7.2078 C   0  0  0  0  0  0  0  0  0  0  0  0
    0.6867   -6.6569    6.0041 C   0  0  0  0  0  0  0  0  0  0  0  0
    0.7632   -4.7530    3.8846 C   0  0  0  0  0  0  0  0  0  0  0  0
    1.9892   -4.9823    3.2704 C   0  0  0  0  0  0  0  0  0  0  0  0
    2.9511   -3.9966    3.2721 C   0  0  0  0  0  0  0  0  0  0  0  0
    2.6958   -2.7590    3.8632 C   0  0  0  0  0  0  0  0  0  0  0  0
    3.9927   -1.5732    3.7691 S   0  0  0  0  0  0  0  0  0  0  0  0
    3.3994   -0.1853    4.7712 C   0  0  0  0  0  0  0  0  0  0  0  0
    1.4713   -2.5349    4.4798 C   0  0  0  0  0  0  0  0  0  0  0  0
    0.5163   -3.5347    4.5024 C   0  0  0  0  0  0  0  0  0  0  0  0
   -1.1363   -5.1653    1.7732 C   0  0  0  0  0  0  0  0  0  0  0  0
   -0.6276   -3.5370    1.4902 S   0  0  0  0  0  0  0  0  0  0  0  0
   -1.5949   -3.4495    0.0133 C   0  0  0  0  0  0  0  0  0  0  0  0
   -2.3242   -4.6098   -0.1926 C   0  0  0  0  0  0  0  0  0  0  0  0
   -3.1901   -4.8679   -1.2502 N   0  0  0  0  0  0  0  0  0  0  0  0
   -4.2913   -4.0368   -1.4743 C   0  0  0  0  0  0  0  0  0  0  0  0
   -4.8811   -3.3459   -0.4175 C   0  0  0  0  0  0  0  0  0  0  0  0
   -5.9817   -2.5393   -0.6306 C   0  0  0  0  0  0  0  0  0  0  0  0
   -6.5115   -2.4137   -1.9053 C   0  0  0  0  0  0  0  0  0  0  0  0
   -7.9477   -1.4437   -2.2478 S   0  0  0  0  0  0  0  0  0  0  0  0
   -7.9033   -0.1854   -0.9388 C   0  0  0  0  0  0  0  0  0  0  0  0
   -5.9305   -3.1042   -2.9655 C   0  0  0  0  0  0  0  0  0  0  0  0
   -4.8282   -3.9009   -2.7554 C   0  0  0  0  0  0  0  0  0  0  0  0
   -3.0996   -6.1345   -1.8505 C   0  0  0  0  0  0  0  0  0  0  0  0
   -1.8467   -6.7220   -2.0006 C   0  0  0  0  0  0  0  0  0  0  0  0
   -1.7053   -7.9736   -2.5642 C   0  0  0  0  0  0  0  0  0  0  0  0
   -2.8278   -8.6649   -2.9969 C   0  0  0  0  0  0  0  0  0  0  0  0
   -2.7758  -10.2647   -3.7401 S   0  0  0  0  0  0  0  0  0  0  0  0
   -1.0176  -10.7126   -3.6784 C   0  0  0  0  0  0  0  0  0  0  0  0
   -4.0862   -8.0839   -2.8472 C   0  0  0  0  0  0  0  0  0  0  0  0
   -4.2259   -6.8385   -2.2761 C   0  0  0  0  0  0  0  0  0  0  0  0
   -2.0324   -5.5778    0.7991 C   0  0  0  0  0  0  0  0  0  0  0  0
   -2.6279   -7.1665    1.0952 S   0  0  0  0  0  0  0  0  0  0  0  0
   -1.4965   -2.2268   -0.7237 C   0  0  0  0  0  0  0  0  0  0  0  0
   -0.3173   -1.5076   -0.8607 C   0  0  0  0  0  0  0  0  0  0  0  0
    0.9488   -1.9566   -0.5100 N   0  0  0  0  0  0  0  0  0  0  0  0
    1.7931   -1.0561    0.1499 C   0  0  0  0  0  0  0  0  0  0  0  0
    3.1587   -1.0108   -0.1129 C   0  0  0  0  0  0  0  0  0  0  0  0
    3.9604   -0.0603    0.4888 C   0  0  0  0  0  0  0  0  0  0  0  0
    3.4056    0.8754    1.3505 C   0  0  0  0  0  0  0  0  0  0  0  0
    4.3168    2.1610    2.1492 S   0  0  0  0  0  0  0  0  0  0  0  0
    5.9578    2.0893    1.3796 C   0  0  0  0  0  0  0  0  0  0  0  0
    2.0437    0.8182    1.6368 C   0  0  0  0  0  0  0  0  0  0  0  0
    1.2500   -0.1447    1.0576 C   0  0  0  0  0  0  0  0  0  0  0  0
    1.3397   -3.2602   -0.8298 C   0  0  0  0  0  0  0  0  0  0  0  0
    2.1647   -3.9788    0.0302 C   0  0  0  0  0  0  0  0  0  0  0  0
    2.4374   -5.3112   -0.2037 C   0  0  0  0  0  0  0  0  0  0  0  0
    1.9008   -5.9465   -1.3146 C   0  0  0  0  0  0  0  0  0  0  0  0
    2.0840   -7.6748   -1.6317 S   0  0  0  0  0  0  0  0  0  0  0  0
    2.6396   -8.3420   -0.0379 C   0  0  0  0  0  0  0  0  0  0  0  0
    1.1598   -5.2039   -2.2327 C   0  0  0  0  0  0  0  0  0  0  0  0
    0.8705   -3.8794   -1.9884 C   0  0  0  0  0  0  0  0  0  0  0  0
   -0.5521   -0.2327   -1.4218 C   0  0  0  0  0  0  0  0  0  0  0  0
    0.4558    1.1294   -1.7270 S   0  0  0  0  0  0  0  0  0  0  0  0
   -0.9478    2.0679   -2.2363 C   0  0  0  0  0  0  0  0  0  0  0  0
   -2.1169    1.3461   -2.1796 C   0  0  0  0  0  0  0  0  0  0  0  0
   -3.3701    1.8673   -2.4810 N   0  0  0  0  0  0  0  0  0  0  0  0
   -3.7016    3.1038   -1.9046 C   0  0  0  0  0  0  0  0  0  0  0  0
   -4.3789    4.0950   -2.6141 C   0  0  0  0  0  0  0  0  0  0  0  0
   -4.6474    5.3099   -2.0250 C   0  0  0  0  0  0  0  0  0  0  0  0
   -4.2531    5.5707   -0.7131 C   0  0  0  0  0  0  0  0  0  0  0  0
   -4.6409    7.1679   -0.0753 S   0  0  0  0  0  0  0  0  0  0  0  0
   -4.1243    7.0790    1.6592 C   0  0  0  0  0  0  0  0  0  0  0  0
   -3.5949    4.5816    0.0035 C   0  0  0  0  0  0  0  0  0  0  0  0
   -3.3284    3.3618   -0.5878 C   0  0  0  0  0  0  0  0  0  0  0  0
   -4.2246    1.1493   -3.3168 C   0  0  0  0  0  0  0  0  0  0  0  0
   -3.7141    0.1556   -4.1541 C   0  0  0  0  0  0  0  0  0  0  0  0
   -4.5522   -0.5775   -4.9619 C   0  0  0  0  0  0  0  0  0  0  0  0
   -5.9173   -0.3128   -4.9940 C   0  0  0  0  0  0  0  0  0  0  0  0
   -6.8886   -1.2930   -6.0973 S   0  0  0  0  0  0  0  0  0  0  0  0
   -8.5539   -0.5993   -5.9460 C   0  0  0  0  0  0  0  0  0  0  0  0
   -6.4313    0.6802   -4.1738 C   0  0  0  0  0  0  0  0  0  0  0  0
   -5.5972    1.3856   -3.3296 C   0  0  0  0  0  0  0  0  0  0  0  0
   -1.8767    0.0201   -1.7256 C   0  0  0  0  0  0  0  0  0  0  0  0
   -2.8798   -1.3487   -1.3764 S   0  0  0  0  0  0  0  0  0  0  0  0
   -0.6607    3.4608   -2.4992 C   0  0  0  0  0  0  0  0  0  0  0  0
   -0.1541    3.9892   -3.6651 C   0  0  0  0  0  0  0  0  0  0  0  0
   -0.1456    3.3214   -4.8871 N   0  0  0  0  0  0  0  0  0  0  0  0
   -1.3572    2.9390   -5.4783 C   0  0  0  0  0  0  0  0  0  0  0  0
   -2.4930    3.7351   -5.3381 C   0  0  0  0  0  0  0  0  0  0  0  0
   -3.6631    3.3901   -5.9767 C   0  0  0  0  0  0  0  0  0  0  0  0
   -3.7354    2.2390   -6.7565 C   0  0  0  0  0  0  0  0  0  0  0  0
   -5.2872    1.9225   -7.5308 S   0  0  0  0  0  0  0  0  0  0  0  0
   -4.9746    0.4761   -8.5782 C   0  0  0  0  0  0  0  0  0  0  0  0
   -2.6131    1.4312   -6.8802 C   0  0  0  0  0  0  0  0  0  0  0  0
   -1.4361    1.7808   -6.2464 C   0  0  0  0  0  0  0  0  0  0  0  0
    1.0552    3.3105   -5.6067 C   0  0  0  0  0  0  0  0  0  0  0  0
    2.2681    3.2119   -4.9213 C   0  0  0  0  0  0  0  0  0  0  0  0
    3.4598    3.2394   -5.6086 C   0  0  0  0  0  0  0  0  0  0  0  0
    3.4735    3.3502   -6.9973 C   0  0  0  0  0  0  0  0  0  0  0  0
    5.0633    3.3742   -7.7680 S   0  0  0  0  0  0  0  0  0  0  0  0
    4.6926    3.5607   -9.5353 C   0  0  0  0  0  0  0  0  0  0  0  0
    2.2708    3.4332   -7.6844 C   0  0  0  0  0  0  0  0  0  0  0  0
    1.0743    3.4209   -6.9938 C   0  0  0  0  0  0  0  0  0  0  0  0
    0.4253    5.2659   -3.4453 C   0  0  0  0  0  0  0  0  0  0  0  0
    1.3329    6.3703   -4.4117 S   0  0  0  0  0  0  0  0  0  0  0  0
    1.7456    7.3111   -2.9925 C   0  0  0  0  0  0  0  0  0  0  0  0
    1.1382    6.8281   -1.8427 C   0  0  0  0  0  0  0  0  0  0  0  0
    1.2101    7.4291   -0.5825 N   0  0  0  0  0  0  0  0  0  0  0  0
    2.3965    7.2516    0.1558 C   0  0  0  0  0  0  0  0  0  0  0  0
    2.8996    5.9661    0.3456 C   0  0  0  0  0  0  0  0  0  0  0  0
    4.0982    5.7837    0.9993 C   0  0  0  0  0  0  0  0  0  0  0  0
    4.8208    6.8789    1.4638 C   0  0  0  0  0  0  0  0  0  0  0  0
    6.3813    6.5259    2.2099 S   0  0  0  0  0  0  0  0  0  0  0  0
    7.0128    8.1471    2.7198 C   0  0  0  0  0  0  0  0  0  0  0  0
    4.3112    8.1603    1.2963 C   0  0  0  0  0  0  0  0  0  0  0  0
    3.1026    8.3416    0.6505 C   0  0  0  0  0  0  0  0  0  0  0  0
    0.1257    8.1382   -0.0855 C   0  0  0  0  0  0  0  0  0  0  0  0
    0.0388    8.4444    1.2726 C   0  0  0  0  0  0  0  0  0  0  0  0
   -1.0117    9.1939    1.7634 C   0  0  0  0  0  0  0  0  0  0  0  0
   -2.0065    9.6467    0.9081 C   0  0  0  0  0  0  0  0  0  0  0  0
   -3.3853   10.6223    1.4330 S   0  0  0  0  0  0  0  0  0  0  0  0
   -2.8704   11.2365    3.0645 C   0  0  0  0  0  0  0  0  0  0  0  0
   -1.9512    9.3057   -0.4408 C   0  0  0  0  0  0  0  0  0  0  0  0
   -0.9015    8.5636   -0.9328 C   0  0  0  0  0  0  0  0  0  0  0  0
    0.3739    5.6763   -2.1229 C   0  0  0  0  0  0  0  0  0  0  0  0
   -0.4722    4.5509   -1.1289 S   0  0  0  0  0  0  0  0  0  0  0  0
    2.5679    8.4764   -3.1147 C   0  0  0  0  0  0  0  0  0  0  0  0
    3.7419    8.6086   -2.4416 C   0  0  0  0  0  0  0  0  0  0  0  0
    4.5122    7.4334   -1.9602 C   0  0  0  0  0  0  0  0  0  0  0  0
    4.1717    6.2722   -1.9825 O   0  0  0  0  0  0  0  0  0  0  0  0
    5.8298    7.9698   -1.5614 C   0  0  0  0  0  0  0  0  0  0  0  0
    6.9195    7.2783   -1.0742 C   0  0  0  0  0  0  0  0  0  0  0  0
    8.0525    8.0143   -0.7455 C   0  0  0  0  0  0  0  0  0  0  0  0
    9.4340    7.2052   -0.1098 Cl  0  0  0  0  0  0  0  0  0  0  0  0
    8.0889    9.3948   -0.9149 C   0  0  0  0  0  0  0  0  0  0  0  0
    6.9930   10.0797   -1.4181 C   0  0  0  0  0  0  0  0  0  0  0  0
    5.8495    9.3644   -1.7444 C   0  0  0  0  0  0  0  0  0  0  0  0
    4.5575    9.7920   -2.2673 C   0  0  0  0  0  0  0  0  0  0  0  0
    4.1370   11.0835   -2.4477 C   0  0  0  0  0  0  0  0  0  0  0  0
    4.9405   12.2167   -2.2099 C   0  0  0  0  0  0  0  0  0  0  0  0
    5.5549   13.1690   -2.0269 N   0  0  0  0  0  0  0  0  0  0  0  0
    2.8294   11.4300   -2.8486 C   0  0  0  0  0  0  0  0  0  0  0  0
    1.7747   11.7709   -3.1471 N   0  0  0  0  0  0  0  0  0  0  0  0
   -2.4959   -9.1498    3.0138 H   0  0  0  0  0  0  0  0  0  0  0  0
    3.5172   -8.9380    4.7049 H   0  0  0  0  0  0  0  0  0  0  0  0
    2.6338  -11.8446    7.7306 H   0  0  0  0  0  0  0  0  0  0  0  0
    0.2444  -11.7647    7.1686 H   0  0  0  0  0  0  0  0  0  0  0  0
   -2.5467   -6.5241    5.0125 H   0  0  0  0  0  0  0  0  0  0  0  0
   -2.8606   -7.6428    7.1386 H   0  0  0  0  0  0  0  0  0  0  0  0
   -2.6930   -9.4052   10.3342 H   0  0  0  0  0  0  0  0  0  0  0  0
   -3.1506   -7.9348    9.4457 H   0  0  0  0  0  0  0  0  0  0  0  0
   -3.0106   -9.5101    8.5933 H   0  0  0  0  0  0  0  0  0  0  0  0
    1.3600   -7.5229    7.8359 H   0  0  0  0  0  0  0  0  0  0  0  0
    1.6755   -6.3635    5.6870 H   0  0  0  0  0  0  0  0  0  0  0  0
    2.1728   -5.9470    2.8255 H   0  0  0  0  0  0  0  0  0  0  0  0
    3.9190   -4.1715    2.8265 H   0  0  0  0  0  0  0  0  0  0  0  0
    2.5045    0.2355    4.3235 H   0  0  0  0  0  0  0  0  0  0  0  0
    4.1947    0.5532    4.7501 H   0  0  0  0  0  0  0  0  0  0  0  0
    3.2234   -0.5159    5.7906 H   0  0  0  0  0  0  0  0  0  0  0  0
    1.2501   -1.5902    4.9487 H   0  0  0  0  0  0  0  0  0  0  0  0
   -0.4301   -3.3664    4.9946 H   0  0  0  0  0  0  0  0  0  0  0  0
   -4.4843   -3.4545    0.5814 H   0  0  0  0  0  0  0  0  0  0  0  0
   -6.4259   -2.0290    0.2092 H   0  0  0  0  0  0  0  0  0  0  0  0
   -6.8948    0.2104   -0.8652 H   0  0  0  0  0  0  0  0  0  0  0  0
   -8.5906    0.5961   -1.2473 H   0  0  0  0  0  0  0  0  0  0  0  0
   -8.2337   -0.6078    0.0057 H   0  0  0  0  0  0  0  0  0  0  0  0
   -6.3497   -3.0085   -3.9544 H   0  0  0  0  0  0  0  0  0  0  0  0
   -4.3725   -4.4233   -3.5824 H   0  0  0  0  0  0  0  0  0  0  0  0
   -0.9683   -6.1912   -1.6676 H   0  0  0  0  0  0  0  0  0  0  0  0
   -0.7138   -8.3856   -2.6572 H   0  0  0  0  0  0  0  0  0  0  0  0
   -0.9563  -11.7119   -4.0981 H   0  0  0  0  0  0  0  0  0  0  0  0
   -0.6739  -10.7219   -2.6484 H   0  0  0  0  0  0  0  0  0  0  0  0
   -0.4342  -10.0228   -4.2810 H   0  0  0  0  0  0  0  0  0  0  0  0
   -4.9574   -8.6302   -3.1744 H   0  0  0  0  0  0  0  0  0  0  0  0
   -5.2098   -6.4142   -2.1472 H   0  0  0  0  0  0  0  0  0  0  0  0
    3.5924   -1.7165   -0.8054 H   0  0  0  0  0  0  0  0  0  0  0  0
    5.0147   -0.0531    0.2652 H   0  0  0  0  0  0  0  0  0  0  0  0
    6.4544    1.1611    1.6475 H   0  0  0  0  0  0  0  0  0  0  0  0
    6.5080    2.9339    1.7849 H   0  0  0  0  0  0  0  0  0  0  0  0
    5.8609    2.1915    0.3025 H   0  0  0  0  0  0  0  0  0  0  0  0
    1.6171    1.5445    2.3128 H   0  0  0  0  0  0  0  0  0  0  0  0
    0.1972   -0.1936    1.2949 H   0  0  0  0  0  0  0  0  0  0  0  0
    2.5610   -3.4925    0.9070 H   0  0  0  0  0  0  0  0  0  0  0  0
    3.0573   -5.8474    0.4954 H   0  0  0  0  0  0  0  0  0  0  0  0
    3.6675   -8.0470    0.1536 H   0  0  0  0  0  0  0  0  0  0  0  0
    1.9781   -8.0132    0.7592 H   0  0  0  0  0  0  0  0  0  0  0  0
    2.5861   -9.4219   -0.1394 H   0  0  0  0  0  0  0  0  0  0  0  0
    0.8050   -5.6807   -3.1339 H   0  0  0  0  0  0  0  0  0  0  0  0
    0.2659   -3.3225   -2.6887 H   0  0  0  0  0  0  0  0  0  0  0  0
   -4.6849    3.9061   -3.6294 H   0  0  0  0  0  0  0  0  0  0  0  0
   -5.1628    6.0804   -2.5777 H   0  0  0  0  0  0  0  0  0  0  0  0
   -4.4140    8.0321    2.0904 H   0  0  0  0  0  0  0  0  0  0  0  0
   -3.0461    6.9584    1.7203 H   0  0  0  0  0  0  0  0  0  0  0  0
   -4.6475    6.2699    2.1602 H   0  0  0  0  0  0  0  0  0  0  0  0
   -3.2769    4.7454    1.0200 H   0  0  0  0  0  0  0  0  0  0  0  0
   -2.8151    2.5991   -0.0199 H   0  0  0  0  0  0  0  0  0  0  0  0
   -2.6524   -0.0333   -4.1850 H   0  0  0  0  0  0  0  0  0  0  0  0
   -4.1495   -1.3588   -5.5892 H   0  0  0  0  0  0  0  0  0  0  0  0
   -8.9190   -0.7452   -4.9333 H   0  0  0  0  0  0  0  0  0  0  0  0
   -9.1688   -1.1568   -6.6459 H   0  0  0  0  0  0  0  0  0  0  0  0
   -8.5355    0.4511   -6.2219 H   0  0  0  0  0  0  0  0  0  0  0  0
   -7.4841    0.9076   -4.1701 H   0  0  0  0  0  0  0  0  0  0  0  0
   -6.0209    2.1311   -2.6736 H   0  0  0  0  0  0  0  0  0  0  0  0
   -2.4432    4.6370   -4.7457 H   0  0  0  0  0  0  0  0  0  0  0  0
   -4.5351    4.0231   -5.9059 H   0  0  0  0  0  0  0  0  0  0  0  0
   -4.7544   -0.3885   -7.9599 H   0  0  0  0  0  0  0  0  0  0  0  0
   -4.1681    0.6920   -9.2728 H   0  0  0  0  0  0  0  0  0  0  0  0
   -5.8977    0.3059   -9.1234 H   0  0  0  0  0  0  0  0  0  0  0  0
   -2.6419    0.5265   -7.4654 H   0  0  0  0  0  0  0  0  0  0  0  0
   -0.5615    1.1558   -6.3531 H   0  0  0  0  0  0  0  0  0  0  0  0
    2.2711    3.1147   -3.8456 H   0  0  0  0  0  0  0  0  0  0  0  0
    4.3959    3.1726   -5.0762 H   0  0  0  0  0  0  0  0  0  0  0  0
    5.6566    3.5909  -10.0336 H   0  0  0  0  0  0  0  0  0  0  0  0
    4.1224    2.7065   -9.8888 H   0  0  0  0  0  0  0  0  0  0  0  0
    4.1597    4.4914   -9.7069 H   0  0  0  0  0  0  0  0  0  0  0  0
    2.2459    3.5227   -8.7584 H   0  0  0  0  0  0  0  0  0  0  0  0
    0.1457    3.5092   -7.5376 H   0  0  0  0  0  0  0  0  0  0  0  0
    2.3527    5.1148   -0.0272 H   0  0  0  0  0  0  0  0  0  0  0  0
    4.4884    4.7904    1.1509 H   0  0  0  0  0  0  0  0  0  0  0  0
    7.1487    8.7857    1.8509 H   0  0  0  0  0  0  0  0  0  0  0  0
    6.3382    8.5977    3.4418 H   0  0  0  0  0  0  0  0  0  0  0  0
    7.9739    7.9517    3.1853 H   0  0  0  0  0  0  0  0  0  0  0  0
    4.8488    9.0266    1.6483 H   0  0  0  0  0  0  0  0  0  0  0  0
    2.7112    9.3391    0.5082 H   0  0  0  0  0  0  0  0  0  0  0  0
    0.7999    8.0898    1.9514 H   0  0  0  0  0  0  0  0  0  0  0  0
   -1.0437    9.4112    2.8194 H   0  0  0  0  0  0  0  0  0  0  0  0
   -2.8781   10.4324    3.7953 H   0  0  0  0  0  0  0  0  0  0  0  0
   -1.8867   11.6895    2.9887 H   0  0  0  0  0  0  0  0  0  0  0  0
   -3.6044   11.9872    3.3402 H   0  0  0  0  0  0  0  0  0  0  0  0
   -2.7376    9.6382   -1.0996 H   0  0  0  0  0  0  0  0  0  0  0  0
   -0.8657    8.3261   -1.9850 H   0  0  0  0  0  0  0  0  0  0  0  0
    2.2261    9.2511   -3.7903 H   0  0  0  0  0  0  0  0  0  0  0  0
    6.8802    6.2090   -0.9427 H   0  0  0  0  0  0  0  0  0  0  0  0
    8.9853    9.9356   -0.6538 H   0  0  0  0  0  0  0  0  0  0  0  0
    7.0475   11.1480   -1.5509 H   0  0  0  0  0  0  0  0  0  0  0  0
  1  2  2  0  0  0  0
  2  3  1  0  0  0  0
  3  4  2  0  0  0  0
  3  5  1  0  0  0  0
  5  6  2  0  0  0  0
  6  7  1  0  0  0  0
  7  8  1  0  0  0  0
  7  9  2  0  0  0  0
  9 10  1  0  0  0  0
 10 11  2  0  0  0  0
 11 12  1  0  0  0  0
 12 13  2  0  0  0  0
 13 14  1  0  0  0  0
 14 15  3  0  0  0  0
 13 16  1  0  0  0  0
 16 17  3  0  0  0  0
  1 18  1  0  0  0  0
 18 19  2  0  0  0  0
 19 20  1  0  0  0  0
 20 21  1  0  0  0  0
 21 22  2  0  0  0  0
 22 23  1  0  0  0  0
 23 24  2  0  0  0  0
 24 25  1  0  0  0  0
 25 26  1  0  0  0  0
 24 27  1  0  0  0  0
 27 28  2  0  0  0  0
 20 29  1  0  0  0  0
 29 30  2  0  0  0  0
 30 31  1  0  0  0  0
 31 32  2  0  0  0  0
 32 33  1  0  0  0  0
 33 34  1  0  0  0  0
 32 35  1  0  0  0  0
 35 36  2  0  0  0  0
 19 37  1  0  0  0  0
 37 38  1  0  0  0  0
 38 39  1  0  0  0  0
 39 40  2  0  0  0  0
 40 41  1  0  0  0  0
 41 42  1  0  0  0  0
 42 43  2  0  0  0  0
 43 44  1  0  0  0  0
 44 45  2  0  0  0  0
 45 46  1  0  0  0  0
 46 47  1  0  0  0  0
 45 48  1  0  0  0  0
 48 49  2  0  0  0  0
 41 50  1  0  0  0  0
 50 51  2  0  0  0  0
 51 52  1  0  0  0  0
 52 53  2  0  0  0  0
 53 54  1  0  0  0  0
 54 55  1  0  0  0  0
 53 56  1  0  0  0  0
 56 57  2  0  0  0  0
 40 58  1  0  0  0  0
 58 59  1  0  0  0  0
 39 60  1  0  0  0  0
 60 61  2  0  0  0  0
 61 62  1  0  0  0  0
 62 63  1  0  0  0  0
 63 64  2  0  0  0  0
 64 65  1  0  0  0  0
 65 66  2  0  0  0  0
 66 67  1  0  0  0  0
 67 68  1  0  0  0  0
 66 69  1  0  0  0  0
 69 70  2  0  0  0  0
 62 71  1  0  0  0  0
 71 72  2  0  0  0  0
 72 73  1  0  0  0  0
 73 74  2  0  0  0  0
 74 75  1  0  0  0  0
 75 76  1  0  0  0  0
 74 77  1  0  0  0  0
 77 78  2  0  0  0  0
 61 79  1  0  0  0  0
 79 80  1  0  0  0  0
 80 81  1  0  0  0  0
 81 82  2  0  0  0  0
 82 83  1  0  0  0  0
 83 84  1  0  0  0  0
 84 85  2  0  0  0  0
 85 86  1  0  0  0  0
 86 87  2  0  0  0  0
 87 88  1  0  0  0  0
 88 89  1  0  0  0  0
 87 90  1  0  0  0  0
 90 91  2  0  0  0  0
 83 92  1  0  0  0  0
 92 93  2  0  0  0  0
 93 94  1  0  0  0  0
 94 95  2  0  0  0  0
 95 96  1  0  0  0  0
 96 97  1  0  0  0  0
 95 98  1  0  0  0  0
 98 99  2  0  0  0  0
 82100  1  0  0  0  0
100101  1  0  0  0  0
 81102  1  0  0  0  0
102103  2  0  0  0  0
103104  1  0  0  0  0
104105  1  0  0  0  0
105106  2  0  0  0  0
106107  1  0  0  0  0
107108  2  0  0  0  0
108109  1  0  0  0  0
109110  1  0  0  0  0
108111  1  0  0  0  0
111112  2  0  0  0  0
104113  1  0  0  0  0
113114  2  0  0  0  0
114115  1  0  0  0  0
115116  2  0  0  0  0
116117  1  0  0  0  0
117118  1  0  0  0  0
116119  1  0  0  0  0
119120  2  0  0  0  0
103121  1  0  0  0  0
121122  1  0  0  0  0
122123  1  0  0  0  0
123124  2  0  0  0  0
124125  1  0  0  0  0
125126  1  0  0  0  0
126127  2  0  0  0  0
127128  1  0  0  0  0
128129  2  0  0  0  0
129130  1  0  0  0  0
130131  1  0  0  0  0
129132  1  0  0  0  0
132133  2  0  0  0  0
125134  1  0  0  0  0
134135  2  0  0  0  0
135136  1  0  0  0  0
136137  2  0  0  0  0
137138  1  0  0  0  0
138139  1  0  0  0  0
137140  1  0  0  0  0
140141  2  0  0  0  0
124142  1  0  0  0  0
142143  1  0  0  0  0
123144  1  0  0  0  0
144145  2  0  0  0  0
145146  1  0  0  0  0
146147  2  0  0  0  0
146148  1  0  0  0  0
148149  2  0  0  0  0
149150  1  0  0  0  0
150151  1  0  0  0  0
150152  2  0  0  0  0
152153  1  0  0  0  0
153154  2  0  0  0  0
154155  1  0  0  0  0
155156  2  0  0  0  0
156157  1  0  0  0  0
157158  3  0  0  0  0
156159  1  0  0  0  0
159160  3  0  0  0  0
 12  2  1  0  0  0  0
 59 18  1  0  0  0  0
101 60  1  0  0  0  0
143102  1  0  0  0  0
155145  1  0  0  0  0
 11  5  1  0  0  0  0
 28 21  1  0  0  0  0
 36 29  1  0  0  0  0
 58 37  2  0  0  0  0
 70 63  1  0  0  0  0
 78 71  1  0  0  0  0
100 79  2  0  0  0  0
112105  1  0  0  0  0
120113  1  0  0  0  0
142121  2  0  0  0  0
154148  1  0  0  0  0
 49 42  1  0  0  0  0
 57 50  1  0  0  0  0
 91 84  1  0  0  0  0
 99 92  1  0  0  0  0
133126  1  0  0  0  0
141134  1  0  0  0  0
  1161  1  0  0  0  0
  6162  1  0  0  0  0
  9163  1  0  0  0  0
 10164  1  0  0  0  0
 22165  1  0  0  0  0
 23166  1  0  0  0  0
 26167  1  0  0  0  0
 26168  1  0  0  0  0
 26169  1  0  0  0  0
 27170  1  0  0  0  0
 28171  1  0  0  0  0
 30172  1  0  0  0  0
 31173  1  0  0  0  0
 34174  1  0  0  0  0
 34175  1  0  0  0  0
 34176  1  0  0  0  0
 35177  1  0  0  0  0
 36178  1  0  0  0  0
 43179  1  0  0  0  0
 44180  1  0  0  0  0
 47181  1  0  0  0  0
 47182  1  0  0  0  0
 47183  1  0  0  0  0
 48184  1  0  0  0  0
 49185  1  0  0  0  0
 51186  1  0  0  0  0
 52187  1  0  0  0  0
 55188  1  0  0  0  0
 55189  1  0  0  0  0
 55190  1  0  0  0  0
 56191  1  0  0  0  0
 57192  1  0  0  0  0
 64193  1  0  0  0  0
 65194  1  0  0  0  0
 68195  1  0  0  0  0
 68196  1  0  0  0  0
 68197  1  0  0  0  0
 69198  1  0  0  0  0
 70199  1  0  0  0  0
 72200  1  0  0  0  0
 73201  1  0  0  0  0
 76202  1  0  0  0  0
 76203  1  0  0  0  0
 76204  1  0  0  0  0
 77205  1  0  0  0  0
 78206  1  0  0  0  0
 85207  1  0  0  0  0
 86208  1  0  0  0  0
 89209  1  0  0  0  0
 89210  1  0  0  0  0
 89211  1  0  0  0  0
 90212  1  0  0  0  0
 91213  1  0  0  0  0
 93214  1  0  0  0  0
 94215  1  0  0  0  0
 97216  1  0  0  0  0
 97217  1  0  0  0  0
 97218  1  0  0  0  0
 98219  1  0  0  0  0
 99220  1  0  0  0  0
106221  1  0  0  0  0
107222  1  0  0  0  0
110223  1  0  0  0  0
110224  1  0  0  0  0
110225  1  0  0  0  0
111226  1  0  0  0  0
112227  1  0  0  0  0
114228  1  0  0  0  0
115229  1  0  0  0  0
118230  1  0  0  0  0
118231  1  0  0  0  0
118232  1  0  0  0  0
119233  1  0  0  0  0
120234  1  0  0  0  0
127235  1  0  0  0  0
128236  1  0  0  0  0
131237  1  0  0  0  0
131238  1  0  0  0  0
131239  1  0  0  0  0
132240  1  0  0  0  0
133241  1  0  0  0  0
135242  1  0  0  0  0
136243  1  0  0  0  0
139244  1  0  0  0  0
139245  1  0  0  0  0
139246  1  0  0  0  0
140247  1  0  0  0  0
141248  1  0  0  0  0
144249  1  0  0  0  0
149250  1  0  0  0  0
152251  1  0  0  0  0
153252  1  0  0  0  0
M  END
