
  xtb     02032220043D
 energy: -279.060182375668 gnorm: 0.000729853602 xtb: 6.4.1 (unknown)
158172  0     0  0            999 V2000
   10.3064    1.8883    6.5150 C   0  0  0  0  0  0  0  0  0  0  0  0
   11.6440    1.7315    6.2740 C   0  0  0  0  0  0  0  0  0  0  0  0
   12.2535    1.2661    5.0170 C   0  0  0  0  0  0  0  0  0  0  0  0
   11.6999    0.9913    3.9719 O   0  0  0  0  0  0  0  0  0  0  0  0
   13.7065    1.1909    5.2786 C   0  0  0  0  0  0  0  0  0  0  0  0
   14.7082    0.7893    4.4198 C   0  0  0  0  0  0  0  0  0  0  0  0
   16.0109    0.7988    4.9046 C   0  0  0  0  0  0  0  0  0  0  0  0
   17.3027    0.3063    3.8772 Cl  0  0  0  0  0  0  0  0  0  0  0  0
   16.2899    1.1986    6.2070 C   0  0  0  0  0  0  0  0  0  0  0  0
   15.2755    1.6022    7.0616 C   0  0  0  0  0  0  0  0  0  0  0  0
   13.9674    1.6009    6.5974 C   0  0  0  0  0  0  0  0  0  0  0  0
   12.7057    1.9638    7.2381 C   0  0  0  0  0  0  0  0  0  0  0  0
   12.5817    2.4527    8.5130 C   0  0  0  0  0  0  0  0  0  0  0  0
   11.3795    2.8400    9.1415 C   0  0  0  0  0  0  0  0  0  0  0  0
   10.4538    3.1844    9.7290 N   0  0  0  0  0  0  0  0  0  0  0  0
   13.6678    2.6544    9.3913 C   0  0  0  0  0  0  0  0  0  0  0  0
   14.5008    2.8418   10.1586 N   0  0  0  0  0  0  0  0  0  0  0  0
    9.1906    1.6972    5.6775 C   0  0  0  0  0  0  0  0  0  0  0  0
    7.9003    1.8970    6.1372 C   0  0  0  0  0  0  0  0  0  0  0  0
    6.9046    1.6625    5.1796 C   0  0  0  0  0  0  0  0  0  0  0  0
    5.5020    1.7868    5.3378 C   0  0  0  0  0  0  0  0  0  0  0  0
    4.9322    2.3318    6.5477 C   0  0  0  0  0  0  0  0  0  0  0  0
    5.3932    3.3847    7.2940 C   0  0  0  0  0  0  0  0  0  0  0  0
    4.5851    3.6727    8.4081 C   0  0  0  0  0  0  0  0  0  0  0  0
    3.5081    2.8456    8.5245 C   0  0  0  0  0  0  0  0  0  0  0  0
    2.4695    2.8217    9.5914 C   0  0  0  0  0  0  0  0  0  0  0  0
    2.6868    1.6478   10.5490 C   0  0  0  0  0  0  0  0  0  0  0  0
    3.4680    1.6884    7.2381 S   0  0  0  0  0  0  0  0  0  0  0  0
    4.7304    1.3820    4.2573 C   0  0  0  0  0  0  0  0  0  0  0  0
    5.2831    0.9533    3.0224 C   0  0  0  0  0  0  0  0  0  0  0  0
    6.6804    0.8983    2.8414 C   0  0  0  0  0  0  0  0  0  0  0  0
    7.2904    0.5428    1.5764 C   0  0  0  0  0  0  0  0  0  0  0  0
    8.4384   -0.1664    1.3578 C   0  0  0  0  0  0  0  0  0  0  0  0
    8.7820   -0.2746   -0.0039 C   0  0  0  0  0  0  0  0  0  0  0  0
    7.9123    0.3562   -0.8382 C   0  0  0  0  0  0  0  0  0  0  0  0
    7.9734    0.4897   -2.3206 C   0  0  0  0  0  0  0  0  0  0  0  0
    8.3694    1.9086   -2.7344 C   0  0  0  0  0  0  0  0  0  0  0  0
    6.6292    1.0987    0.0591 S   0  0  0  0  0  0  0  0  0  0  0  0
    7.4621    1.2286    3.9464 C   0  0  0  0  0  0  0  0  0  0  0  0
    9.2018    1.1882    4.0019 S   0  0  0  0  0  0  0  0  0  0  0  0
    4.2704    0.6142    2.0942 C   0  0  0  0  0  0  0  0  0  0  0  0
    3.0026    0.7851    2.5693 C   0  0  0  0  0  0  0  0  0  0  0  0
    2.9906    1.3698    4.2127 S   0  0  0  0  0  0  0  0  0  0  0  0
    1.7740    0.5471    1.8442 C   0  0  0  0  0  0  0  0  0  0  0  0
    1.7551    0.6328    0.4490 C   0  0  0  0  0  0  0  0  0  0  0  0
    0.6009    0.4143   -0.2836 C   0  0  0  0  0  0  0  0  0  0  0  0
    0.5332    0.5130   -1.6285 O   0  0  0  0  0  0  0  0  0  0  0  0
    1.6700    0.8795   -2.3878 C   0  0  0  0  0  0  0  0  0  0  0  0
    1.2221    0.9975   -3.8359 C   0  0  0  0  0  0  0  0  0  0  0  0
   -0.6068    0.0729    0.3726 C   0  0  0  0  0  0  0  0  0  0  0  0
   -0.5868   -0.0117    1.7651 C   0  0  0  0  0  0  0  0  0  0  0  0
    0.5674    0.2313    2.4724 C   0  0  0  0  0  0  0  0  0  0  0  0
    0.5151    0.1290    3.8169 F   0  0  0  0  0  0  0  0  0  0  0  0
   -1.8178   -0.1811   -0.3682 C   0  0  0  0  0  0  0  0  0  0  0  0
   -3.0444   -0.5121    0.1419 C   0  0  0  0  0  0  0  0  0  0  0  0
   -4.0461   -0.7070   -0.8337 C   0  0  0  0  0  0  0  0  0  0  0  0
   -5.3940   -1.0782   -0.6282 C   0  0  0  0  0  0  0  0  0  0  0  0
   -5.9273   -1.4079    0.6768 C   0  0  0  0  0  0  0  0  0  0  0  0
   -7.1728   -1.1417    1.1711 C   0  0  0  0  0  0  0  0  0  0  0  0
   -7.4126   -1.6759    2.4580 C   0  0  0  0  0  0  0  0  0  0  0  0
   -8.7026   -1.4556    3.1873 C   0  0  0  0  0  0  0  0  0  0  0  0
   -8.6840   -0.1189    3.9304 C   0  0  0  0  0  0  0  0  0  0  0  0
   -6.3354   -2.3562    2.9500 C   0  0  0  0  0  0  0  0  0  0  0  0
   -6.1975   -3.1061    4.2316 C   0  0  0  0  0  0  0  0  0  0  0  0
   -6.5689   -4.5797    4.0465 C   0  0  0  0  0  0  0  0  0  0  0  0
   -5.0158   -2.3500    1.8258 S   0  0  0  0  0  0  0  0  0  0  0  0
   -6.1908   -1.1423   -1.7648 C   0  0  0  0  0  0  0  0  0  0  0  0
   -5.6961   -0.9095   -3.0793 C   0  0  0  0  0  0  0  0  0  0  0  0
   -4.3268   -0.6070   -3.2867 C   0  0  0  0  0  0  0  0  0  0  0  0
   -3.7673   -0.4686   -4.6090 C   0  0  0  0  0  0  0  0  0  0  0  0
   -2.7753    0.3745   -5.0348 C   0  0  0  0  0  0  0  0  0  0  0  0
   -2.4545    0.2426   -6.4031 C   0  0  0  0  0  0  0  0  0  0  0  0
   -1.4339    1.1115   -7.0733 C   0  0  0  0  0  0  0  0  0  0  0  0
   -2.0758    2.3786   -7.6402 C   0  0  0  0  0  0  0  0  0  0  0  0
   -3.1995   -0.7257   -7.0221 C   0  0  0  0  0  0  0  0  0  0  0  0
   -4.2939   -1.4849   -5.9210 S   0  0  0  0  0  0  0  0  0  0  0  0
   -3.2451   -1.1339   -8.4544 C   0  0  0  0  0  0  0  0  0  0  0  0
   -4.5386   -0.6440   -9.1119 C   0  0  0  0  0  0  0  0  0  0  0  0
   -3.5489   -0.4805   -2.1417 C   0  0  0  0  0  0  0  0  0  0  0  0
   -1.8540   -0.0827   -2.1089 S   0  0  0  0  0  0  0  0  0  0  0  0
   -6.7026   -1.0019   -4.0514 C   0  0  0  0  0  0  0  0  0  0  0  0
   -7.9397   -1.3448   -3.5512 C   0  0  0  0  0  0  0  0  0  0  0  0
   -7.8816   -1.5430   -1.7977 S   0  0  0  0  0  0  0  0  0  0  0  0
   -9.1879   -1.5388   -4.1672 C   0  0  0  0  0  0  0  0  0  0  0  0
   -9.5868   -1.4688   -5.4804 C   0  0  0  0  0  0  0  0  0  0  0  0
   -8.7787   -1.1827   -6.6833 C   0  0  0  0  0  0  0  0  0  0  0  0
   -7.5971   -0.9235   -6.7841 O   0  0  0  0  0  0  0  0  0  0  0  0
   -9.7156   -1.2720   -7.8261 C   0  0  0  0  0  0  0  0  0  0  0  0
   -9.4373   -1.0865   -9.1646 C   0  0  0  0  0  0  0  0  0  0  0  0
  -10.4893   -1.2207  -10.0637 C   0  0  0  0  0  0  0  0  0  0  0  0
  -10.2540   -0.9950  -11.5315 C   0  0  0  0  0  0  0  0  0  0  0  0
  -10.9883   -1.8097  -12.3045 F   0  0  0  0  0  0  0  0  0  0  0  0
   -8.9755   -1.1765  -11.8892 F   0  0  0  0  0  0  0  0  0  0  0  0
  -10.5743    0.2607  -11.9019 F   0  0  0  0  0  0  0  0  0  0  0  0
  -11.7737   -1.5249   -9.6239 C   0  0  0  0  0  0  0  0  0  0  0  0
  -12.0425   -1.7094   -8.2754 C   0  0  0  0  0  0  0  0  0  0  0  0
  -11.0034   -1.5808   -7.3651 C   0  0  0  0  0  0  0  0  0  0  0  0
  -10.9572   -1.7026   -5.9056 C   0  0  0  0  0  0  0  0  0  0  0  0
  -12.0487   -1.9756   -5.1218 C   0  0  0  0  0  0  0  0  0  0  0  0
  -12.0820   -2.0800   -3.7137 C   0  0  0  0  0  0  0  0  0  0  0  0
  -12.2295   -2.1824   -2.5789 N   0  0  0  0  0  0  0  0  0  0  0  0
  -13.3506   -2.1902   -5.6245 C   0  0  0  0  0  0  0  0  0  0  0  0
  -14.4341   -2.3779   -5.9539 N   0  0  0  0  0  0  0  0  0  0  0  0
   10.0269    2.2076    7.5120 H   0  0  0  0  0  0  0  0  0  0  0  0
   14.4789    0.4808    3.4122 H   0  0  0  0  0  0  0  0  0  0  0  0
   17.3111    1.1935    6.5544 H   0  0  0  0  0  0  0  0  0  0  0  0
   15.5200    1.9060    8.0660 H   0  0  0  0  0  0  0  0  0  0  0  0
    7.6957    2.1774    7.1550 H   0  0  0  0  0  0  0  0  0  0  0  0
    6.2556    3.9667    7.0223 H   0  0  0  0  0  0  0  0  0  0  0  0
    4.7928    4.4707    9.0987 H   0  0  0  0  0  0  0  0  0  0  0  0
    2.5126    3.7615   10.1458 H   0  0  0  0  0  0  0  0  0  0  0  0
    1.4794    2.7343    9.1377 H   0  0  0  0  0  0  0  0  0  0  0  0
    2.6305    0.7060   10.0078 H   0  0  0  0  0  0  0  0  0  0  0  0
    1.9259    1.6497   11.3252 H   0  0  0  0  0  0  0  0  0  0  0  0
    3.6648    1.7192   11.0193 H   0  0  0  0  0  0  0  0  0  0  0  0
    9.0086   -0.6268    2.1432 H   0  0  0  0  0  0  0  0  0  0  0  0
    9.6498   -0.8060   -0.3519 H   0  0  0  0  0  0  0  0  0  0  0  0
    8.7054   -0.2233   -2.7056 H   0  0  0  0  0  0  0  0  0  0  0  0
    6.9994    0.2486   -2.7546 H   0  0  0  0  0  0  0  0  0  0  0  0
    8.4196    1.9860   -3.8176 H   0  0  0  0  0  0  0  0  0  0  0  0
    9.3423    2.1641   -2.3213 H   0  0  0  0  0  0  0  0  0  0  0  0
    7.6391    2.6261   -2.3667 H   0  0  0  0  0  0  0  0  0  0  0  0
    4.4772    0.2117    1.1206 H   0  0  0  0  0  0  0  0  0  0  0  0
    2.6703    0.8989   -0.0528 H   0  0  0  0  0  0  0  0  0  0  0  0
    2.0669    1.8397   -2.0327 H   0  0  0  0  0  0  0  0  0  0  0  0
    2.4499    0.1130   -2.2872 H   0  0  0  0  0  0  0  0  0  0  0  0
    2.0705    1.2441   -4.4674 H   0  0  0  0  0  0  0  0  0  0  0  0
    0.4709    1.7772   -3.9243 H   0  0  0  0  0  0  0  0  0  0  0  0
    0.7857    0.0589   -4.1660 H   0  0  0  0  0  0  0  0  0  0  0  0
   -1.4761   -0.2696    2.3149 H   0  0  0  0  0  0  0  0  0  0  0  0
   -3.2393   -0.6053    1.1929 H   0  0  0  0  0  0  0  0  0  0  0  0
   -7.9011   -0.5493    0.6467 H   0  0  0  0  0  0  0  0  0  0  0  0
   -8.8780   -2.2657    3.8962 H   0  0  0  0  0  0  0  0  0  0  0  0
   -9.5204   -1.4557    2.4642 H   0  0  0  0  0  0  0  0  0  0  0  0
   -9.6280    0.0415    4.4455 H   0  0  0  0  0  0  0  0  0  0  0  0
   -8.5262    0.7003    3.2325 H   0  0  0  0  0  0  0  0  0  0  0  0
   -7.8805   -0.1017    4.6639 H   0  0  0  0  0  0  0  0  0  0  0  0
   -6.8435   -2.6570    4.9883 H   0  0  0  0  0  0  0  0  0  0  0  0
   -5.1655   -3.0384    4.5825 H   0  0  0  0  0  0  0  0  0  0  0  0
   -7.5949   -4.6723    3.6975 H   0  0  0  0  0  0  0  0  0  0  0  0
   -6.4704   -5.1150    4.9877 H   0  0  0  0  0  0  0  0  0  0  0  0
   -5.9135   -5.0432    3.3125 H   0  0  0  0  0  0  0  0  0  0  0  0
   -2.3159    1.1090   -4.3983 H   0  0  0  0  0  0  0  0  0  0  0  0
   -0.6722    1.3884   -6.3420 H   0  0  0  0  0  0  0  0  0  0  0  0
   -0.9430    0.5616   -7.8784 H   0  0  0  0  0  0  0  0  0  0  0  0
   -1.3211    3.0148   -8.0966 H   0  0  0  0  0  0  0  0  0  0  0  0
   -2.5704    2.9380   -6.8494 H   0  0  0  0  0  0  0  0  0  0  0  0
   -2.8165    2.1249   -8.3943 H   0  0  0  0  0  0  0  0  0  0  0  0
   -3.2038   -2.2241   -8.5239 H   0  0  0  0  0  0  0  0  0  0  0  0
   -2.3831   -0.7249   -8.9841 H   0  0  0  0  0  0  0  0  0  0  0  0
   -4.5900   -0.9814  -10.1441 H   0  0  0  0  0  0  0  0  0  0  0  0
   -5.4015   -1.0274   -8.5717 H   0  0  0  0  0  0  0  0  0  0  0  0
   -4.5840    0.4428   -9.0980 H   0  0  0  0  0  0  0  0  0  0  0  0
   -6.5527   -0.8082   -5.0961 H   0  0  0  0  0  0  0  0  0  0  0  0
   -9.9651   -1.7947   -3.4570 H   0  0  0  0  0  0  0  0  0  0  0  0
   -8.4363   -0.8498   -9.4913 H   0  0  0  0  0  0  0  0  0  0  0  0
  -12.5710   -1.6225  -10.3448 H   0  0  0  0  0  0  0  0  0  0  0  0
  -13.0461   -1.9462   -7.9647 H   0  0  0  0  0  0  0  0  0  0  0  0
  1  2  2  0  0  0  0
  2  3  1  0  0  0  0
  3  4  2  0  0  0  0
  3  5  1  0  0  0  0
  5  6  2  0  0  0  0
  6  7  1  0  0  0  0
  7  8  1  0  0  0  0
  7  9  2  0  0  0  0
  9 10  1  0  0  0  0
 10 11  2  0  0  0  0
 11 12  1  0  0  0  0
 12 13  2  0  0  0  0
 13 14  1  0  0  0  0
 14 15  3  0  0  0  0
 13 16  1  0  0  0  0
 16 17  3  0  0  0  0
  1 18  1  0  0  0  0
 18 19  2  0  0  0  0
 19 20  1  0  0  0  0
 20 21  2  0  0  0  0
 21 22  1  0  0  0  0
 22 23  2  0  0  0  0
 23 24  1  0  0  0  0
 24 25  2  0  0  0  0
 25 26  1  0  0  0  0
 26 27  1  0  0  0  0
 25 28  1  0  0  0  0
 21 29  1  0  0  0  0
 29 30  2  0  0  0  0
 30 31  1  0  0  0  0
 31 32  1  0  0  0  0
 32 33  2  0  0  0  0
 33 34  1  0  0  0  0
 34 35  2  0  0  0  0
 35 36  1  0  0  0  0
 36 37  1  0  0  0  0
 35 38  1  0  0  0  0
 31 39  2  0  0  0  0
 39 40  1  0  0  0  0
 30 41  1  0  0  0  0
 41 42  2  0  0  0  0
 42 43  1  0  0  0  0
 42 44  1  0  0  0  0
 44 45  2  0  0  0  0
 45 46  1  0  0  0  0
 46 47  1  0  0  0  0
 47 48  1  0  0  0  0
 48 49  1  0  0  0  0
 46 50  2  0  0  0  0
 50 51  1  0  0  0  0
 51 52  2  0  0  0  0
 52 53  1  0  0  0  0
 50 54  1  0  0  0  0
 54 55  2  0  0  0  0
 55 56  1  0  0  0  0
 56 57  2  0  0  0  0
 57 58  1  0  0  0  0
 58 59  2  0  0  0  0
 59 60  1  0  0  0  0
 60 61  1  0  0  0  0
 61 62  1  0  0  0  0
 60 63  2  0  0  0  0
 63 64  1  0  0  0  0
 64 65  1  0  0  0  0
 63 66  1  0  0  0  0
 57 67  1  0  0  0  0
 67 68  2  0  0  0  0
 68 69  1  0  0  0  0
 69 70  1  0  0  0  0
 70 71  2  0  0  0  0
 71 72  1  0  0  0  0
 72 73  1  0  0  0  0
 73 74  1  0  0  0  0
 72 75  2  0  0  0  0
 75 76  1  0  0  0  0
 75 77  1  0  0  0  0
 77 78  1  0  0  0  0
 69 79  2  0  0  0  0
 79 80  1  0  0  0  0
 68 81  1  0  0  0  0
 81 82  2  0  0  0  0
 82 83  1  0  0  0  0
 82 84  1  0  0  0  0
 84 85  2  0  0  0  0
 85 86  1  0  0  0  0
 86 87  2  0  0  0  0
 86 88  1  0  0  0  0
 88 89  2  0  0  0  0
 89 90  1  0  0  0  0
 90 91  1  0  0  0  0
 91 92  1  0  0  0  0
 91 93  1  0  0  0  0
 91 94  1  0  0  0  0
 90 95  2  0  0  0  0
 95 96  1  0  0  0  0
 96 97  2  0  0  0  0
 97 98  1  0  0  0  0
 98 99  2  0  0  0  0
 99100  1  0  0  0  0
100101  3  0  0  0  0
 99102  1  0  0  0  0
102103  3  0  0  0  0
 12  2  1  0  0  0  0
 40 18  1  0  0  0  0
 52 44  1  0  0  0  0
 80 54  1  0  0  0  0
 98 85  1  0  0  0  0
 11  5  1  0  0  0  0
 39 20  1  0  0  0  0
 79 56  1  0  0  0  0
 97 88  1  0  0  0  0
 28 22  1  0  0  0  0
 43 29  1  0  0  0  0
 66 58  1  0  0  0  0
 83 67  1  0  0  0  0
 38 32  1  0  0  0  0
 76 70  1  0  0  0  0
  1104  1  0  0  0  0
  6105  1  0  0  0  0
  9106  1  0  0  0  0
 10107  1  0  0  0  0
 19108  1  0  0  0  0
 23109  1  0  0  0  0
 24110  1  0  0  0  0
 26111  1  0  0  0  0
 26112  1  0  0  0  0
 27113  1  0  0  0  0
 27114  1  0  0  0  0
 27115  1  0  0  0  0
 33116  1  0  0  0  0
 34117  1  0  0  0  0
 36118  1  0  0  0  0
 36119  1  0  0  0  0
 37120  1  0  0  0  0
 37121  1  0  0  0  0
 37122  1  0  0  0  0
 41123  1  0  0  0  0
 45124  1  0  0  0  0
 48125  1  0  0  0  0
 48126  1  0  0  0  0
 49127  1  0  0  0  0
 49128  1  0  0  0  0
 49129  1  0  0  0  0
 51130  1  0  0  0  0
 55131  1  0  0  0  0
 59132  1  0  0  0  0
 61133  1  0  0  0  0
 61134  1  0  0  0  0
 62135  1  0  0  0  0
 62136  1  0  0  0  0
 62137  1  0  0  0  0
 64138  1  0  0  0  0
 64139  1  0  0  0  0
 65140  1  0  0  0  0
 65141  1  0  0  0  0
 65142  1  0  0  0  0
 71143  1  0  0  0  0
 73144  1  0  0  0  0
 73145  1  0  0  0  0
 74146  1  0  0  0  0
 74147  1  0  0  0  0
 74148  1  0  0  0  0
 77149  1  0  0  0  0
 77150  1  0  0  0  0
 78151  1  0  0  0  0
 78152  1  0  0  0  0
 78153  1  0  0  0  0
 81154  1  0  0  0  0
 84155  1  0  0  0  0
 89156  1  0  0  0  0
 95157  1  0  0  0  0
 96158  1  0  0  0  0
M  END
