248

C          5.13510        0.59790       -8.41720
C          6.00760        1.54620       -8.91480
C          6.87140        2.38300       -8.07320
O          6.92610        2.41260       -6.85770
C          7.76650        3.09670       -9.01670
C          8.77220        3.99440       -8.73390
C          9.46660        4.53950       -9.80870
Cl        10.72490        5.68200       -9.51050
C          9.16690        4.18480      -11.11680
C          8.15510        3.27440      -11.39010
C          7.44600        2.72780      -10.33380
C          6.33190        1.78300      -10.29280
C          5.61490        1.33660      -11.37630
C          4.45590        0.54160      -11.27950
N          3.48870       -0.07800      -11.27170
C          5.90330        1.68450      -12.70820
N          6.08060        1.95580      -13.81060
C          4.54480        0.61280       -7.15420
C          4.28130        1.67710       -6.26190
N          4.37710        3.00640       -6.53680
C          4.28300        3.50800       -7.84570
C          3.34880        2.99730       -8.74490
C          3.29670        3.47920      -10.03480
C          4.16720        4.47770      -10.46830
C          4.13290        4.94870      -11.88780
C          5.06350        5.01200       -9.55290
C          5.12320        4.54080       -8.25410
C          4.49450        3.93630       -5.48460
C          3.74550        5.10800       -5.51610
C          3.85300        6.02110       -4.48540
C          4.69890        5.79070       -3.40640
C          4.82310        6.78920       -2.29860
C          5.45640        4.62470       -3.39700
C          5.36570        3.70570       -4.42380
C          3.73240        1.17800       -5.05580
S          3.18980        1.91780       -3.59180
C          2.57140        0.38270       -3.01950
C          2.82760       -0.65150       -3.88920
N          2.56980       -2.00670       -3.60740
C          1.37240       -2.59980       -4.01070
C          0.62290       -2.07760       -5.05890
C         -0.58120       -2.65860       -5.41360
C         -1.07010       -3.77270       -4.74840
C         -2.38210       -4.39340       -5.11600
C         -0.30850       -4.29880       -3.71010
C          0.88700       -3.72220       -3.33810
C          3.66480       -2.77210       -3.17760
C          3.86940       -4.06690       -3.65150
C          4.94090       -4.81250       -3.20350
C          5.84750       -4.29400       -2.28640
C          7.01710       -5.10260       -1.81350
C          5.65420       -2.99280       -1.84040
C          4.58300       -2.23760       -2.27590
C          3.48580       -0.18730       -5.05240
S          3.96330       -0.93860       -6.52510
C          1.91090        0.29800       -1.73940
C          0.56680        0.10940       -1.49860
N         -0.40850        0.16320       -2.48380
C         -1.55260       -0.63390       -2.39080
C         -1.46450       -1.92670       -1.87880
C         -2.58870       -2.71780       -1.79510
C         -3.82730       -2.23400       -2.20470
S         -5.19340       -3.34380       -2.07980
C         -6.63830       -2.27610       -2.32640
C         -3.92120       -0.94450       -2.70940
C         -2.79400       -0.15330       -2.79940
C         -0.29970        1.16010       -3.46730
C         -0.66020        0.89760       -4.78850
C         -0.46880        1.85140       -5.76420
C          0.06190        3.09700       -5.44030
S          0.35400        4.23770       -6.76190
C          0.10190        5.84470       -5.94800
C          0.36590        3.38620       -4.11830
C          0.18100        2.42670       -3.14250
C          0.31570        0.02030       -0.10340
S         -1.07130       -0.33400        0.85060
C         -0.14230       -0.09730        2.33870
C          1.16940        0.26790        2.08750
N          2.14930        0.64760        2.99110
C          2.30740        0.11070        4.26460
C          2.98650        0.82930        5.24760
C          3.17530        0.29230        6.50490
C          2.65670       -0.95490        6.82200
S          2.77060       -1.69100        8.42710
C          4.14710       -0.79780        9.20830
C          1.97980       -1.67560        5.84290
C          1.82490       -1.15910        4.57680
C          3.09130        1.58460        2.50930
C          4.45480        1.31880        2.56570
C          5.36490        2.20140        2.01710
C          4.91950        3.36020        1.39500
S          5.98490        4.53180        0.61910
C          7.59530        3.69600        0.56340
C          3.55610        3.64650        1.36690
C          2.65100        2.77060        1.92270
C          1.42140        0.27200        0.68750
S          2.84240        0.51430       -0.26810
C         -0.89020       -0.25430        3.54760
C         -1.89780       -1.19420        3.72000
N         -2.12290       -2.26500        2.86100
C         -3.40850       -2.51910        2.37900
C         -4.33440       -1.48390        2.24360
C         -5.60610       -1.74570        1.78470
C         -5.98410       -3.04110        1.43920
S         -7.64070       -3.26340        0.87730
C         -7.66440       -4.98350        0.28960
C         -5.06260       -4.07160        1.56400
C         -3.79100       -3.81230        2.03320
C         -1.03810       -3.10080        2.54610
C         -0.79280       -3.48540        1.23200
C          0.32650       -4.22610        0.91010
C          1.21790       -4.60720        1.90540
S          2.70900       -5.50630        1.60330
C          2.95310       -5.34270       -0.18760
C          0.93800       -4.28610        3.23140
C         -0.17760       -3.53980        3.55020
C         -2.64230       -0.93420        4.88630
S         -4.05040       -1.66000        5.55560
C         -4.09740       -0.43030        6.82190
C         -3.03010        0.47980        6.72050
N         -2.88010        1.58690        7.50370
C         -1.64540        2.24900        7.61420
C         -0.46150        1.54810        7.82070
C          0.72820        2.22790        8.00030
C          0.74980        3.61520        7.97650
S          2.20560        4.58580        8.20960
C          3.34790        3.44530        9.04350
C         -0.43290        4.31800        7.75230
C         -1.61830        3.64350        7.57690
C         -3.96520        2.14170        8.22180
C         -5.18630        2.37830        7.59440
C         -6.26350        2.81540        8.33590
C         -6.12650        3.03950        9.70060
S         -7.51470        3.51240       10.69800
C         -8.68230        2.19290       10.24320
C         -4.88510        2.89770       10.30490
C         -3.80690        2.44820        9.56940
C         -2.21060        0.16870        5.60980
S         -0.81840        0.89660        4.87000
C         -5.10960       -0.46320        7.79680
C         -6.35870       -1.01100        7.69750
C         -7.15610       -1.24740        8.91820
O         -6.94710       -0.79610       10.02530
C         -8.26890       -2.12760        8.49420
C         -9.22760       -2.74860        9.26700
C        -10.15120       -3.55880        8.61560
Cl       -11.36890       -4.36140        9.53510
C        -10.11070       -3.73830        7.23820
C         -9.15290       -3.09700        6.46630
C         -8.22730       -2.28140        7.09650
C         -7.14470       -1.45220        6.56740
C         -7.10490       -0.95650        5.28800
C         -6.26440        0.09790        4.88400
N         -5.66040        1.01420        4.54180
C         -8.02520       -1.31950        4.28430
N         -8.76550       -1.56320        3.44150
H          4.90830       -0.26510       -9.03170
H          9.00280        4.26500       -7.71550
H          9.72920        4.62130      -11.92730
H          7.94430        3.00530      -12.41230
H          2.66120        2.22840       -8.42750
H          2.56980        3.07220      -10.72180
H          4.58400        4.20250      -12.54290
H          4.68320        5.87880      -12.00380
H          3.10710        5.09860      -12.21800
H          5.73540        5.80050       -9.85930
H          5.82400        4.96560       -7.55100
H          3.08430        5.28950       -6.35050
H          3.27090        6.93200       -4.51760
H          4.98040        6.29010       -1.34550
H          3.93520        7.41360       -2.23370
H          5.67950        7.43930       -2.47940
H          6.13010        4.44100       -2.57360
H          5.98570        2.82280       -4.43500
H          0.99040       -1.22060       -5.60320
H         -1.14380       -2.24330       -6.23830
H         -2.27380       -5.46780       -5.25490
H         -2.77440       -3.96020       -6.03250
H         -3.10880       -4.23290       -4.31930
H         -0.66780       -5.16920       -3.17960
H          1.46210       -4.13680       -2.52310
H          3.18810       -4.48210       -4.37880
H          5.08080       -5.81450       -3.58310
H          7.26460       -4.85970       -0.78210
H          7.89240       -4.88860       -2.42760
H          6.80940       -6.16770       -1.88630
H          6.34990       -2.56290       -1.13400
H          4.45390       -1.23010       -1.90870
H         -0.50370       -2.30710       -1.56950
H         -2.52470       -3.73050       -1.42630
H         -6.67200       -1.92120       -3.35250
H         -7.50570       -2.89520       -2.12190
H         -6.60250       -1.45470       -1.61750
H         -4.86640       -0.54150       -3.03490
H         -2.87810        0.85080       -3.18780
H         -1.08500       -0.06110       -5.03770
H         -0.72290        1.63840       -6.79130
H          0.94100        6.08080       -5.30090
H          0.03500        6.57570       -6.74760
H         -0.82750        5.81770       -5.38760
H          0.76850        4.34680       -3.83910
H          0.43250        2.65890       -2.11790
H          3.37040        1.81370        5.02590
H          3.73680        0.85620        7.23290
H          4.40180       -1.36960       10.09520
H          3.84070        0.20360        9.49820
H          4.99410       -0.76980        8.52970
H          1.59700       -2.65560        6.08260
H          1.34620       -1.74740        3.81150
H          4.80000        0.40630        3.02880
H          6.41530        1.96500        2.06850
H          8.24180        4.34430       -0.02020
H          7.49040        2.73430        0.07000
H          7.99780        3.58640        1.56630
H          3.21910        4.55860        0.89890
H          1.59340        2.98790        1.89350
H         -4.05430       -0.47130        2.49330
H         -6.32260       -0.94400        1.68640
H         -6.87920       -5.12960       -0.44690
H         -8.63820       -5.12170       -0.17010
H         -7.55630       -5.66820        1.12590
H         -5.32290       -5.08530        1.30760
H         -3.08820       -4.62490        2.14220
H         -1.48480       -3.18270        0.46440
H          0.49500       -4.49360       -0.12080
H          3.94100       -5.74390       -0.39040
H          2.20800       -5.92150       -0.72620
H          2.92500       -4.29340       -0.46780
H          1.61300       -4.61880        4.00500
H         -0.39040       -3.28840        4.57910
H         -0.46920        0.46900        7.86360
H          1.62770        1.65920        8.16210
H          3.76870        2.74690        8.32650
H          4.13860        4.06500        9.45480
H          2.82550        2.92990        9.84360
H         -0.40750        5.39630        7.72550
H         -2.53610        4.18830        7.41570
H         -5.28880        2.20010        6.53440
H         -7.21110        2.98750        7.84910
H         -9.50390        2.26050       10.94870
H         -8.18020        1.23440       10.34040
H         -9.05010        2.34030        9.23210
H         -4.78060        3.11050       11.35700
H         -2.84770        2.29800       10.04240
H         -4.86440       -0.07140        8.77790
H         -9.25230       -2.60930       10.33620
H        -10.83630       -4.38250        6.76700
H         -9.13450       -3.25000        5.39920
