
  xtb     02062208103D
 energy: -248.654385498747 gnorm: 0.000343836428 xtb: 6.4.1 (unknown)
139153  0     0  0            999 V2000
   -6.4744    1.4649    4.1982 C   0  0  0  0  0  0  0  0  0  0  0  0
   -5.9057    2.0983    5.2726 C   0  0  0  0  0  0  0  0  0  0  0  0
   -4.5841    2.7328    5.2732 C   0  0  0  0  0  0  0  0  0  0  0  0
   -3.8610    2.9357    4.3138 O   0  0  0  0  0  0  0  0  0  0  0  0
   -4.3121    3.1046    6.6751 C   0  0  0  0  0  0  0  0  0  0  0  0
   -3.1693    3.6610    7.2102 C   0  0  0  0  0  0  0  0  0  0  0  0
   -3.1641    3.9261    8.5755 C   0  0  0  0  0  0  0  0  0  0  0  0
   -1.7652    4.6291    9.2922 Cl  0  0  0  0  0  0  0  0  0  0  0  0
   -4.2676    3.6341    9.3696 C   0  0  0  0  0  0  0  0  0  0  0  0
   -5.4077    3.0638    8.8231 C   0  0  0  0  0  0  0  0  0  0  0  0
   -5.4356    2.7928    7.4628 C   0  0  0  0  0  0  0  0  0  0  0  0
   -6.4593    2.1919    6.6107 C   0  0  0  0  0  0  0  0  0  0  0  0
   -7.7113    1.8137    7.0204 C   0  0  0  0  0  0  0  0  0  0  0  0
   -8.7125    1.2597    6.1953 C   0  0  0  0  0  0  0  0  0  0  0  0
   -9.5808    0.8116    5.5913 N   0  0  0  0  0  0  0  0  0  0  0  0
   -8.1845    1.9484    8.3429 C   0  0  0  0  0  0  0  0  0  0  0  0
   -8.6314    2.0295    9.3970 N   0  0  0  0  0  0  0  0  0  0  0  0
   -5.9700    1.2788    2.9012 C   0  0  0  0  0  0  0  0  0  0  0  0
   -6.6331    0.5134    1.9480 C   0  0  0  0  0  0  0  0  0  0  0  0
   -5.9675    0.4059    0.7345 C   0  0  0  0  0  0  0  0  0  0  0  0
   -6.6923   -0.4483   -0.5690 Cl  0  0  0  0  0  0  0  0  0  0  0  0
   -4.7612    1.0979    0.7017 C   0  0  0  0  0  0  0  0  0  0  0  0
   -4.4804    1.8908    2.2357 S   0  0  0  0  0  0  0  0  0  0  0  0
   -3.7108    1.2677   -0.2480 C   0  0  0  0  0  0  0  0  0  0  0  0
   -3.0841    0.4263   -1.1637 C   0  0  0  0  0  0  0  0  0  0  0  0
   -3.4752   -0.8415   -1.5988 N   0  0  0  0  0  0  0  0  0  0  0  0
   -4.5481   -0.9869   -2.4846 C   0  0  0  0  0  0  0  0  0  0  0  0
   -5.0654    0.0996   -3.1833 C   0  0  0  0  0  0  0  0  0  0  0  0
   -6.1440   -0.0566   -4.0328 C   0  0  0  0  0  0  0  0  0  0  0  0
   -6.7168   -1.3085   -4.2060 C   0  0  0  0  0  0  0  0  0  0  0  0
   -8.0921   -1.6346   -5.2631 S   0  0  0  0  0  0  0  0  0  0  0  0
   -8.6275    0.0131   -5.8049 C   0  0  0  0  0  0  0  0  0  0  0  0
   -6.1882   -2.4036   -3.5225 C   0  0  0  0  0  0  0  0  0  0  0  0
   -5.1196   -2.2475   -2.6710 C   0  0  0  0  0  0  0  0  0  0  0  0
   -2.4084   -1.7657   -1.6475 C   0  0  0  0  0  0  0  0  0  0  0  0
   -2.0573   -2.4228   -2.8238 C   0  0  0  0  0  0  0  0  0  0  0  0
   -0.9119   -3.1908   -2.8758 C   0  0  0  0  0  0  0  0  0  0  0  0
   -0.0979   -3.3033   -1.7570 C   0  0  0  0  0  0  0  0  0  0  0  0
    1.4307   -4.1910   -1.7867 S   0  0  0  0  0  0  0  0  0  0  0  0
    2.0094   -3.9026   -3.4867 C   0  0  0  0  0  0  0  0  0  0  0  0
   -0.4781   -2.7039   -0.5601 C   0  0  0  0  0  0  0  0  0  0  0  0
   -1.6253   -1.9426   -0.5065 C   0  0  0  0  0  0  0  0  0  0  0  0
   -1.8416    0.9698   -1.5751 C   0  0  0  0  0  0  0  0  0  0  0  0
   -0.5682    0.3810   -2.5845 S   0  0  0  0  0  0  0  0  0  0  0  0
    0.3990    1.8097   -2.2471 C   0  0  0  0  0  0  0  0  0  0  0  0
   -0.2900    2.7436   -1.4752 C   0  0  0  0  0  0  0  0  0  0  0  0
    0.1627    3.9752   -1.0491 N   0  0  0  0  0  0  0  0  0  0  0  0
    0.6654    4.9332   -1.9264 C   0  0  0  0  0  0  0  0  0  0  0  0
    1.4940    5.9538   -1.4505 C   0  0  0  0  0  0  0  0  0  0  0  0
    1.9976    6.8977   -2.3153 C   0  0  0  0  0  0  0  0  0  0  0  0
    1.6956    6.8502   -3.6765 C   0  0  0  0  0  0  0  0  0  0  0  0
    2.4052    8.1150   -4.6814 S   0  0  0  0  0  0  0  0  0  0  0  0
    1.9336    7.6497   -6.3713 C   0  0  0  0  0  0  0  0  0  0  0  0
    0.8695    5.8414   -4.1531 C   0  0  0  0  0  0  0  0  0  0  0  0
    0.3576    4.8959   -3.2855 C   0  0  0  0  0  0  0  0  0  0  0  0
   -0.1192    4.3003    0.2962 C   0  0  0  0  0  0  0  0  0  0  0  0
   -0.7791    5.4771    0.6315 C   0  0  0  0  0  0  0  0  0  0  0  0
   -1.0872    5.7500    1.9494 C   0  0  0  0  0  0  0  0  0  0  0  0
   -0.7442    4.8449    2.9457 C   0  0  0  0  0  0  0  0  0  0  0  0
   -1.0748    5.1278    4.6527 S   0  0  0  0  0  0  0  0  0  0  0  0
   -2.5112    6.2395    4.6124 C   0  0  0  0  0  0  0  0  0  0  0  0
   -0.0725    3.6717    2.6121 C   0  0  0  0  0  0  0  0  0  0  0  0
    0.2378    3.3995    1.2982 C   0  0  0  0  0  0  0  0  0  0  0  0
   -1.5425    2.2191   -1.0653 C   0  0  0  0  0  0  0  0  0  0  0  0
   -2.7999    2.7677   -0.0196 S   0  0  0  0  0  0  0  0  0  0  0  0
    1.7806    1.7251   -2.5622 C   0  0  0  0  0  0  0  0  0  0  0  0
    2.7726    2.6761   -2.6405 C   0  0  0  0  0  0  0  0  0  0  0  0
    4.0456    2.1190   -2.8022 C   0  0  0  0  0  0  0  0  0  0  0  0
    5.4613    3.0705   -2.9004 Cl  0  0  0  0  0  0  0  0  0  0  0  0
    4.0791    0.7348   -2.7862 C   0  0  0  0  0  0  0  0  0  0  0  0
    2.4510    0.1185   -2.7053 S   0  0  0  0  0  0  0  0  0  0  0  0
    5.2161   -0.1096   -2.8283 C   0  0  0  0  0  0  0  0  0  0  0  0
    5.3566   -1.3380   -2.2645 C   0  0  0  0  0  0  0  0  0  0  0  0
    6.4373   -2.2499   -2.7315 C   0  0  0  0  0  0  0  0  0  0  0  0
    7.3616   -1.9611   -3.4578 O   0  0  0  0  0  0  0  0  0  0  0  0
    6.1051   -3.5706   -2.1674 C   0  0  0  0  0  0  0  0  0  0  0  0
    6.7673   -4.7747   -2.3995 C   0  0  0  0  0  0  0  0  0  0  0  0
    6.2384   -5.8456   -1.7199 C   0  0  0  0  0  0  0  0  0  0  0  0
    5.1298   -5.7306   -0.8692 C   0  0  0  0  0  0  0  0  0  0  0  0
    4.4711   -4.5504   -0.6238 C   0  0  0  0  0  0  0  0  0  0  0  0
    4.9883   -3.4497   -1.3123 C   0  0  0  0  0  0  0  0  0  0  0  0
    4.5817   -2.0478   -1.2656 C   0  0  0  0  0  0  0  0  0  0  0  0
    3.8072   -1.4894   -0.2825 C   0  0  0  0  0  0  0  0  0  0  0  0
    3.6738   -0.1048   -0.0465 C   0  0  0  0  0  0  0  0  0  0  0  0
    3.5630    0.9985    0.2537 N   0  0  0  0  0  0  0  0  0  0  0  0
    3.0942   -2.2153    0.6930 C   0  0  0  0  0  0  0  0  0  0  0  0
    2.4547   -2.7164    1.5048 N   0  0  0  0  0  0  0  0  0  0  0  0
    5.1519   -7.1945   -0.5108 C   0  0  0  0  0  0  0  0  0  0  0  0
    5.7254   -7.5850    0.8734 C   0  0  0  0  0  0  0  0  0  0  0  0
    6.6988   -6.4971    1.2545 C   0  0  0  0  0  0  0  0  0  0  0  0
    7.7543   -6.6015    0.4582 C   0  0  0  0  0  0  0  0  0  0  0  0
    7.5138   -7.7619   -0.4758 C   0  0  0  0  0  0  0  0  0  0  0  0
    6.7063   -8.6888    0.4470 C   0  0  0  0  0  0  0  0  0  0  0  0
    6.3928   -7.3215   -1.4503 C   0  0  0  0  0  0  0  0  0  0  0  0
   -7.4373    0.9934    4.3519 H   0  0  0  0  0  0  0  0  0  0  0  0
   -2.3132    3.8728    6.5884 H   0  0  0  0  0  0  0  0  0  0  0  0
   -4.2317    3.8505   10.4257 H   0  0  0  0  0  0  0  0  0  0  0  0
   -6.2456    2.8387    9.4621 H   0  0  0  0  0  0  0  0  0  0  0  0
   -7.5829    0.0454    2.1357 H   0  0  0  0  0  0  0  0  0  0  0  0
   -4.6265    1.0784   -3.0549 H   0  0  0  0  0  0  0  0  0  0  0  0
   -6.5208    0.8073   -4.5561 H   0  0  0  0  0  0  0  0  0  0  0  0
   -8.8528    0.6300   -4.9399 H   0  0  0  0  0  0  0  0  0  0  0  0
   -7.8649    0.4692   -6.4296 H   0  0  0  0  0  0  0  0  0  0  0  0
   -9.5291   -0.1502   -6.3870 H   0  0  0  0  0  0  0  0  0  0  0  0
   -6.6385   -3.3745   -3.6609 H   0  0  0  0  0  0  0  0  0  0  0  0
   -4.7265   -3.0937   -2.1282 H   0  0  0  0  0  0  0  0  0  0  0  0
   -2.6637   -2.3036   -3.7090 H   0  0  0  0  0  0  0  0  0  0  0  0
   -0.6470   -3.6777   -3.8007 H   0  0  0  0  0  0  0  0  0  0  0  0
    1.8715   -2.8542   -3.7343 H   0  0  0  0  0  0  0  0  0  0  0  0
    3.0660   -4.1534   -3.4885 H   0  0  0  0  0  0  0  0  0  0  0  0
    1.4816   -4.5449   -4.1853 H   0  0  0  0  0  0  0  0  0  0  0  0
    0.1449   -2.8213    0.3133 H   0  0  0  0  0  0  0  0  0  0  0  0
   -1.9067   -1.4485    0.4118 H   0  0  0  0  0  0  0  0  0  0  0  0
    1.7479    5.9876   -0.4023 H   0  0  0  0  0  0  0  0  0  0  0  0
    2.6423    7.6818   -1.9496 H   0  0  0  0  0  0  0  0  0  0  0  0
    0.8555    7.7085   -6.4898 H   0  0  0  0  0  0  0  0  0  0  0  0
    2.3040    6.6541   -6.5977 H   0  0  0  0  0  0  0  0  0  0  0  0
    2.4138    8.3775   -7.0179 H   0  0  0  0  0  0  0  0  0  0  0  0
    0.6073    5.7814   -5.1969 H   0  0  0  0  0  0  0  0  0  0  0  0
   -0.2890    4.1198   -3.6668 H   0  0  0  0  0  0  0  0  0  0  0  0
   -1.0540    6.1765   -0.1442 H   0  0  0  0  0  0  0  0  0  0  0  0
   -1.5976    6.6694    2.1875 H   0  0  0  0  0  0  0  0  0  0  0  0
   -3.2608    5.8157    3.9511 H   0  0  0  0  0  0  0  0  0  0  0  0
   -2.2154    7.2356    4.2965 H   0  0  0  0  0  0  0  0  0  0  0  0
   -2.8903    6.2788    5.6291 H   0  0  0  0  0  0  0  0  0  0  0  0
    0.2016    2.9797    3.3926 H   0  0  0  0  0  0  0  0  0  0  0  0
    0.7632    2.4927    1.0370 H   0  0  0  0  0  0  0  0  0  0  0  0
    2.6052    3.7337   -2.5873 H   0  0  0  0  0  0  0  0  0  0  0  0
    6.0625    0.2492   -3.4066 H   0  0  0  0  0  0  0  0  0  0  0  0
    7.6225   -4.8188   -3.0557 H   0  0  0  0  0  0  0  0  0  0  0  0
    3.6191   -4.4774    0.0298 H   0  0  0  0  0  0  0  0  0  0  0  0
    4.2575   -7.7590   -0.7659 H   0  0  0  0  0  0  0  0  0  0  0  0
    4.9751   -7.8397    1.6168 H   0  0  0  0  0  0  0  0  0  0  0  0
    6.5000   -5.7513    2.0017 H   0  0  0  0  0  0  0  0  0  0  0  0
    8.6146   -5.9601    0.4071 H   0  0  0  0  0  0  0  0  0  0  0  0
    8.3934   -8.1790   -0.9592 H   0  0  0  0  0  0  0  0  0  0  0  0
    7.2958   -9.0725    1.2782 H   0  0  0  0  0  0  0  0  0  0  0  0
    6.2285   -9.5150   -0.0777 H   0  0  0  0  0  0  0  0  0  0  0  0
    6.3148   -7.9776   -2.3151 H   0  0  0  0  0  0  0  0  0  0  0  0
  1  2  2  0  0  0  0
  2  3  1  0  0  0  0
  3  4  2  0  0  0  0
  3  5  1  0  0  0  0
  5  6  2  0  0  0  0
  6  7  1  0  0  0  0
  7  8  1  0  0  0  0
  7  9  2  0  0  0  0
  9 10  1  0  0  0  0
 10 11  2  0  0  0  0
 11 12  1  0  0  0  0
 12 13  2  0  0  0  0
 13 14  1  0  0  0  0
 14 15  3  0  0  0  0
 13 16  1  0  0  0  0
 16 17  3  0  0  0  0
  1 18  1  0  0  0  0
 18 19  2  0  0  0  0
 19 20  1  0  0  0  0
 20 21  1  0  0  0  0
 20 22  2  0  0  0  0
 22 23  1  0  0  0  0
 22 24  1  0  0  0  0
 24 25  2  0  0  0  0
 25 26  1  0  0  0  0
 26 27  1  0  0  0  0
 27 28  2  0  0  0  0
 28 29  1  0  0  0  0
 29 30  2  0  0  0  0
 30 31  1  0  0  0  0
 31 32  1  0  0  0  0
 30 33  1  0  0  0  0
 33 34  2  0  0  0  0
 26 35  1  0  0  0  0
 35 36  2  0  0  0  0
 36 37  1  0  0  0  0
 37 38  2  0  0  0  0
 38 39  1  0  0  0  0
 39 40  1  0  0  0  0
 38 41  1  0  0  0  0
 41 42  2  0  0  0  0
 25 43  1  0  0  0  0
 43 44  1  0  0  0  0
 44 45  1  0  0  0  0
 45 46  2  0  0  0  0
 46 47  1  0  0  0  0
 47 48  1  0  0  0  0
 48 49  2  0  0  0  0
 49 50  1  0  0  0  0
 50 51  2  0  0  0  0
 51 52  1  0  0  0  0
 52 53  1  0  0  0  0
 51 54  1  0  0  0  0
 54 55  2  0  0  0  0
 47 56  1  0  0  0  0
 56 57  2  0  0  0  0
 57 58  1  0  0  0  0
 58 59  2  0  0  0  0
 59 60  1  0  0  0  0
 60 61  1  0  0  0  0
 59 62  1  0  0  0  0
 62 63  2  0  0  0  0
 46 64  1  0  0  0  0
 64 65  1  0  0  0  0
 45 66  1  0  0  0  0
 66 67  2  0  0  0  0
 67 68  1  0  0  0  0
 68 69  1  0  0  0  0
 68 70  2  0  0  0  0
 70 71  1  0  0  0  0
 70 72  1  0  0  0  0
 72 73  2  0  0  0  0
 73 74  1  0  0  0  0
 74 75  2  0  0  0  0
 74 76  1  0  0  0  0
 76 77  2  0  0  0  0
 77 78  1  0  0  0  0
 78 79  2  0  0  0  0
 79 80  1  0  0  0  0
 80 81  2  0  0  0  0
 81 82  1  0  0  0  0
 82 83  2  0  0  0  0
 83 84  1  0  0  0  0
 84 85  3  0  0  0  0
 83 86  1  0  0  0  0
 86 87  3  0  0  0  0
 79 88  1  0  0  0  0
 88 89  1  0  0  0  0
 89 90  1  0  0  0  0
 90 91  2  0  0  0  0
 91 92  1  0  0  0  0
 92 93  1  0  0  0  0
 92 94  1  0  0  0  0
 12  2  1  0  0  0  0
 23 18  1  0  0  0  0
 65 24  1  0  0  0  0
 71 66  1  0  0  0  0
 82 73  1  0  0  0  0
 94 88  1  0  0  0  0
 11  5  1  0  0  0  0
 34 27  1  0  0  0  0
 42 35  1  0  0  0  0
 64 43  2  0  0  0  0
 81 76  1  0  0  0  0
 93 89  1  0  0  0  0
 55 48  1  0  0  0  0
 63 56  1  0  0  0  0
 94 78  1  0  0  0  0
  1 95  1  0  0  0  0
  6 96  1  0  0  0  0
  9 97  1  0  0  0  0
 10 98  1  0  0  0  0
 19 99  1  0  0  0  0
 28100  1  0  0  0  0
 29101  1  0  0  0  0
 32102  1  0  0  0  0
 32103  1  0  0  0  0
 32104  1  0  0  0  0
 33105  1  0  0  0  0
 34106  1  0  0  0  0
 36107  1  0  0  0  0
 37108  1  0  0  0  0
 40109  1  0  0  0  0
 40110  1  0  0  0  0
 40111  1  0  0  0  0
 41112  1  0  0  0  0
 42113  1  0  0  0  0
 49114  1  0  0  0  0
 50115  1  0  0  0  0
 53116  1  0  0  0  0
 53117  1  0  0  0  0
 53118  1  0  0  0  0
 54119  1  0  0  0  0
 55120  1  0  0  0  0
 57121  1  0  0  0  0
 58122  1  0  0  0  0
 61123  1  0  0  0  0
 61124  1  0  0  0  0
 61125  1  0  0  0  0
 62126  1  0  0  0  0
 63127  1  0  0  0  0
 67128  1  0  0  0  0
 72129  1  0  0  0  0
 77130  1  0  0  0  0
 80131  1  0  0  0  0
 88132  1  0  0  0  0
 89133  1  0  0  0  0
 90134  1  0  0  0  0
 91135  1  0  0  0  0
 92136  1  0  0  0  0
 93137  1  0  0  0  0
 93138  1  0  0  0  0
 94139  1  0  0  0  0
M  END
