
  xtb     02062200453D
 energy: -420.560755901553 gnorm: 0.000673462414 xtb: 6.4.1 (unknown)
254274  0     0  0            999 V2000
    6.6422   -3.9787    8.9730 C   0  0  0  0  0  0  0  0  0  0  0  0
    6.8893   -5.2153    9.5069 C   0  0  0  0  0  0  0  0  0  0  0  0
    6.4849   -6.5459    8.9981 C   0  0  0  0  0  0  0  0  0  0  0  0
    5.9542   -6.8402    7.9475 O   0  0  0  0  0  0  0  0  0  0  0  0
    6.8575   -7.5075   10.0576 C   0  0  0  0  0  0  0  0  0  0  0  0
    6.6479   -8.8709   10.0722 C   0  0  0  0  0  0  0  0  0  0  0  0
    7.0800   -9.5733   11.1905 C   0  0  0  0  0  0  0  0  0  0  0  0
    6.8448  -11.2779   11.2668 Cl  0  0  0  0  0  0  0  0  0  0  0  0
    7.6986   -8.9224   12.2526 C   0  0  0  0  0  0  0  0  0  0  0  0
    7.9077   -7.5523   12.2251 C   0  0  0  0  0  0  0  0  0  0  0  0
    7.4857   -6.8321   11.1158 C   0  0  0  0  0  0  0  0  0  0  0  0
    7.5632   -5.4126   10.7837 C   0  0  0  0  0  0  0  0  0  0  0  0
    8.2077   -4.4694   11.5409 C   0  0  0  0  0  0  0  0  0  0  0  0
    8.3764   -3.1037   11.2252 C   0  0  0  0  0  0  0  0  0  0  0  0
    8.5845   -1.9866   11.0568 N   0  0  0  0  0  0  0  0  0  0  0  0
    8.8429   -4.7456   12.7711 C   0  0  0  0  0  0  0  0  0  0  0  0
    9.3771   -4.8925   13.7764 N   0  0  0  0  0  0  0  0  0  0  0  0
    6.0137   -3.5840    7.7741 C   0  0  0  0  0  0  0  0  0  0  0  0
    5.5160   -4.2955    6.7082 C   0  0  0  0  0  0  0  0  0  0  0  0
    4.9587   -3.4952    5.6973 C   0  0  0  0  0  0  0  0  0  0  0  0
    4.3471   -3.9418    4.4998 C   0  0  0  0  0  0  0  0  0  0  0  0
    4.4019   -5.3330    4.1161 C   0  0  0  0  0  0  0  0  0  0  0  0
    5.4463   -6.2071    4.2719 C   0  0  0  0  0  0  0  0  0  0  0  0
    5.1358   -7.4930    3.7969 C   0  0  0  0  0  0  0  0  0  0  0  0
    6.2513   -8.7942    3.8606 Cl  0  0  0  0  0  0  0  0  0  0  0  0
    3.8768   -7.6382    3.2831 C   0  0  0  0  0  0  0  0  0  0  0  0
    3.0663   -9.2082    2.6021 Si  0  0  0  0  0  4  0  0  0  0  0  0
    1.3074   -8.7235    2.0352 C   0  0  0  0  0  0  0  0  0  0  0  0
    0.3265   -8.4710    3.1766 C   0  0  0  0  0  0  0  0  0  0  0  0
    4.1353   -9.7867    1.1226 C   0  0  0  0  0  0  0  0  0  0  0  0
    3.4355  -10.8145    0.2408 C   0  0  0  0  0  0  0  0  0  0  0  0
    3.0497  -10.5378    3.9823 C   0  0  0  0  0  0  0  0  0  0  0  0
    2.9343   -9.9691    5.3950 C   0  0  0  0  0  0  0  0  0  0  0  0
    3.0470   -6.1291    3.3703 S   0  0  0  0  0  0  0  0  0  0  0  0
    3.7030   -2.9732    3.7468 C   0  0  0  0  0  0  0  0  0  0  0  0
    3.6826   -1.5968    4.0981 C   0  0  0  0  0  0  0  0  0  0  0  0
    4.3968   -1.1311    5.2253 C   0  0  0  0  0  0  0  0  0  0  0  0
    4.5456    0.2770    5.5290 C   0  0  0  0  0  0  0  0  0  0  0  0
    3.3279    1.4676    5.1822 S   0  0  0  0  0  0  0  0  0  0  0  0
    4.2989    2.7812    5.7459 C   0  0  0  0  0  0  0  0  0  0  0  0
    3.6846    4.5611    5.5426 Si  0  0  0  0  0  4  0  0  0  0  0  0
    3.8323    5.4628    7.2189 C   0  0  0  0  0  0  0  0  0  0  0  0
    3.3207    6.8990    7.1652 C   0  0  0  0  0  0  0  0  0  0  0  0
    1.8746    4.4642    4.9272 C   0  0  0  0  0  0  0  0  0  0  0  0
    0.8867    3.9655    5.9762 C   0  0  0  0  0  0  0  0  0  0  0  0
    4.6575    5.4667    4.1562 C   0  0  0  0  0  0  0  0  0  0  0  0
    6.1331    5.7112    4.4507 C   0  0  0  0  0  0  0  0  0  0  0  0
    5.4832    2.2800    6.2099 C   0  0  0  0  0  0  0  0  0  0  0  0
    5.6343    0.8847    6.0990 C   0  0  0  0  0  0  0  0  0  0  0  0
    6.7233    3.2670    6.8830 Cl  0  0  0  0  0  0  0  0  0  0  0  0
    5.0021   -2.1096    6.0112 C   0  0  0  0  0  0  0  0  0  0  0  0
    5.8114   -1.8483    7.5253 S   0  0  0  0  0  0  0  0  0  0  0  0
    2.9383   -0.8416    3.1712 C   0  0  0  0  0  0  0  0  0  0  0  0
    2.4488   -1.5659    2.1199 C   0  0  0  0  0  0  0  0  0  0  0  0
    2.8536   -3.2605    2.2504 S   0  0  0  0  0  0  0  0  0  0  0  0
    1.6708   -1.0743    1.0381 C   0  0  0  0  0  0  0  0  0  0  0  0
    1.5504    0.2348    0.5825 C   0  0  0  0  0  0  0  0  0  0  0  0
    2.3559    1.3066    0.9245 N   0  0  0  0  0  0  0  0  0  0  0  0
    3.7124    1.1535    1.2440 C   0  0  0  0  0  0  0  0  0  0  0  0
    4.4809    0.1103    0.7259 C   0  0  0  0  0  0  0  0  0  0  0  0
    5.7851   -0.0585    1.1325 C   0  0  0  0  0  0  0  0  0  0  0  0
    6.3637    0.8115    2.0557 C   0  0  0  0  0  0  0  0  0  0  0  0
    8.0149    0.4537    2.5566 S   0  0  0  0  0  0  0  0  0  0  0  0
    8.4471    1.8262    3.6623 C   0  0  0  0  0  0  0  0  0  0  0  0
    5.6206    1.8815    2.5336 C   0  0  0  0  0  0  0  0  0  0  0  0
    4.3100    2.0436    2.1340 C   0  0  0  0  0  0  0  0  0  0  0  0
    1.8129    2.6013    0.8723 C   0  0  0  0  0  0  0  0  0  0  0  0
    0.5616    2.8711    1.4261 C   0  0  0  0  0  0  0  0  0  0  0  0
    0.0333    4.1424    1.3606 C   0  0  0  0  0  0  0  0  0  0  0  0
    0.7472    5.1679    0.7467 C   0  0  0  0  0  0  0  0  0  0  0  0
   -0.0139    6.7620    0.6786 S   0  0  0  0  0  0  0  0  0  0  0  0
    1.3423    7.8831    0.2410 C   0  0  0  0  0  0  0  0  0  0  0  0
    1.9969    4.9065    0.2011 C   0  0  0  0  0  0  0  0  0  0  0  0
    2.5228    3.6330    0.2643 C   0  0  0  0  0  0  0  0  0  0  0  0
    0.5229    0.3221   -0.3905 C   0  0  0  0  0  0  0  0  0  0  0  0
   -0.2699    1.6351   -1.1728 S   0  0  0  0  0  0  0  0  0  0  0  0
   -1.3099    0.5172   -2.0627 C   0  0  0  0  0  0  0  0  0  0  0  0
   -1.0552   -0.8077   -1.7491 C   0  0  0  0  0  0  0  0  0  0  0  0
   -1.6720   -1.9236   -2.2628 N   0  0  0  0  0  0  0  0  0  0  0  0
   -2.9251   -1.9194   -2.9001 C   0  0  0  0  0  0  0  0  0  0  0  0
   -4.0071   -1.1801   -2.4269 C   0  0  0  0  0  0  0  0  0  0  0  0
   -5.2320   -1.2691   -3.0541 C   0  0  0  0  0  0  0  0  0  0  0  0
   -5.4120   -2.1152   -4.1481 C   0  0  0  0  0  0  0  0  0  0  0  0
   -7.0227   -2.1584   -4.8636 S   0  0  0  0  0  0  0  0  0  0  0  0
   -6.8883   -3.3907   -6.1891 C   0  0  0  0  0  0  0  0  0  0  0  0
   -4.3367   -2.8609   -4.6157 C   0  0  0  0  0  0  0  0  0  0  0  0
   -3.1066   -2.7514   -4.0018 C   0  0  0  0  0  0  0  0  0  0  0  0
   -1.0688   -3.1891   -2.0909 C   0  0  0  0  0  0  0  0  0  0  0  0
    0.2725   -3.3947   -2.3946 C   0  0  0  0  0  0  0  0  0  0  0  0
    0.8615   -4.6294   -2.1965 C   0  0  0  0  0  0  0  0  0  0  0  0
    0.1135   -5.6799   -1.6862 C   0  0  0  0  0  0  0  0  0  0  0  0
    0.7731   -7.2832   -1.3648 S   0  0  0  0  0  0  0  0  0  0  0  0
    2.5677   -7.0080   -1.3760 C   0  0  0  0  0  0  0  0  0  0  0  0
   -1.2407   -5.4880   -1.4140 C   0  0  0  0  0  0  0  0  0  0  0  0
   -1.8266   -4.2591   -1.6141 C   0  0  0  0  0  0  0  0  0  0  0  0
   -0.0273   -0.8917   -0.7652 C   0  0  0  0  0  0  0  0  0  0  0  0
    0.6492   -2.1919    0.1517 S   0  0  0  0  0  0  0  0  0  0  0  0
   -2.3298    1.1662   -2.8436 C   0  0  0  0  0  0  0  0  0  0  0  0
   -2.5961    1.1498   -4.2036 C   0  0  0  0  0  0  0  0  0  0  0  0
   -1.8430    0.4356   -5.1196 N   0  0  0  0  0  0  0  0  0  0  0  0
   -0.4768    0.2501   -4.8370 C   0  0  0  0  0  0  0  0  0  0  0  0
    0.1400   -0.9816   -5.0449 C   0  0  0  0  0  0  0  0  0  0  0  0
    1.4523   -1.1691   -4.6672 C   0  0  0  0  0  0  0  0  0  0  0  0
    2.1680   -0.1434   -4.0502 C   0  0  0  0  0  0  0  0  0  0  0  0
    3.7772   -0.5447   -3.4433 S   0  0  0  0  0  0  0  0  0  0  0  0
    4.3409    0.9965   -2.6700 C   0  0  0  0  0  0  0  0  0  0  0  0
    1.5826    1.1071   -3.9173 C   0  0  0  0  0  0  0  0  0  0  0  0
    0.2771    1.3003   -4.3217 C   0  0  0  0  0  0  0  0  0  0  0  0
   -2.3726    0.0110   -6.3407 C   0  0  0  0  0  0  0  0  0  0  0  0
   -1.5506   -0.0757   -7.4663 C   0  0  0  0  0  0  0  0  0  0  0  0
   -2.0665   -0.4757   -8.6780 C   0  0  0  0  0  0  0  0  0  0  0  0
   -3.4186   -0.7820   -8.8028 C   0  0  0  0  0  0  0  0  0  0  0  0
   -3.9956   -1.2869  -10.3972 S   0  0  0  0  0  0  0  0  0  0  0  0
   -5.7166   -0.7058  -10.3954 C   0  0  0  0  0  0  0  0  0  0  0  0
   -4.2384   -0.7093   -7.6865 C   0  0  0  0  0  0  0  0  0  0  0  0
   -3.7196   -0.3219   -6.4657 C   0  0  0  0  0  0  0  0  0  0  0  0
   -3.6554    2.0411   -4.5138 C   0  0  0  0  0  0  0  0  0  0  0  0
   -4.5030    2.4457   -5.9644 S   0  0  0  0  0  0  0  0  0  0  0  0
   -5.5280    3.5846   -5.0832 C   0  0  0  0  0  0  0  0  0  0  0  0
   -5.1987    3.6451   -3.7203 C   0  0  0  0  0  0  0  0  0  0  0  0
   -5.8908    4.3614   -2.7924 N   0  0  0  0  0  0  0  0  0  0  0  0
   -7.2123    4.8039   -3.0679 C   0  0  0  0  0  0  0  0  0  0  0  0
   -8.2105    3.8824   -3.3700 C   0  0  0  0  0  0  0  0  0  0  0  0
   -9.4464    4.3260   -3.7891 C   0  0  0  0  0  0  0  0  0  0  0  0
   -9.6965    5.6895   -3.9076 C   0  0  0  0  0  0  0  0  0  0  0  0
  -11.2487    6.1944   -4.5818 S   0  0  0  0  0  0  0  0  0  0  0  0
  -10.7527    7.6455   -5.5602 C   0  0  0  0  0  0  0  0  0  0  0  0
   -8.7336    6.6059   -3.5025 C   0  0  0  0  0  0  0  0  0  0  0  0
   -7.4966    6.1639   -3.0763 C   0  0  0  0  0  0  0  0  0  0  0  0
   -5.4010    4.5794   -1.4909 C   0  0  0  0  0  0  0  0  0  0  0  0
   -6.2216    4.3005   -0.4000 C   0  0  0  0  0  0  0  0  0  0  0  0
   -5.7705    4.5363    0.8797 C   0  0  0  0  0  0  0  0  0  0  0  0
   -4.5031    5.0716    1.0900 C   0  0  0  0  0  0  0  0  0  0  0  0
   -3.9975    5.3252    2.7669 S   0  0  0  0  0  0  0  0  0  0  0  0
   -3.0834    6.8943    2.6610 C   0  0  0  0  0  0  0  0  0  0  0  0
   -3.6848    5.3610    0.0057 C   0  0  0  0  0  0  0  0  0  0  0  0
   -4.1337    5.1165   -1.2782 C   0  0  0  0  0  0  0  0  0  0  0  0
   -4.1386    2.7564   -3.4268 C   0  0  0  0  0  0  0  0  0  0  0  0
   -3.3176    2.3308   -1.9735 S   0  0  0  0  0  0  0  0  0  0  0  0
   -6.5241    4.3180   -5.7501 C   0  0  0  0  0  0  0  0  0  0  0  0
   -7.2550    3.9629   -6.8515 C   0  0  0  0  0  0  0  0  0  0  0  0
   -7.9996    4.9955   -7.5975 C   0  0  0  0  0  0  0  0  0  0  0  0
   -8.1872    6.1474   -7.2616 O   0  0  0  0  0  0  0  0  0  0  0  0
   -8.4602    4.3265   -8.8358 C   0  0  0  0  0  0  0  0  0  0  0  0
   -9.1141    4.8690   -9.9214 C   0  0  0  0  0  0  0  0  0  0  0  0
   -9.4203    4.0194  -10.9793 C   0  0  0  0  0  0  0  0  0  0  0  0
  -10.2309    4.6491  -12.3639 Cl  0  0  0  0  0  0  0  0  0  0  0  0
   -9.0853    2.6716  -10.9417 C   0  0  0  0  0  0  0  0  0  0  0  0
   -8.4416    2.1305   -9.8382 C   0  0  0  0  0  0  0  0  0  0  0  0
   -8.1223    2.9614   -8.7765 C   0  0  0  0  0  0  0  0  0  0  0  0
   -7.4949    2.6896   -7.4835 C   0  0  0  0  0  0  0  0  0  0  0  0
   -7.4224    1.4521   -6.8884 C   0  0  0  0  0  0  0  0  0  0  0  0
   -7.7343    0.2453   -7.5368 C   0  0  0  0  0  0  0  0  0  0  0  0
   -7.9444   -0.7732   -8.0269 N   0  0  0  0  0  0  0  0  0  0  0  0
   -7.1580    1.2670   -5.5187 C   0  0  0  0  0  0  0  0  0  0  0  0
   -7.0326    1.0908   -4.3900 N   0  0  0  0  0  0  0  0  0  0  0  0
    6.9643   -3.1340    9.5705 H   0  0  0  0  0  0  0  0  0  0  0  0
    6.1657   -9.3621    9.2418 H   0  0  0  0  0  0  0  0  0  0  0  0
    8.0197   -9.4949   13.1086 H   0  0  0  0  0  0  0  0  0  0  0  0
    8.3874   -7.0744   13.0629 H   0  0  0  0  0  0  0  0  0  0  0  0
    5.5197   -5.3684    6.6843 H   0  0  0  0  0  0  0  0  0  0  0  0
    6.4074   -5.9396    4.6699 H   0  0  0  0  0  0  0  0  0  0  0  0
    0.9009   -9.5099    1.3987 H   0  0  0  0  0  0  0  0  0  0  0  0
    1.3562   -7.8259    1.4175 H   0  0  0  0  0  0  0  0  0  0  0  0
   -0.6444   -8.1761    2.7833 H   0  0  0  0  0  0  0  0  0  0  0  0
    0.1913   -9.3679    3.7758 H   0  0  0  0  0  0  0  0  0  0  0  0
    0.6852   -7.6740    3.8232 H   0  0  0  0  0  0  0  0  0  0  0  0
    5.0629  -10.2201    1.4959 H   0  0  0  0  0  0  0  0  0  0  0  0
    4.4266   -8.9291    0.5144 H   0  0  0  0  0  0  0  0  0  0  0  0
    3.1563  -11.6886    0.8235 H   0  0  0  0  0  0  0  0  0  0  0  0
    2.5326  -10.3980   -0.1990 H   0  0  0  0  0  0  0  0  0  0  0  0
    4.0886  -11.1398   -0.5673 H   0  0  0  0  0  0  0  0  0  0  0  0
    3.9592  -11.1373    3.9226 H   0  0  0  0  0  0  0  0  0  0  0  0
    2.2190  -11.2239    3.8086 H   0  0  0  0  0  0  0  0  0  0  0  0
    3.7889   -9.3385    5.6258 H   0  0  0  0  0  0  0  0  0  0  0  0
    2.8976  -10.7730    6.1282 H   0  0  0  0  0  0  0  0  0  0  0  0
    2.0347   -9.3688    5.5017 H   0  0  0  0  0  0  0  0  0  0  0  0
    4.8716    5.4714    7.5473 H   0  0  0  0  0  0  0  0  0  0  0  0
    3.2762    4.9145    7.9810 H   0  0  0  0  0  0  0  0  0  0  0  0
    3.8927    7.4844    6.4497 H   0  0  0  0  0  0  0  0  0  0  0  0
    2.2756    6.9258    6.8667 H   0  0  0  0  0  0  0  0  0  0  0  0
    3.4084    7.3756    8.1398 H   0  0  0  0  0  0  0  0  0  0  0  0
    1.5554    5.4499    4.5854 H   0  0  0  0  0  0  0  0  0  0  0  0
    1.8166    3.8096    4.0552 H   0  0  0  0  0  0  0  0  0  0  0  0
   -0.1196    3.9192    5.5643 H   0  0  0  0  0  0  0  0  0  0  0  0
    0.8713    4.6284    6.8373 H   0  0  0  0  0  0  0  0  0  0  0  0
    1.1599    2.9700    6.3167 H   0  0  0  0  0  0  0  0  0  0  0  0
    4.1738    6.4301    3.9840 H   0  0  0  0  0  0  0  0  0  0  0  0
    4.5728    4.9152    3.2180 H   0  0  0  0  0  0  0  0  0  0  0  0
    6.6019    6.2661    3.6391 H   0  0  0  0  0  0  0  0  0  0  0  0
    6.6649    4.7718    4.5708 H   0  0  0  0  0  0  0  0  0  0  0  0
    6.2533    6.2837    5.3663 H   0  0  0  0  0  0  0  0  0  0  0  0
    6.5308    0.3708    6.3931 H   0  0  0  0  0  0  0  0  0  0  0  0
    2.7268    0.2008    3.2847 H   0  0  0  0  0  0  0  0  0  0  0  0
    4.0538   -0.5763    0.0113 H   0  0  0  0  0  0  0  0  0  0  0  0
    6.3720   -0.8764    0.7437 H   0  0  0  0  0  0  0  0  0  0  0  0
    7.7982    1.8252    4.5324 H   0  0  0  0  0  0  0  0  0  0  0  0
    8.3882    2.7681    3.1246 H   0  0  0  0  0  0  0  0  0  0  0  0
    9.4722    1.6410    3.9681 H   0  0  0  0  0  0  0  0  0  0  0  0
    6.0355    2.5839    3.2373 H   0  0  0  0  0  0  0  0  0  0  0  0
    3.7313    2.8592    2.5407 H   0  0  0  0  0  0  0  0  0  0  0  0
    0.0119    2.0811    1.9148 H   0  0  0  0  0  0  0  0  0  0  0  0
   -0.9347    4.3454    1.7910 H   0  0  0  0  0  0  0  0  0  0  0  0
    0.9470    8.8857    0.3725 H   0  0  0  0  0  0  0  0  0  0  0  0
    2.1785    7.7219    0.9147 H   0  0  0  0  0  0  0  0  0  0  0  0
    1.6334    7.7376   -0.7952 H   0  0  0  0  0  0  0  0  0  0  0  0
    2.5654    5.6807   -0.2884 H   0  0  0  0  0  0  0  0  0  0  0  0
    3.4939    3.4324   -0.1651 H   0  0  0  0  0  0  0  0  0  0  0  0
   -3.8965   -0.5616   -1.5495 H   0  0  0  0  0  0  0  0  0  0  0  0
   -6.0701   -0.6902   -2.6997 H   0  0  0  0  0  0  0  0  0  0  0  0
   -6.6733   -4.3688   -5.7688 H   0  0  0  0  0  0  0  0  0  0  0  0
   -6.1283   -3.0913   -6.9043 H   0  0  0  0  0  0  0  0  0  0  0  0
   -7.8602   -3.3949   -6.6725 H   0  0  0  0  0  0  0  0  0  0  0  0
   -4.4394   -3.5221   -5.4601 H   0  0  0  0  0  0  0  0  0  0  0  0
   -2.2745   -3.3342   -4.3687 H   0  0  0  0  0  0  0  0  0  0  0  0
    0.8599   -2.5799   -2.7876 H   0  0  0  0  0  0  0  0  0  0  0  0
    1.9038   -4.7510   -2.4420 H   0  0  0  0  0  0  0  0  0  0  0  0
    2.8135   -6.1923   -0.7021 H   0  0  0  0  0  0  0  0  0  0  0  0
    3.0061   -7.9332   -1.0167 H   0  0  0  0  0  0  0  0  0  0  0  0
    2.9135   -6.8067   -2.3857 H   0  0  0  0  0  0  0  0  0  0  0  0
   -1.8201   -6.3126   -1.0286 H   0  0  0  0  0  0  0  0  0  0  0  0
   -2.8725   -4.1126   -1.3895 H   0  0  0  0  0  0  0  0  0  0  0  0
   -0.4204   -1.7912   -5.4866 H   0  0  0  0  0  0  0  0  0  0  0  0
    1.9348   -2.1214   -4.8289 H   0  0  0  0  0  0  0  0  0  0  0  0
    5.2980    0.7643   -2.2128 H   0  0  0  0  0  0  0  0  0  0  0  0
    3.6341    1.3061   -1.9056 H   0  0  0  0  0  0  0  0  0  0  0  0
    4.4689    1.7660   -3.4261 H   0  0  0  0  0  0  0  0  0  0  0  0
    2.1216    1.9389   -3.4944 H   0  0  0  0  0  0  0  0  0  0  0  0
   -0.1719    2.2765   -4.2119 H   0  0  0  0  0  0  0  0  0  0  0  0
   -0.5061    0.1867   -7.3888 H   0  0  0  0  0  0  0  0  0  0  0  0
   -1.4301   -0.5397   -9.5470 H   0  0  0  0  0  0  0  0  0  0  0  0
   -6.3422   -1.3341   -9.7679 H   0  0  0  0  0  0  0  0  0  0  0  0
   -5.7370    0.3257  -10.0549 H   0  0  0  0  0  0  0  0  0  0  0  0
   -6.0510   -0.7663  -11.4264 H   0  0  0  0  0  0  0  0  0  0  0  0
   -5.2856   -0.9573   -7.7548 H   0  0  0  0  0  0  0  0  0  0  0  0
   -4.3616   -0.2989   -5.5999 H   0  0  0  0  0  0  0  0  0  0  0  0
   -7.9947    2.8260   -3.3191 H   0  0  0  0  0  0  0  0  0  0  0  0
  -10.2198    3.6212   -4.0522 H   0  0  0  0  0  0  0  0  0  0  0  0
  -11.5718    7.8346   -6.2467 H   0  0  0  0  0  0  0  0  0  0  0  0
   -9.8484    7.4022   -6.1113 H   0  0  0  0  0  0  0  0  0  0  0  0
  -10.6076    8.5093   -4.9183 H   0  0  0  0  0  0  0  0  0  0  0  0
   -8.9364    7.6642   -3.5378 H   0  0  0  0  0  0  0  0  0  0  0  0
   -6.7332    6.8719   -2.7882 H   0  0  0  0  0  0  0  0  0  0  0  0
   -7.2082    3.8956   -0.5660 H   0  0  0  0  0  0  0  0  0  0  0  0
   -6.3955    4.3115    1.7299 H   0  0  0  0  0  0  0  0  0  0  0  0
   -3.6507    7.5926    2.0546 H   0  0  0  0  0  0  0  0  0  0  0  0
   -2.0926    6.7381    2.2471 H   0  0  0  0  0  0  0  0  0  0  0  0
   -3.0052    7.2607    3.6796 H   0  0  0  0  0  0  0  0  0  0  0  0
   -2.7003    5.7769    0.1539 H   0  0  0  0  0  0  0  0  0  0  0  0
   -3.5019    5.3511   -2.1221 H   0  0  0  0  0  0  0  0  0  0  0  0
   -6.7114    5.3262   -5.3977 H   0  0  0  0  0  0  0  0  0  0  0  0
   -9.3760    5.9150   -9.9429 H   0  0  0  0  0  0  0  0  0  0  0  0
   -9.3334    2.0406  -11.7807 H   0  0  0  0  0  0  0  0  0  0  0  0
   -8.1954    1.0809   -9.8283 H   0  0  0  0  0  0  0  0  0  0  0  0
  1  2  2  0  0  0  0
  2  3  1  0  0  0  0
  3  4  2  0  0  0  0
  3  5  1  0  0  0  0
  5  6  2  0  0  0  0
  6  7  1  0  0  0  0
  7  8  1  0  0  0  0
  7  9  2  0  0  0  0
  9 10  1  0  0  0  0
 10 11  2  0  0  0  0
 11 12  1  0  0  0  0
 12 13  2  0  0  0  0
 13 14  1  0  0  0  0
 14 15  3  0  0  0  0
 13 16  1  0  0  0  0
 16 17  3  0  0  0  0
  1 18  1  0  0  0  0
 18 19  2  0  0  0  0
 19 20  1  0  0  0  0
 20 21  2  0  0  0  0
 21 22  1  0  0  0  0
 22 23  2  0  0  0  0
 23 24  1  0  0  0  0
 24 25  1  0  0  0  0
 24 26  2  0  0  0  0
 26 27  1  0  0  0  0
 27 28  1  0  0  0  0
 28 29  1  0  0  0  0
 27 30  1  0  0  0  0
 30 31  1  0  0  0  0
 27 32  1  0  0  0  0
 32 33  1  0  0  0  0
 26 34  1  0  0  0  0
 21 35  1  0  0  0  0
 35 36  2  0  0  0  0
 36 37  1  0  0  0  0
 37 38  1  0  0  0  0
 38 39  1  0  0  0  0
 39 40  1  0  0  0  0
 40 41  1  0  0  0  0
 41 42  1  0  0  0  0
 42 43  1  0  0  0  0
 41 44  1  0  0  0  0
 44 45  1  0  0  0  0
 41 46  1  0  0  0  0
 46 47  1  0  0  0  0
 40 48  2  0  0  0  0
 48 49  1  0  0  0  0
 48 50  1  0  0  0  0
 37 51  2  0  0  0  0
 51 52  1  0  0  0  0
 36 53  1  0  0  0  0
 53 54  2  0  0  0  0
 54 55  1  0  0  0  0
 54 56  1  0  0  0  0
 56 57  2  0  0  0  0
 57 58  1  0  0  0  0
 58 59  1  0  0  0  0
 59 60  2  0  0  0  0
 60 61  1  0  0  0  0
 61 62  2  0  0  0  0
 62 63  1  0  0  0  0
 63 64  1  0  0  0  0
 62 65  1  0  0  0  0
 65 66  2  0  0  0  0
 58 67  1  0  0  0  0
 67 68  2  0  0  0  0
 68 69  1  0  0  0  0
 69 70  2  0  0  0  0
 70 71  1  0  0  0  0
 71 72  1  0  0  0  0
 70 73  1  0  0  0  0
 73 74  2  0  0  0  0
 57 75  1  0  0  0  0
 75 76  1  0  0  0  0
 76 77  1  0  0  0  0
 77 78  2  0  0  0  0
 78 79  1  0  0  0  0
 79 80  1  0  0  0  0
 80 81  2  0  0  0  0
 81 82  1  0  0  0  0
 82 83  2  0  0  0  0
 83 84  1  0  0  0  0
 84 85  1  0  0  0  0
 83 86  1  0  0  0  0
 86 87  2  0  0  0  0
 79 88  1  0  0  0  0
 88 89  2  0  0  0  0
 89 90  1  0  0  0  0
 90 91  2  0  0  0  0
 91 92  1  0  0  0  0
 92 93  1  0  0  0  0
 91 94  1  0  0  0  0
 94 95  2  0  0  0  0
 78 96  1  0  0  0  0
 96 97  1  0  0  0  0
 77 98  1  0  0  0  0
 98 99  2  0  0  0  0
 99100  1  0  0  0  0
100101  1  0  0  0  0
101102  2  0  0  0  0
102103  1  0  0  0  0
103104  2  0  0  0  0
104105  1  0  0  0  0
105106  1  0  0  0  0
104107  1  0  0  0  0
107108  2  0  0  0  0
100109  1  0  0  0  0
109110  2  0  0  0  0
110111  1  0  0  0  0
111112  2  0  0  0  0
112113  1  0  0  0  0
113114  1  0  0  0  0
112115  1  0  0  0  0
115116  2  0  0  0  0
 99117  1  0  0  0  0
117118  1  0  0  0  0
118119  1  0  0  0  0
119120  2  0  0  0  0
120121  1  0  0  0  0
121122  1  0  0  0  0
122123  2  0  0  0  0
123124  1  0  0  0  0
124125  2  0  0  0  0
125126  1  0  0  0  0
126127  1  0  0  0  0
125128  1  0  0  0  0
128129  2  0  0  0  0
121130  1  0  0  0  0
130131  2  0  0  0  0
131132  1  0  0  0  0
132133  2  0  0  0  0
133134  1  0  0  0  0
134135  1  0  0  0  0
133136  1  0  0  0  0
136137  2  0  0  0  0
120138  1  0  0  0  0
138139  1  0  0  0  0
119140  1  0  0  0  0
140141  2  0  0  0  0
141142  1  0  0  0  0
142143  2  0  0  0  0
142144  1  0  0  0  0
144145  2  0  0  0  0
145146  1  0  0  0  0
146147  1  0  0  0  0
146148  2  0  0  0  0
148149  1  0  0  0  0
149150  2  0  0  0  0
150151  1  0  0  0  0
151152  2  0  0  0  0
152153  1  0  0  0  0
153154  3  0  0  0  0
152155  1  0  0  0  0
155156  3  0  0  0  0
 12  2  1  0  0  0  0
 52 18  1  0  0  0  0
 97 56  1  0  0  0  0
139 98  1  0  0  0  0
151141  1  0  0  0  0
 11  5  1  0  0  0  0
 51 20  1  0  0  0  0
 66 59  1  0  0  0  0
 74 67  1  0  0  0  0
 96 75  2  0  0  0  0
108101  1  0  0  0  0
116109  1  0  0  0  0
138117  2  0  0  0  0
150144  1  0  0  0  0
 34 22  1  0  0  0  0
 55 35  1  0  0  0  0
 87 80  1  0  0  0  0
 95 88  1  0  0  0  0
129122  1  0  0  0  0
137130  1  0  0  0  0
 49 38  2  0  0  0  0
  1157  1  0  0  0  0
  6158  1  0  0  0  0
  9159  1  0  0  0  0
 10160  1  0  0  0  0
 19161  1  0  0  0  0
 23162  1  0  0  0  0
 28163  1  0  0  0  0
 28164  1  0  0  0  0
 29165  1  0  0  0  0
 29166  1  0  0  0  0
 29167  1  0  0  0  0
 30168  1  0  0  0  0
 30169  1  0  0  0  0
 31170  1  0  0  0  0
 31171  1  0  0  0  0
 31172  1  0  0  0  0
 32173  1  0  0  0  0
 32174  1  0  0  0  0
 33175  1  0  0  0  0
 33176  1  0  0  0  0
 33177  1  0  0  0  0
 42178  1  0  0  0  0
 42179  1  0  0  0  0
 43180  1  0  0  0  0
 43181  1  0  0  0  0
 43182  1  0  0  0  0
 44183  1  0  0  0  0
 44184  1  0  0  0  0
 45185  1  0  0  0  0
 45186  1  0  0  0  0
 45187  1  0  0  0  0
 46188  1  0  0  0  0
 46189  1  0  0  0  0
 47190  1  0  0  0  0
 47191  1  0  0  0  0
 47192  1  0  0  0  0
 49193  1  0  0  0  0
 53194  1  0  0  0  0
 60195  1  0  0  0  0
 61196  1  0  0  0  0
 64197  1  0  0  0  0
 64198  1  0  0  0  0
 64199  1  0  0  0  0
 65200  1  0  0  0  0
 66201  1  0  0  0  0
 68202  1  0  0  0  0
 69203  1  0  0  0  0
 72204  1  0  0  0  0
 72205  1  0  0  0  0
 72206  1  0  0  0  0
 73207  1  0  0  0  0
 74208  1  0  0  0  0
 81209  1  0  0  0  0
 82210  1  0  0  0  0
 85211  1  0  0  0  0
 85212  1  0  0  0  0
 85213  1  0  0  0  0
 86214  1  0  0  0  0
 87215  1  0  0  0  0
 89216  1  0  0  0  0
 90217  1  0  0  0  0
 93218  1  0  0  0  0
 93219  1  0  0  0  0
 93220  1  0  0  0  0
 94221  1  0  0  0  0
 95222  1  0  0  0  0
102223  1  0  0  0  0
103224  1  0  0  0  0
106225  1  0  0  0  0
106226  1  0  0  0  0
106227  1  0  0  0  0
107228  1  0  0  0  0
108229  1  0  0  0  0
110230  1  0  0  0  0
111231  1  0  0  0  0
114232  1  0  0  0  0
114233  1  0  0  0  0
114234  1  0  0  0  0
115235  1  0  0  0  0
116236  1  0  0  0  0
123237  1  0  0  0  0
124238  1  0  0  0  0
127239  1  0  0  0  0
127240  1  0  0  0  0
127241  1  0  0  0  0
128242  1  0  0  0  0
129243  1  0  0  0  0
131244  1  0  0  0  0
132245  1  0  0  0  0
135246  1  0  0  0  0
135247  1  0  0  0  0
135248  1  0  0  0  0
136249  1  0  0  0  0
137250  1  0  0  0  0
140251  1  0  0  0  0
145252  1  0  0  0  0
148253  1  0  0  0  0
149254  1  0  0  0  0
M  END
