244

C         -9.21170        1.96070       -0.67980
C        -10.08500        2.70400        0.08730
C         -9.71960        3.72970        1.06440
O         -8.60640        4.03510        1.45510
C        -10.98730        4.36350        1.48080
C        -11.19110        5.39550        2.37440
C        -12.48980        5.82730        2.60140
C        -13.54130        5.21990        1.93300
I        -15.50930        5.89940        2.29400
C        -13.35180        4.17870        1.03350
C        -12.05560        3.74830        0.80720
C        -11.52080        2.68310       -0.04530
C        -12.28060        1.81710       -0.79410
C        -11.79150        0.70140       -1.49920
N        -11.48260       -0.24870       -2.06850
C        -13.67980        1.90970       -0.93380
N        -14.81460        1.94070       -1.10740
C         -7.82310        1.88100       -0.64740
C         -7.06890        1.07970       -1.54770
N         -7.55510        0.47210       -2.66970
C         -6.98200       -0.73850       -3.10540
C         -6.66090       -1.73630       -2.18890
C         -6.14410       -2.93970       -2.62720
C         -5.95130       -3.18360       -3.98110
C         -5.47160       -4.51470       -4.46640
C         -6.25660       -2.17320       -4.88700
C         -6.76020       -0.96170       -4.46130
C         -8.56110        1.05940       -3.46400
C         -8.58410        2.43650       -3.66960
C         -9.58330        3.00360       -4.43490
C        -10.56690        2.21960       -5.02700
C        -11.66410        2.83080       -5.84190
C        -10.51300        0.84250       -4.84430
C         -9.52850        0.26180       -4.07020
C         -5.72590        1.00020       -1.13580
S         -4.30690        0.24260       -1.78230
C         -3.33550        0.93530       -0.49300
C         -4.07120        1.72230        0.36960
N         -3.55250        2.37960        1.47210
C         -4.30820        2.46840        2.64650
C         -4.16400        3.54900        3.51220
C         -4.92630        3.62530        4.66190
C         -5.86340        2.64850        4.97300
C         -6.71390        2.74370        6.20240
C         -6.00310        1.57450        4.10270
C         -5.22960        1.47290        2.96550
C         -2.36480        3.11880        1.31780
C         -1.34160        3.03250        2.25510
C         -0.17770        3.75720        2.07890
C         -0.00400        4.58060        0.97340
C          1.26230        5.35100        0.76140
C         -1.04030        4.67420        0.05080
C         -2.20760        3.95700        0.21680
C         -5.44070        1.75060       -0.00480
S         -6.80770        2.60790        0.60320
C         -1.92850        0.60370       -0.40700
C         -1.41860       -0.53270        0.17270
N         -2.22450       -1.55130        0.71340
C         -2.40510       -2.69980       -0.05560
C         -2.64520       -3.94240        0.53650
C         -2.80400       -5.06720       -0.24240
C         -2.71410       -4.98970       -1.62980
S         -2.91890       -6.49710       -2.53990
C         -2.03060       -6.16420       -4.09160
C         -2.47290       -3.76160       -2.22580
C         -2.31200       -2.63370       -1.44580
C         -2.79760       -1.34800        1.96870
C         -2.15600       -0.52850        2.89500
C         -2.69510       -0.31160        4.14750
C         -3.88900       -0.91900        4.50570
S         -4.64930       -0.74370        6.08930
C         -3.70500        0.58950        6.87740
C         -4.54650       -1.72330        3.57750
C         -4.01970       -1.92410        2.32090
C         -0.00290       -0.55440        0.12940
S          1.22730       -1.56640        0.80640
C          2.46830       -0.49280        0.18760
C          1.94670        0.59450       -0.47820
N          2.72620        1.62610       -1.01050
C          2.62150        1.91630       -2.37050
C          3.01260        3.14800       -2.89780
C          2.98550        3.36190       -4.25790
C          2.54220        2.36880       -5.12780
S          2.62450        2.72280       -6.85570
C          2.15000        1.15390       -7.63580
C          2.06760        1.17670       -4.60370
C          2.11290        0.95720       -3.24310
C          3.59110        2.30100       -0.14130
C          4.84660        2.75150       -0.54150
C          5.65960        3.45470        0.32660
C          5.23500        3.72040        1.62060
S          6.15380        4.67880        2.78920
C          7.77700        4.89810        2.01190
C          3.99730        3.23700        2.04010
C          3.18950        2.53520        1.17580
C          0.53400        0.55060       -0.51050
S         -0.67910        1.62750       -1.08980
C          3.89130       -0.73020        0.27770
C          4.66610       -1.06690       -0.81520
N          4.10070       -1.57120       -1.98360
C          3.23130       -2.66440       -1.78590
C          2.02190       -2.79320       -2.46130
C          1.17600       -3.84870       -2.17670
C          1.50550       -4.80490       -1.22390
C          0.57530       -5.92910       -0.89420
C          2.72320       -4.68040       -0.56770
C          3.57460       -3.63140       -0.84250
C          4.51430       -1.13250       -3.23930
C          5.14100        0.10650       -3.36620
C          5.53100        0.57520       -4.60100
C          5.30860       -0.16870       -5.75410
C          5.74030        0.36000       -7.08800
C          4.69630       -1.40720       -5.62120
C          4.30850       -1.89300       -4.38650
C          6.04540       -0.96900       -0.52130
S          7.46440       -1.23420       -1.46190
C          8.45670       -0.84150       -0.05420
C          7.67500       -0.67820        1.13030
N          8.18860       -0.63800        2.38650
C          9.44350       -1.20460        2.71810
C         10.29210       -0.52420        3.58560
C         11.53150       -1.05130        3.89250
C         11.95630       -2.25650        3.34580
C         13.32600       -2.78200        3.63190
C         11.07920       -2.94830        2.51470
C          9.83270       -2.44120        2.20940
C          7.42870       -0.14170        3.46850
C          6.79240        1.09110        3.38800
C          6.09390        1.57570        4.47610
C          6.01270        0.85190        5.65890
C          5.23950        1.38370        6.82470
C          6.65290       -0.38040        5.72770
C          7.35690       -0.87520        4.64910
C          6.30280       -0.66540        0.81260
S          4.83690       -0.43660        1.71980
C          9.82020       -0.59770       -0.09360
C         10.75600       -0.84650       -1.08160
C         10.50690       -1.59360       -2.30690
O          9.43700       -1.95720       -2.75880
C         11.84030       -1.84440       -2.90250
C         12.14380       -2.47550       -4.09380
Cl        10.93130       -3.20060       -5.05200
C         13.48290       -2.49780       -4.50980
Cl        13.91430       -3.29880       -5.95730
C         14.45360       -1.83460       -3.76340
Cl        16.06730       -1.80460       -4.33320
C         14.13390       -1.17950       -2.56220
Cl        15.36410       -0.26200       -1.79570
C         12.82710       -1.24290       -2.09340
C         12.17470       -0.66860       -0.91830
C         12.79170       -0.14280        0.20060
C         14.07190       -0.48340        0.67070
N         15.01500       -0.83100        1.22890
C         12.15710        0.71040        1.12190
N         11.73860        1.48110        1.86720
H         -9.67210        1.33290       -1.43170
H        -10.35390        5.84940        2.88160
H        -12.68100        6.63190        3.29440
H        -14.19520        3.73160        0.53360
H         -6.83840       -1.57220       -1.13610
H         -5.90250       -3.70790       -1.90720
H         -6.31930       -5.10890       -4.80930
H         -4.79160       -4.39720       -5.30840
H         -4.97890       -5.06570       -3.67040
H         -6.10040       -2.33970       -5.94300
H         -6.99170       -0.18520       -5.17510
H         -7.82290        3.05820       -3.22110
H         -9.59320        4.07430       -4.57980
H        -11.67230        2.41000       -6.84630
H        -11.54340        3.90850       -5.91590
H        -12.63160        2.61930       -5.38760
H        -11.26570        0.21570       -5.29760
H         -9.51370       -0.80590       -3.91930
H         -3.46110        4.33480        3.27880
H         -4.79810        4.47160        5.32220
H         -7.70550        3.11260        5.93950
H         -6.83360        1.76430        6.66180
H         -6.27880        3.42700        6.92820
H         -6.71910        0.79780        4.32620
H         -5.33200        0.61110        2.32390
H         -1.47020        2.39850        3.11970
H          0.60970        3.68250        2.81550
H          1.81780        4.93030       -0.07700
H          1.04160        6.39060        0.52600
H          1.89840        5.31570        1.64170
H         -0.92920        5.31850       -0.80900
H         -3.00660        4.03890       -0.50560
H         -2.68330       -4.02680        1.61160
H         -2.98560       -6.02620        0.21920
H         -1.91330       -7.12870       -4.57570
H         -2.60900       -5.50320       -4.72980
H         -1.05630       -5.73880       -3.87060
H         -2.41860       -3.66480       -3.29870
H         -2.12400       -1.68750       -1.92990
H         -1.21550       -0.06640        2.63420
H         -2.16550        0.32350        4.83940
H         -4.21500        0.79580        7.81310
H         -3.72450        1.47070        6.24200
H         -2.68930        0.26180        7.07970
H         -5.48650       -2.17800        3.85090
H         -4.55820       -2.52290        1.60180
H          3.34550        3.93760       -2.24150
H          3.31210        4.30720       -4.66390
H          1.10070        0.94560       -7.44600
H          2.78660        0.35590       -7.26570
H          2.30930        1.29590       -8.70020
H          1.67790        0.39980       -5.24080
H          1.76150        0.01770       -2.84860
H          5.19270        2.56670       -1.54650
H          6.62140        3.79310       -0.02480
H          8.38550        5.40890        2.75170
H          8.21570        3.93120        1.78300
H          7.68750        5.51440        1.12180
H          3.66920        3.43450        3.04910
H          2.22560        2.17980        1.50700
H          1.74130       -2.06720       -3.20950
H          0.23040       -3.91850       -2.69470
H          0.12970       -6.34920       -1.79270
H          1.09850       -6.72030       -0.36340
H         -0.23390       -5.56690       -0.25980
H          3.01120       -5.41720        0.16770
H          4.51990       -3.55710       -0.32510
H          5.31460        0.70050       -2.48380
H          6.00990        1.54070       -4.67670
H          5.33330        1.35670       -7.25510
H          5.41550       -0.29390       -7.89430
H          6.82660        0.43640       -7.12610
H          4.52670       -2.01600       -6.49910
H          3.85670       -2.87080       -4.31230
H          9.98630        0.42480        3.99780
H         12.18930       -0.50440        4.55060
H         13.60260       -2.59750        4.66730
H         13.38690       -3.84850        3.43050
H         14.05550       -2.27350        2.99840
H         11.37540       -3.90280        2.10470
H          9.16300       -2.99290        1.56630
H          6.86060        1.66990        2.47940
H          5.62090        2.54280        4.41090
H          4.19440        1.08330        6.74320
H          5.27580        2.47020        6.84840
H          5.62960        0.99410        7.76170
H          6.60230       -0.95940        6.63810
H          7.85550       -1.83110        4.71330
H         10.21510       -0.16020        0.81330
