196

C         -5.65980       -1.52620       -7.34980
C         -4.89920       -1.50940       -8.49520
C         -3.49220       -1.89940       -8.57150
O         -2.79210       -2.35150       -7.68000
C         -3.07950       -1.66930       -9.96780
C         -1.84110       -1.85400      -10.55130
C         -1.68550       -1.53030      -11.89130
C         -2.76580       -1.03610      -12.60740
I         -2.49560       -0.52680      -14.64080
C         -4.01860       -0.85320      -12.03550
C         -4.17450       -1.17590      -10.69780
C         -5.33460       -1.08610       -9.80710
C         -6.57950       -0.64690      -10.17740
C         -7.70360       -0.56060       -9.33050
N         -8.66600       -0.46490       -8.71050
C         -6.91190       -0.22050      -11.47990
N         -7.24390        0.12980      -12.52150
C         -5.25210       -1.68550       -6.02270
C         -6.11820       -1.50000       -4.94390
C         -5.48510       -1.44530       -3.71700
S         -6.36960       -1.15320       -2.20970
C         -6.74130       -2.87870       -1.71890
C         -7.69080       -3.56170       -2.67960
C         -4.09210       -1.54020       -3.81850
S         -3.61300       -1.88630       -5.44980
C         -3.15030       -1.32110       -2.78430
C         -1.84680       -0.82150       -2.85310
N         -1.10320       -0.47690       -3.97140
C          0.23620       -0.91850       -3.95120
C          1.28650       -0.08520       -4.33060
C          2.58500       -0.53880       -4.26280
C          2.86520       -1.82590       -3.80440
S          4.56150       -2.29800       -3.75630
C          4.53960       -3.93540       -2.96690
C          1.81980       -2.66010       -3.43170
C          0.51850       -2.20830       -3.51120
C         -1.62910        0.17630       -5.07850
C         -2.75670        0.99510       -4.96100
C         -3.35690        1.52020       -6.08350
C         -2.82810        1.27200       -7.34750
S         -3.75230        1.84760       -8.74160
C         -2.49700        1.99370      -10.04740
C         -1.65710        0.53530       -7.46350
C         -1.06860       -0.01100       -6.34320
C         -1.28640       -0.71300       -1.55910
S          0.21200       -0.10630       -0.94950
C         -0.26810       -0.47670        0.71570
C         -1.51630       -1.09510        0.76430
N         -2.15770       -1.67190        1.85390
C         -1.52240       -2.61920        2.66410
C         -0.35340       -3.26620        2.26030
C          0.22740       -4.22620        3.06150
C         -0.33800       -4.56910        4.28720
S          0.51080       -5.77770        5.25310
C         -0.49460       -5.92020        6.75810
C         -1.50430       -3.93560        4.69180
C         -2.08270       -2.97410        3.89050
C         -3.56560       -1.59610        1.82140
C         -4.16150       -0.38210        1.48760
C         -5.53220       -0.25880        1.39750
C         -6.33990       -1.36130        1.63530
S         -8.09940       -1.32690        1.53500
C         -8.44930        0.27340        0.75680
C         -5.75120       -2.58200        1.96110
C         -4.38240       -2.70330        2.04740
C         -2.09500       -1.15900       -0.53110
S         -3.64020       -1.64420       -1.12170
C          0.69630       -0.11180        1.69690
C          0.64970        0.03560        3.08090
N         -0.46170       -0.07470        3.91750
C         -0.22480       -0.68620        5.16030
C         -0.80660       -0.24540        6.34890
C         -0.54800       -0.89880        7.53440
C          0.32070       -1.98600        7.57380
S          0.54780       -2.79290        9.13010
C          2.11590       -3.68480        8.90830
C          0.94370       -2.39790        6.40490
C          0.66750       -1.75620        5.21690
C         -1.59660        0.70830        3.67670
C         -1.53350        1.82720        2.84790
C         -2.64770        2.61380        2.61950
C         -3.85640        2.30590        3.22650
S         -5.35650        3.20420        2.98040
C         -4.84140        4.66450        2.03250
C         -3.92850        1.19040        4.05820
C         -2.82210        0.40220        4.27430
C          1.91630        0.40490        3.59360
S          2.47790        0.70030        5.19740
C          4.09900        1.06420        4.58110
C          4.12240        1.11660        3.16380
N          5.09460        1.70660        2.42110
C          5.19900        1.51130        1.02900
C          5.37250        2.62670        0.21550
C          5.54880        2.48370       -1.14500
C          5.55800        1.21520       -1.71140
S          5.82760        0.91950       -3.42580
C          6.28300        2.54970       -4.08870
C          5.36740        0.09760       -0.89890
C          5.19180        0.23940        0.46090
C          6.01890        2.60560        2.98630
C          7.36970        2.50600        2.64920
C          8.29640        3.32610        3.25360
C          7.89750        4.27290        4.19690
S          9.17760        5.18640        4.98260
C          8.31300        6.21830        6.19760
C          6.54130        4.43160        4.46800
C          5.61490        3.60280        3.86980
C          2.89730        0.64290        2.64110
S          2.28270        0.33130        1.05280
C          5.10860        1.21790        5.52290
C          6.46480        1.05090        5.29500
C          7.01880        0.21200        4.22640
O          6.41250       -0.40110        3.36510
C          8.47850        0.17220        4.47330
C          9.46640       -0.47330        3.75950
C         10.78320       -0.33660        4.17760
C         11.07430        0.43020        5.29380
I         13.08750        0.62240        5.90620
C         10.09000        1.08050        6.02750
C          8.78020        0.94550        5.60610
C          7.53620        1.51910        6.12090
C          7.44070        2.46430        7.11420
C          8.53020        2.94540        7.86380
N          9.37230        3.38650        8.50890
C          6.24960        3.13950        7.44050
N          5.33640        3.77570        7.72820
H         -6.71630       -1.31190       -7.45230
H         -1.01720       -2.23750       -9.96890
H         -0.72890       -1.65870      -12.37360
H         -4.83350       -0.46810      -12.62560
H         -7.17650       -1.35400       -5.06880
H         -7.18310       -2.78160       -0.72860
H         -5.79110       -3.40620       -1.63620
H         -7.24320       -3.65890       -3.66710
H         -8.61380       -2.99350       -2.76850
H         -7.92890       -4.55660       -2.30930
H          1.07590        0.91810       -4.66960
H          3.40460        0.10050       -4.54980
H          5.58240       -4.21700       -2.85810
H          4.03140       -4.65390       -3.60320
H          4.07090       -3.86980       -1.98940
H          2.00080       -3.66550       -3.08850
H         -0.29340       -2.86500       -3.23400
H         -3.17990        1.18900       -3.98670
H         -4.25180        2.11660       -5.99390
H         -2.18810        1.01160      -10.39370
H         -2.97620        2.53380      -10.85800
H         -1.65090        2.55970       -9.67040
H         -1.21620        0.34600       -8.42920
H         -0.19440       -0.63260       -6.45450
H          0.09530       -3.02900        1.30750
H          1.13030       -4.72450        2.74190
H         -0.54830       -4.96170        7.26670
H         -1.48520       -6.28880        6.50850
H          0.01730       -6.64510        7.38410
H         -1.97250       -4.17170        5.63310
H         -2.99320       -2.49940        4.21910
H         -3.53460        0.47140        1.28120
H         -5.95300        0.69870        1.14200
H         -8.18810        1.08220        1.43320
H         -7.90610        0.34260       -0.18160
H         -9.51870        0.27970        0.57010
H         -6.38290       -3.44110        2.12900
H         -3.94300       -3.66490        2.26520
H         -1.44510        0.62410        6.35260
H         -1.00750       -0.56000        8.45010
H          1.98390       -4.53700        8.24800
H          2.40020       -4.02870        9.89780
H          2.86570       -3.00150        8.52160
H          1.63620       -3.22370        6.39840
H          1.14880       -2.09740        4.31380
H         -0.60020        2.10210        2.38000
H         -2.55110        3.46730        1.96730
H         -5.72920        5.28240        1.94050
H         -4.07140        5.20330        2.57680
H         -4.49620        4.36930        1.04560
H         -4.86960        0.94240        4.52430
H         -2.90620       -0.46030        4.91410
H          5.37450        3.61320        0.65590
H          5.67980        3.36690       -1.74830
H          7.13990        2.94240       -3.55000
H          5.43720        3.22920       -4.03810
H          6.54990        2.37340       -5.12600
H          5.38220       -0.88150       -1.35110
H          5.10180       -0.62350        1.10180
H          7.68440        1.76760        1.92740
H          9.34540        3.23100        3.01840
H          7.69010        6.94940        5.69040
H          9.09670        6.72180        6.75500
H          7.72870        5.59870        6.87130
H          6.19450        5.18880        5.15150
H          4.56790        3.72680        4.10200
H          4.78050        1.42560        6.53480
H          9.21660       -1.06390        2.89150
H         11.57730       -0.82430        3.63340
H         10.35080        1.66660        6.89360
