108

C         -7.22350        7.20920        2.63180
C         -6.36460        8.23850        2.46680
C         -6.89050        9.62270        2.25500
O         -8.01450       10.00040        2.46910
C         -5.74990       10.37300        1.68670
C         -5.68300       11.65440        1.16620
F         -6.75840       12.44520        1.14780
C         -4.48550       12.13310        0.64940
C         -3.36360       11.32110        0.64940
C         -3.40070       10.03480        1.17180
C         -4.59380        9.56680        1.69720
C         -4.91770        8.29130        2.33410
C         -4.01340        7.44720        2.91380
C         -4.36300        6.35480        3.73790
N         -4.57780        5.49710        4.46880
C         -2.61410        7.62330        2.84190
N         -1.47160        7.72040        2.80970
C         -6.92490        5.80050        2.52260
C         -5.97300        5.34380        1.59570
C         -5.67060        4.00660        1.56600
C         -4.66070        3.29860        0.73270
O         -3.97090        3.76610       -0.14170
C         -4.69320        1.90190        1.23350
C         -5.67770        1.78080        2.23470
C         -6.28730        3.09020        2.44140
C         -7.26650        3.52670        3.31370
C         -7.58760        4.87600        3.33430
C         -5.87270        0.56510        2.86000
C         -5.05940       -0.50600        2.50860
C         -4.06250       -0.37990        1.54350
C         -3.89010        0.84360        0.88220
C         -3.12950       -1.47100        1.24420
C         -2.52370       -2.21300        2.23540
F         -2.85730       -2.03020        3.52550
C         -1.47770       -3.11230        1.96790
F         -0.89700       -3.70790        3.02500
C         -0.99370       -3.31960        0.69460
C         -1.67530       -2.65530       -0.36190
N         -1.31950       -2.90740       -1.63410
C         -1.91890       -2.27900       -2.61260
C         -1.42130       -2.58730       -3.99110
C         -0.26320       -1.65120       -4.35000
C         -2.95490       -1.33770       -2.33930
N         -3.33360       -1.10490       -1.10860
C         -2.72020       -1.73640       -0.09110
C         -3.71480       -0.61390       -3.40830
C         -4.91180       -1.45240       -3.86470
C          0.23600       -4.07270        0.43060
C          1.17000       -3.51810       -0.45520
C          2.37180       -4.15810       -0.63410
C          3.52940       -3.74490       -1.46970
O          3.59050       -2.82420       -2.24740
C          4.58410       -4.74450       -1.14610
C          4.05610       -5.71700       -0.27130
C          2.68200       -5.34890        0.05160
C          1.74750       -5.91610        0.89640
C          0.53040       -5.27000        1.07930
C          4.84730       -6.77390        0.14040
C          6.16550       -6.82200       -0.28740
C          6.71750       -5.81380       -1.08490
C          5.89470       -4.77450       -1.55080
C          8.11830       -5.87150       -1.43200
C          8.96110       -4.81040       -1.47380
C          8.67410       -3.47710       -0.85980
O          7.64090       -3.09530       -0.36790
C          9.96530       -2.75750       -0.89170
C         10.28980       -1.49590       -0.42280
F          9.37220       -0.72130        0.15850
C         11.58700       -1.01760       -0.55880
C         12.55070       -1.81320       -1.15510
C         12.25100       -3.08370       -1.62950
C         10.95340       -3.55420       -1.49980
C         10.35100       -4.82270       -1.90170
C         10.96790       -5.80830       -2.62160
C         10.34550       -6.99730       -3.06230
N          9.90870       -7.97920       -3.46540
C         12.31370       -5.76310       -3.04640
N         13.39940       -5.79160       -3.41680
H         -8.25690        7.48230        2.82010
H         -4.44970       13.13460        0.25060
H         -2.44050       11.69650        0.23580
H         -2.51730        9.41810        1.15260
H         -5.49560        6.02630        0.90770
H         -7.76570        2.84030        3.97990
H         -8.33160        5.23590        4.02950
H         -6.62670        0.44370        3.62250
H         -5.20390       -1.45570        3.00090
H         -3.12280        0.96550        0.13540
H         -2.22150       -2.48800       -4.72390
H         -1.05810       -3.61570       -3.99770
H         -0.57210       -0.60930       -4.29410
H          0.56790       -1.80300       -3.66610
H          0.08100       -1.85710       -5.36020
H         -4.08020        0.32310       -2.98610
H         -3.06840       -0.39240       -4.25720
H         -5.46820       -0.92100       -4.63250
H         -5.57340       -1.64170       -3.02300
H         -4.58840       -2.40920       -4.26970
H          0.96750       -2.58890       -0.96160
H          1.95530       -6.83480        1.42350
H         -0.19950       -5.70700        1.74360
H          4.45710       -7.54450        0.78770
H          6.80070       -7.63280        0.03960
H          6.27180       -4.02560       -2.22830
H          8.51260       -6.86100       -1.63070
H         11.82360       -0.03020       -0.19500
H         13.55770       -1.43800       -1.25300
H         13.02340       -3.68190       -2.08310
