138

C         -2.25090       -2.48410       -7.69150
C         -1.35820       -3.09990       -8.54110
C          0.09760       -2.89470       -8.48860
O          0.72450       -2.17880       -7.73080
C          0.63550       -3.60850       -9.67150
C          1.93270       -3.76440      -10.11950
F          2.96610       -3.23800       -9.44640
C          2.19070       -4.47650      -11.28460
C          1.13800       -5.01740      -12.00020
C         -0.17740       -4.86790      -11.57600
C         -0.42520       -4.16480      -10.41000
C         -1.67940       -3.85780       -9.71840
C         -2.92640       -4.30030      -10.08920
C         -3.19090       -5.05210      -11.25000
N         -3.47280       -5.65960      -12.18360
C         -4.10540       -4.08600       -9.34660
N         -5.10560       -3.98320       -8.79050
C         -1.95900       -2.02010       -6.39940
C         -2.74150       -1.00570       -5.79530
C         -2.43910       -0.47190       -4.49220
N         -3.28010        0.50070       -4.15080
S         -4.34950        0.72580       -5.33940
N         -3.78630       -0.39400       -6.34770
C         -1.35970       -0.92590       -3.68590
C         -0.70170       -2.06430       -4.21560
N          0.16930       -2.83160       -3.56070
S          0.60880       -4.05690       -4.50880
N         -0.29210       -3.68990       -5.78690
C         -0.97730       -2.57950       -5.54130
C         -1.10400       -0.29720       -2.45230
C         -0.04800       -0.42650       -1.51580
N          1.20120       -0.93520       -1.72450
C          1.84070       -1.00320       -2.96270
C          2.84280       -1.96430       -3.15490
C          3.50440       -2.05180       -4.35280
C          3.19740       -1.18160       -5.40430
S          4.12410       -1.37720       -6.87150
C          3.26450       -0.33820       -8.07760
C          2.22130       -0.20750       -5.20850
C          1.56260       -0.11300       -4.00110
C          1.97850       -1.28430       -0.59600
C          3.25170       -0.73510       -0.43990
C          4.00280       -1.03960        0.67050
C          3.49740       -1.88930        1.65540
S          4.52910       -2.20070        3.04370
C          3.34050       -2.56030        4.36510
C          2.24320       -2.46460        1.48290
C          1.49130       -2.16760        0.36270
C         -0.41740        0.17360       -0.28270
S          0.32510        0.28610        1.27950
C         -1.03420        1.22040        1.89640
C         -1.95930        1.52760        0.88810
N         -3.03230        2.38170        0.98680
C         -2.99090        3.53230        1.78740
C         -1.79520        4.21080        2.01920
C         -1.75490        5.25900        2.91060
C         -2.90500        5.65280        3.59010
S         -2.74140        6.94170        4.78100
C         -4.11410        6.60150        5.92080
C         -4.11400        5.03140        3.30170
C         -4.15630        3.98260        2.40620
C         -4.10530        2.20200        0.09130
C         -4.68250        0.94450       -0.05700
C         -5.65480        0.72620       -1.01320
C         -6.05830        1.76710       -1.83830
S         -7.21340        1.58190       -3.15630
C         -7.32710       -0.21730       -3.37340
C         -5.53370        3.04400       -1.64100
C         -4.56960        3.26320       -0.68410
C         -1.61560        0.86750       -0.31490
S         -2.37340        0.77920       -1.86910
C         -1.04310        1.49690        3.27940
C         -2.07920        1.96120        4.08150
C         -1.70170        2.13940        5.39920
S         -2.82170        2.81180        6.58280
C         -3.00010        1.41820        7.76090
C         -3.68190        0.23280        7.11000
C         -0.36580        1.78980        5.67220
S          0.38280        1.16170        4.22060
C          0.25610        2.02800        6.89650
C          1.52650        1.70710        7.32210
C          2.51640        0.95800        6.54720
O          2.35980        0.42510        5.46220
C          3.74970        0.96050        7.35970
C          5.00140        0.43480        7.10040
F          5.24260       -0.24570        5.97440
C          6.03070        0.60420        8.01860
C          5.79110        1.29860        9.19080
C          4.53690        1.82430        9.48070
C          3.51470        1.65070        8.56380
C          2.10880        2.06390        8.59330
C          1.47450        2.61670        9.67860
C          2.11300        2.93840       10.89360
N          2.56730        3.22780       11.90780
C          0.09270        2.88100        9.76850
N         -1.02890        3.06980        9.93350
H         -3.26110       -2.29380       -8.03250
H          3.21130       -4.59490      -11.61300
H          1.34130       -5.56540      -12.90720
H         -0.97890       -5.29390      -12.15610
H          3.06430       -2.66520       -2.36560
H          4.26430       -2.80280       -4.50300
H          3.37580        0.71170       -7.82280
H          3.74230       -0.54290       -9.03030
H          2.22300       -0.64530       -8.10890
H          1.97330        0.48930       -5.99190
H          0.83290        0.66970       -3.85960
H          3.63330       -0.05560       -1.18720
H          4.98170       -0.60730        0.80490
H          2.61980       -1.75000        4.41730
H          2.86270       -3.52220        4.20550
H          3.92810       -2.58890        5.27690
H          1.84720       -3.14900        2.21540
H          0.52220       -2.62230        0.22040
H         -0.89490        3.90220        1.51000
H         -0.82720        5.77420        3.10490
H         -4.11920        5.54200        6.15940
H         -5.05810        6.91920        5.48790
H         -3.90700        7.18320        6.81340
H         -5.02500        5.34780        3.78310
H         -5.09310        3.48490        2.20160
H         -4.35000        0.12980        0.56960
H         -6.07960       -0.25950       -1.11070
H         -7.85700       -0.36880       -4.30860
H         -6.32880       -0.63890       -3.44020
H         -7.89020       -0.66160       -2.55770
H         -5.87410        3.85290       -2.26840
H         -4.14330        4.24630       -0.55230
H         -3.08160        2.13830        3.74490
H         -2.01720        1.15730        8.14660
H         -3.59810        1.83370        8.56990
H         -4.65250        0.52100        6.71290
H         -3.07610       -0.15840        6.29410
H         -3.82590       -0.55700        7.84440
H         -0.36020        2.59170        7.58770
H          7.00310        0.19230        7.79970
H          6.59460        1.43340        9.89830
H          4.38170        2.35840       10.40290
