116

C         -2.68880       -6.95770       -7.13040
C         -2.16270       -6.92970       -8.37760
C         -3.05400       -6.54760       -9.51880
O         -4.25820       -6.52940       -9.51020
C         -2.12680       -6.15130      -10.60070
C         -2.37180       -5.55280      -11.82460
F         -3.61610       -5.26620      -12.21250
C         -1.31280       -5.23350      -12.66570
C         -0.01480       -5.51250      -12.27240
C          0.25820       -6.11860      -11.05260
C         -0.80120       -6.44030      -10.22090
C         -0.82040       -7.07790       -8.90460
C          0.17010       -7.86970       -8.39250
C          1.42130       -8.06700       -9.01340
N          2.45910       -8.24230       -9.47040
C          0.02390       -8.62760       -7.21040
N         -0.05880       -9.28070       -6.27130
C         -2.04550       -6.88960       -5.84520
C         -2.76870       -7.28590       -4.70430
C         -2.19980       -7.12200       -3.46600
C         -2.78780       -7.36050       -2.11550
O         -3.86350       -7.83860       -1.85120
C         -1.76490       -6.83150       -1.17210
C         -0.63630       -6.40660       -1.89990
C         -0.91310       -6.56550       -3.31930
C         -0.19700       -6.17020       -4.43400
C         -0.77190       -6.32940       -5.68270
C          0.44800       -5.86550       -1.23710
C          0.35490       -5.67090        0.13260
C         -0.79310       -6.00900        0.85330
C         -1.85210       -6.64380        0.18870
C         -0.92210       -5.52610        2.23190
C          0.18470       -5.42140        3.07860
C          0.13900       -4.69100        4.25220
C         -1.03770       -4.03720        4.59600
C         -1.36600       -2.95310        5.49790
C         -2.84490       -2.75700        5.35960
O         -3.59200       -2.07110        6.02520
N         -3.25870       -3.56320        4.33230
C         -4.61980       -3.64700        3.88010
C         -2.19230       -4.27170        3.81360
C         -2.14960       -4.99530        2.64380
C         -0.52000       -2.07050        6.10590
C          0.93280       -2.32050        6.36330
O          1.52960       -3.37420        6.44100
N          1.51840       -1.09680        6.56130
C          2.91790       -0.91680        6.82950
C          0.57940       -0.08790        6.46350
C          0.80230        1.26730        6.36710
C         -0.29160        2.10540        6.12710
C         -1.57990        1.56570        6.12190
C         -1.80050        0.20460        6.22800
C         -0.71010       -0.65090        6.32350
C         -0.05210        3.49070        5.70990
C         -0.79060        3.98710        4.62560
C         -0.43520        5.19400        4.07370
C         -0.98680        5.85990        2.86540
O         -1.91910        5.51130        2.18360
C         -0.09980        7.03980        2.66480
C          0.85720        7.08890        3.69970
C          0.64250        5.94730        4.58050
C          1.32400        5.49800        5.69620
C          0.97230        4.27100        6.24530
C          1.83270        8.06980        3.68530
C          1.84170        8.98710        2.64720
C          0.89540        8.94670        1.61510
C         -0.08650        7.93920        1.63000
C          0.94890        9.82760        0.47980
C          1.49020       11.06100        0.33620
C          1.76780       11.56180       -1.04240
O          1.35820       11.09730       -2.07800
C          2.69490       12.69870       -0.85760
C          3.36440       13.43100       -1.81670
C          4.22170       14.44290       -1.39930
Cl         5.07350       15.37350       -2.56400
C          4.38860       14.69460       -0.03330
Br         5.57410       16.05350        0.53240
C          3.70640       13.96500        0.93230
C          2.84940       12.95970        0.51650
C          1.99000       12.05160        1.27280
C          1.55420       12.25600        2.55270
C          2.01390       13.30440        3.37810
N          2.37460       14.12980        4.08830
C          0.54250       11.48740        3.16770
N         -0.29940       10.91850        3.69950
H         -3.77500       -6.93620       -7.10480
H         -1.52030       -4.76710      -13.61580
H          0.80220       -5.25230      -12.92740
H          1.27750       -6.31770      -10.76470
H         -3.75870       -7.70530       -4.80200
H          0.77980       -5.72120       -4.33830
H         -0.24580       -5.95730       -6.54950
H          1.33470       -5.56060       -1.77180
H          1.17080       -5.18720        0.64840
H         -2.73220       -6.96600        0.72420
H          1.10580       -5.91280        2.80440
H          1.01160       -4.61190        4.87830
H         -5.22300       -3.03300        4.54810
H         -4.71320       -3.26980        2.85920
H         -4.97200       -4.67930        3.91700
H         -3.02270       -5.07900        2.01640
H          3.36180       -1.90790        6.91760
H          3.40290       -0.37420        6.01450
H          3.06130       -0.36970        7.76310
H          1.80450        1.66600        6.38920
H         -2.42600        2.22770        6.01970
H         -2.80390       -0.18570        6.21190
H         -1.58860        3.40680        4.18850
H          2.13340        6.07110        6.12290
H          1.51280        3.90700        7.10690
H          2.58680        8.11690        4.45600
H          2.63430        9.72030        2.60440
H         -0.82120        7.87660        0.84140
H          0.55330        9.41010       -0.44260
H          3.22510       13.22050       -2.86520
H          3.86540       14.18670        1.97560
