
  xtb     02052204353D
 energy: -254.758560437094 gnorm: 0.000939332498 xtb: 6.4.1 (unknown)
138151  0     0  0            999 V2000
   -2.2509   -2.4841   -7.6915 C   0  0  0  0  0  0  0  0  0  0  0  0
   -1.3582   -3.0999   -8.5411 C   0  0  0  0  0  0  0  0  0  0  0  0
    0.0976   -2.8947   -8.4886 C   0  0  0  0  0  0  0  0  0  0  0  0
    0.7245   -2.1788   -7.7308 O   0  0  0  0  0  0  0  0  0  0  0  0
    0.6355   -3.6085   -9.6715 C   0  0  0  0  0  0  0  0  0  0  0  0
    1.9327   -3.7644  -10.1195 C   0  0  0  0  0  0  0  0  0  0  0  0
    2.9661   -3.2380   -9.4464 F   0  0  0  0  0  0  0  0  0  0  0  0
    2.1907   -4.4765  -11.2846 C   0  0  0  0  0  0  0  0  0  0  0  0
    1.1380   -5.0174  -12.0002 C   0  0  0  0  0  0  0  0  0  0  0  0
   -0.1774   -4.8679  -11.5760 C   0  0  0  0  0  0  0  0  0  0  0  0
   -0.4252   -4.1648  -10.4100 C   0  0  0  0  0  0  0  0  0  0  0  0
   -1.6794   -3.8578   -9.7184 C   0  0  0  0  0  0  0  0  0  0  0  0
   -2.9264   -4.3003  -10.0892 C   0  0  0  0  0  0  0  0  0  0  0  0
   -3.1909   -5.0521  -11.2500 C   0  0  0  0  0  0  0  0  0  0  0  0
   -3.4728   -5.6596  -12.1836 N   0  0  0  0  0  0  0  0  0  0  0  0
   -4.1054   -4.0860   -9.3466 C   0  0  0  0  0  0  0  0  0  0  0  0
   -5.1056   -3.9832   -8.7905 N   0  0  0  0  0  0  0  0  0  0  0  0
   -1.9590   -2.0201   -6.3994 C   0  0  0  0  0  0  0  0  0  0  0  0
   -2.7415   -1.0057   -5.7953 C   0  0  0  0  0  0  0  0  0  0  0  0
   -2.4391   -0.4719   -4.4922 C   0  0  0  0  0  0  0  0  0  0  0  0
   -3.2801    0.5007   -4.1508 N   0  0  0  0  0  0  0  0  0  0  0  0
   -4.3495    0.7258   -5.3394 S   0  0  0  0  0  4  0  0  0  0  0  0
   -3.7863   -0.3940   -6.3477 N   0  0  0  0  0  0  0  0  0  0  0  0
   -1.3597   -0.9259   -3.6859 C   0  0  0  0  0  0  0  0  0  0  0  0
   -0.7017   -2.0643   -4.2156 C   0  0  0  0  0  0  0  0  0  0  0  0
    0.1693   -2.8316   -3.5607 N   0  0  0  0  0  0  0  0  0  0  0  0
    0.6088   -4.0569   -4.5088 S   0  0  0  0  0  0  0  0  0  0  0  0
   -0.2921   -3.6899   -5.7869 N   0  0  0  0  0  0  0  0  0  0  0  0
   -0.9773   -2.5795   -5.5413 C   0  0  0  0  0  0  0  0  0  0  0  0
   -1.1040   -0.2972   -2.4523 C   0  0  0  0  0  0  0  0  0  0  0  0
   -0.0480   -0.4265   -1.5158 C   0  0  0  0  0  0  0  0  0  0  0  0
    1.2012   -0.9352   -1.7245 N   0  0  0  0  0  0  0  0  0  0  0  0
    1.8407   -1.0032   -2.9627 C   0  0  0  0  0  0  0  0  0  0  0  0
    2.8428   -1.9643   -3.1549 C   0  0  0  0  0  0  0  0  0  0  0  0
    3.5044   -2.0518   -4.3528 C   0  0  0  0  0  0  0  0  0  0  0  0
    3.1974   -1.1816   -5.4043 C   0  0  0  0  0  0  0  0  0  0  0  0
    4.1241   -1.3772   -6.8715 S   0  0  0  0  0  0  0  0  0  0  0  0
    3.2645   -0.3382   -8.0776 C   0  0  0  0  0  0  0  0  0  0  0  0
    2.2213   -0.2075   -5.2085 C   0  0  0  0  0  0  0  0  0  0  0  0
    1.5626   -0.1130   -4.0011 C   0  0  0  0  0  0  0  0  0  0  0  0
    1.9785   -1.2843   -0.5960 C   0  0  0  0  0  0  0  0  0  0  0  0
    3.2517   -0.7351   -0.4399 C   0  0  0  0  0  0  0  0  0  0  0  0
    4.0028   -1.0396    0.6705 C   0  0  0  0  0  0  0  0  0  0  0  0
    3.4974   -1.8893    1.6554 C   0  0  0  0  0  0  0  0  0  0  0  0
    4.5291   -2.2007    3.0437 S   0  0  0  0  0  0  0  0  0  0  0  0
    3.3405   -2.5603    4.3651 C   0  0  0  0  0  0  0  0  0  0  0  0
    2.2432   -2.4646    1.4829 C   0  0  0  0  0  0  0  0  0  0  0  0
    1.4913   -2.1676    0.3627 C   0  0  0  0  0  0  0  0  0  0  0  0
   -0.4174    0.1736   -0.2827 C   0  0  0  0  0  0  0  0  0  0  0  0
    0.3251    0.2861    1.2795 S   0  0  0  0  0  0  0  0  0  0  0  0
   -1.0342    1.2204    1.8964 C   0  0  0  0  0  0  0  0  0  0  0  0
   -1.9593    1.5276    0.8881 C   0  0  0  0  0  0  0  0  0  0  0  0
   -3.0323    2.3817    0.9868 N   0  0  0  0  0  0  0  0  0  0  0  0
   -2.9909    3.5323    1.7874 C   0  0  0  0  0  0  0  0  0  0  0  0
   -1.7952    4.2108    2.0192 C   0  0  0  0  0  0  0  0  0  0  0  0
   -1.7549    5.2590    2.9106 C   0  0  0  0  0  0  0  0  0  0  0  0
   -2.9050    5.6528    3.5901 C   0  0  0  0  0  0  0  0  0  0  0  0
   -2.7414    6.9417    4.7810 S   0  0  0  0  0  0  0  0  0  0  0  0
   -4.1141    6.6015    5.9208 C   0  0  0  0  0  0  0  0  0  0  0  0
   -4.1140    5.0314    3.3017 C   0  0  0  0  0  0  0  0  0  0  0  0
   -4.1563    3.9826    2.4062 C   0  0  0  0  0  0  0  0  0  0  0  0
   -4.1053    2.2020    0.0913 C   0  0  0  0  0  0  0  0  0  0  0  0
   -4.6825    0.9445   -0.0570 C   0  0  0  0  0  0  0  0  0  0  0  0
   -5.6548    0.7262   -1.0132 C   0  0  0  0  0  0  0  0  0  0  0  0
   -6.0583    1.7671   -1.8383 C   0  0  0  0  0  0  0  0  0  0  0  0
   -7.2134    1.5819   -3.1563 S   0  0  0  0  0  0  0  0  0  0  0  0
   -7.3271   -0.2173   -3.3734 C   0  0  0  0  0  0  0  0  0  0  0  0
   -5.5337    3.0440   -1.6410 C   0  0  0  0  0  0  0  0  0  0  0  0
   -4.5696    3.2632   -0.6841 C   0  0  0  0  0  0  0  0  0  0  0  0
   -1.6156    0.8675   -0.3149 C   0  0  0  0  0  0  0  0  0  0  0  0
   -2.3734    0.7792   -1.8691 S   0  0  0  0  0  0  0  0  0  0  0  0
   -1.0431    1.4969    3.2794 C   0  0  0  0  0  0  0  0  0  0  0  0
   -2.0792    1.9612    4.0815 C   0  0  0  0  0  0  0  0  0  0  0  0
   -1.7017    2.1394    5.3992 C   0  0  0  0  0  0  0  0  0  0  0  0
   -2.8217    2.8118    6.5828 S   0  0  0  0  0  0  0  0  0  0  0  0
   -3.0001    1.4182    7.7609 C   0  0  0  0  0  0  0  0  0  0  0  0
   -3.6819    0.2328    7.1100 C   0  0  0  0  0  0  0  0  0  0  0  0
   -0.3658    1.7898    5.6722 C   0  0  0  0  0  0  0  0  0  0  0  0
    0.3828    1.1617    4.2206 S   0  0  0  0  0  0  0  0  0  0  0  0
    0.2561    2.0280    6.8965 C   0  0  0  0  0  0  0  0  0  0  0  0
    1.5265    1.7071    7.3221 C   0  0  0  0  0  0  0  0  0  0  0  0
    2.5164    0.9580    6.5472 C   0  0  0  0  0  0  0  0  0  0  0  0
    2.3598    0.4251    5.4622 O   0  0  0  0  0  0  0  0  0  0  0  0
    3.7497    0.9605    7.3597 C   0  0  0  0  0  0  0  0  0  0  0  0
    5.0014    0.4348    7.1004 C   0  0  0  0  0  0  0  0  0  0  0  0
    5.2426   -0.2457    5.9744 F   0  0  0  0  0  0  0  0  0  0  0  0
    6.0307    0.6042    8.0186 C   0  0  0  0  0  0  0  0  0  0  0  0
    5.7911    1.2986    9.1908 C   0  0  0  0  0  0  0  0  0  0  0  0
    4.5369    1.8243    9.4807 C   0  0  0  0  0  0  0  0  0  0  0  0
    3.5147    1.6507    8.5638 C   0  0  0  0  0  0  0  0  0  0  0  0
    2.1088    2.0639    8.5933 C   0  0  0  0  0  0  0  0  0  0  0  0
    1.4745    2.6167    9.6786 C   0  0  0  0  0  0  0  0  0  0  0  0
    2.1130    2.9384   10.8936 C   0  0  0  0  0  0  0  0  0  0  0  0
    2.5673    3.2278   11.9078 N   0  0  0  0  0  0  0  0  0  0  0  0
    0.0927    2.8810    9.7685 C   0  0  0  0  0  0  0  0  0  0  0  0
   -1.0289    3.0698    9.9335 N   0  0  0  0  0  0  0  0  0  0  0  0
   -3.2611   -2.2938   -8.0325 H   0  0  0  0  0  0  0  0  0  0  0  0
    3.2113   -4.5949  -11.6130 H   0  0  0  0  0  0  0  0  0  0  0  0
    1.3413   -5.5654  -12.9072 H   0  0  0  0  0  0  0  0  0  0  0  0
   -0.9789   -5.2939  -12.1561 H   0  0  0  0  0  0  0  0  0  0  0  0
    3.0643   -2.6652   -2.3656 H   0  0  0  0  0  0  0  0  0  0  0  0
    4.2643   -2.8028   -4.5030 H   0  0  0  0  0  0  0  0  0  0  0  0
    3.3758    0.7117   -7.8228 H   0  0  0  0  0  0  0  0  0  0  0  0
    3.7423   -0.5429   -9.0303 H   0  0  0  0  0  0  0  0  0  0  0  0
    2.2230   -0.6453   -8.1089 H   0  0  0  0  0  0  0  0  0  0  0  0
    1.9733    0.4893   -5.9919 H   0  0  0  0  0  0  0  0  0  0  0  0
    0.8329    0.6697   -3.8596 H   0  0  0  0  0  0  0  0  0  0  0  0
    3.6333   -0.0556   -1.1872 H   0  0  0  0  0  0  0  0  0  0  0  0
    4.9817   -0.6073    0.8049 H   0  0  0  0  0  0  0  0  0  0  0  0
    2.6198   -1.7500    4.4173 H   0  0  0  0  0  0  0  0  0  0  0  0
    2.8627   -3.5222    4.2055 H   0  0  0  0  0  0  0  0  0  0  0  0
    3.9281   -2.5889    5.2769 H   0  0  0  0  0  0  0  0  0  0  0  0
    1.8472   -3.1490    2.2154 H   0  0  0  0  0  0  0  0  0  0  0  0
    0.5222   -2.6223    0.2204 H   0  0  0  0  0  0  0  0  0  0  0  0
   -0.8949    3.9022    1.5100 H   0  0  0  0  0  0  0  0  0  0  0  0
   -0.8272    5.7742    3.1049 H   0  0  0  0  0  0  0  0  0  0  0  0
   -4.1192    5.5420    6.1594 H   0  0  0  0  0  0  0  0  0  0  0  0
   -5.0581    6.9192    5.4879 H   0  0  0  0  0  0  0  0  0  0  0  0
   -3.9070    7.1832    6.8134 H   0  0  0  0  0  0  0  0  0  0  0  0
   -5.0250    5.3478    3.7831 H   0  0  0  0  0  0  0  0  0  0  0  0
   -5.0931    3.4849    2.2016 H   0  0  0  0  0  0  0  0  0  0  0  0
   -4.3500    0.1298    0.5696 H   0  0  0  0  0  0  0  0  0  0  0  0
   -6.0796   -0.2595   -1.1107 H   0  0  0  0  0  0  0  0  0  0  0  0
   -7.8570   -0.3688   -4.3086 H   0  0  0  0  0  0  0  0  0  0  0  0
   -6.3288   -0.6389   -3.4402 H   0  0  0  0  0  0  0  0  0  0  0  0
   -7.8902   -0.6616   -2.5577 H   0  0  0  0  0  0  0  0  0  0  0  0
   -5.8741    3.8529   -2.2684 H   0  0  0  0  0  0  0  0  0  0  0  0
   -4.1433    4.2463   -0.5523 H   0  0  0  0  0  0  0  0  0  0  0  0
   -3.0816    2.1383    3.7449 H   0  0  0  0  0  0  0  0  0  0  0  0
   -2.0172    1.1573    8.1466 H   0  0  0  0  0  0  0  0  0  0  0  0
   -3.5981    1.8337    8.5699 H   0  0  0  0  0  0  0  0  0  0  0  0
   -4.6525    0.5210    6.7129 H   0  0  0  0  0  0  0  0  0  0  0  0
   -3.0761   -0.1584    6.2941 H   0  0  0  0  0  0  0  0  0  0  0  0
   -3.8259   -0.5570    7.8444 H   0  0  0  0  0  0  0  0  0  0  0  0
   -0.3602    2.5917    7.5877 H   0  0  0  0  0  0  0  0  0  0  0  0
    7.0031    0.1923    7.7997 H   0  0  0  0  0  0  0  0  0  0  0  0
    6.5946    1.4334    9.8983 H   0  0  0  0  0  0  0  0  0  0  0  0
    4.3817    2.3584   10.4029 H   0  0  0  0  0  0  0  0  0  0  0  0
  1  2  2  0  0  0  0
  2  3  1  0  0  0  0
  3  4  2  0  0  0  0
  3  5  1  0  0  0  0
  5  6  2  0  0  0  0
  6  7  1  0  0  0  0
  6  8  1  0  0  0  0
  8  9  2  0  0  0  0
  9 10  1  0  0  0  0
 10 11  2  0  0  0  0
 11 12  1  0  0  0  0
 12 13  2  0  0  0  0
 13 14  1  0  0  0  0
 14 15  3  0  0  0  0
 13 16  1  0  0  0  0
 16 17  3  0  0  0  0
  1 18  1  0  0  0  0
 18 19  2  0  0  0  0
 19 20  1  0  0  0  0
 20 21  1  0  0  0  0
 21 22  2  0  0  0  0
 22 23  2  0  0  0  0
 20 24  2  0  0  0  0
 24 25  1  0  0  0  0
 25 26  2  0  0  0  0
 26 27  1  0  0  0  0
 27 28  1  0  0  0  0
 28 29  2  0  0  0  0
 24 30  1  0  0  0  0
 30 31  2  0  0  0  0
 31 32  1  0  0  0  0
 32 33  1  0  0  0  0
 33 34  2  0  0  0  0
 34 35  1  0  0  0  0
 35 36  2  0  0  0  0
 36 37  1  0  0  0  0
 37 38  1  0  0  0  0
 36 39  1  0  0  0  0
 39 40  2  0  0  0  0
 32 41  1  0  0  0  0
 41 42  2  0  0  0  0
 42 43  1  0  0  0  0
 43 44  2  0  0  0  0
 44 45  1  0  0  0  0
 45 46  1  0  0  0  0
 44 47  1  0  0  0  0
 47 48  2  0  0  0  0
 31 49  1  0  0  0  0
 49 50  1  0  0  0  0
 50 51  1  0  0  0  0
 51 52  2  0  0  0  0
 52 53  1  0  0  0  0
 53 54  1  0  0  0  0
 54 55  2  0  0  0  0
 55 56  1  0  0  0  0
 56 57  2  0  0  0  0
 57 58  1  0  0  0  0
 58 59  1  0  0  0  0
 57 60  1  0  0  0  0
 60 61  2  0  0  0  0
 53 62  1  0  0  0  0
 62 63  2  0  0  0  0
 63 64  1  0  0  0  0
 64 65  2  0  0  0  0
 65 66  1  0  0  0  0
 66 67  1  0  0  0  0
 65 68  1  0  0  0  0
 68 69  2  0  0  0  0
 52 70  1  0  0  0  0
 70 71  1  0  0  0  0
 51 72  1  0  0  0  0
 72 73  2  0  0  0  0
 73 74  1  0  0  0  0
 74 75  1  0  0  0  0
 75 76  1  0  0  0  0
 76 77  1  0  0  0  0
 74 78  2  0  0  0  0
 78 79  1  0  0  0  0
 78 80  1  0  0  0  0
 80 81  2  0  0  0  0
 81 82  1  0  0  0  0
 82 83  2  0  0  0  0
 82 84  1  0  0  0  0
 84 85  2  0  0  0  0
 85 86  1  0  0  0  0
 85 87  1  0  0  0  0
 87 88  2  0  0  0  0
 88 89  1  0  0  0  0
 89 90  2  0  0  0  0
 90 91  1  0  0  0  0
 91 92  2  0  0  0  0
 92 93  1  0  0  0  0
 93 94  3  0  0  0  0
 92 95  1  0  0  0  0
 95 96  3  0  0  0  0
 12  2  1  0  0  0  0
 29 18  1  0  0  0  0
 71 30  1  0  0  0  0
 79 72  1  0  0  0  0
 91 81  1  0  0  0  0
 11  5  1  0  0  0  0
 23 19  1  0  0  0  0
 29 25  1  0  0  0  0
 40 33  1  0  0  0  0
 48 41  1  0  0  0  0
 70 49  2  0  0  0  0
 90 84  1  0  0  0  0
 61 54  1  0  0  0  0
 69 62  1  0  0  0  0
  1 97  1  0  0  0  0
  8 98  1  0  0  0  0
  9 99  1  0  0  0  0
 10100  1  0  0  0  0
 34101  1  0  0  0  0
 35102  1  0  0  0  0
 38103  1  0  0  0  0
 38104  1  0  0  0  0
 38105  1  0  0  0  0
 39106  1  0  0  0  0
 40107  1  0  0  0  0
 42108  1  0  0  0  0
 43109  1  0  0  0  0
 46110  1  0  0  0  0
 46111  1  0  0  0  0
 46112  1  0  0  0  0
 47113  1  0  0  0  0
 48114  1  0  0  0  0
 55115  1  0  0  0  0
 56116  1  0  0  0  0
 59117  1  0  0  0  0
 59118  1  0  0  0  0
 59119  1  0  0  0  0
 60120  1  0  0  0  0
 61121  1  0  0  0  0
 63122  1  0  0  0  0
 64123  1  0  0  0  0
 67124  1  0  0  0  0
 67125  1  0  0  0  0
 67126  1  0  0  0  0
 68127  1  0  0  0  0
 69128  1  0  0  0  0
 73129  1  0  0  0  0
 76130  1  0  0  0  0
 76131  1  0  0  0  0
 77132  1  0  0  0  0
 77133  1  0  0  0  0
 77134  1  0  0  0  0
 80135  1  0  0  0  0
 87136  1  0  0  0  0
 88137  1  0  0  0  0
 89138  1  0  0  0  0
M  END
