164

C          2.87740       -3.95780        5.87330
C          3.94890       -3.80040        6.73140
C          4.60300       -2.51290        6.98630
O          4.35670       -1.43530        6.47540
C          5.54180       -2.76190        8.10730
C          6.38790       -1.87270        8.73440
C          7.16400       -2.37180        9.77110
F          8.01650       -1.54340       10.40280
C          7.09670       -3.69310       10.18120
C          6.23620       -4.57670        9.54240
C          5.45880       -4.10990        8.49460
C          4.49700       -4.78450        7.62260
C          4.28610       -6.13970        7.55780
C          3.45940       -6.75700        6.59840
N          2.82210       -7.31880        5.82560
C          4.92470       -7.07410        8.39470
N          5.42600       -7.86760        9.05680
C          2.57070       -3.14040        4.78550
C          3.37960       -2.30100        3.98660
N          4.74160       -2.25530        3.98290
C          5.52960       -3.32430        4.42910
C          5.19340       -4.64540        4.12450
C          5.93650       -5.68350        4.63300
C          7.03140       -5.43340        5.46470
S          7.84150       -6.84100        6.13990
C          8.91240       -6.14260        7.42800
C          7.41190       -4.12040        5.70980
C          6.66800       -3.07640        5.19310
C          5.40060       -1.10990        3.48960
C          6.45790       -1.25160        2.59840
C          7.10780       -0.13890        2.10030
C          6.70710        1.13210        2.49300
S          7.44540        2.62490        1.91960
C          8.74030        2.07030        0.77490
C          5.66010        1.27190        3.40440
C          5.01120        0.16420        3.89990
C          2.58360       -1.58180        3.06280
S          2.93650       -0.43460        1.81320
C          1.24720       -0.35650        1.38670
C          0.45810       -1.21730        2.12550
N         -0.88810       -1.43430        1.88020
C         -1.32420       -1.38270        0.54670
C         -0.57100       -2.01010       -0.44280
C         -0.90430       -1.88740       -1.77620
C         -2.00820       -1.13160       -2.14510
S         -2.49120       -0.85770       -3.82070
C         -1.13320       -1.58300       -4.78860
C         -2.79770       -0.54540       -1.15800
C         -2.46520       -0.67340        0.17290
C         -1.77460       -1.61010        2.94180
C         -1.49770       -1.06940        4.19550
C         -2.36070       -1.26300        5.25650
C         -3.52550       -1.99590        5.08060
S         -4.71470       -2.28590        6.35460
C         -3.85210       -1.77820        7.86970
C         -3.81360       -2.52870        3.82540
C         -2.94880       -2.34590        2.77020
C          1.23360       -1.90660        3.08810
S          0.87950       -3.12400        4.25490
C          0.77050        0.54640        0.35300
C          1.26220        0.52720       -0.93340
F          2.23530       -0.34040       -1.26680
C          0.73700        1.34630       -1.94350
F          1.25130        1.20780       -3.18200
C         -0.25990        2.26410       -1.70180
C         -0.75910        2.33430       -0.37460
N         -1.71880        3.22880       -0.08210
C         -2.20360        3.28300        1.13090
C         -3.17950        4.39060        1.39070
C         -2.42580        5.64250        1.84920
C         -1.74860        2.37970        2.13640
N         -0.79760        1.51750        1.87680
C         -0.27370        1.46850        0.63720
C         -2.33940        2.34070        3.51280
C         -3.67070        1.58390        3.51750
C         -0.79540        3.13520       -2.75520
C         -1.18570        2.58690       -3.96770
C         -1.67670        3.43950       -4.94460
N         -2.12710        3.14770       -6.20410
C         -2.17550        1.83390       -6.79200
C         -0.82580        1.43700       -7.38740
C         -2.46580        4.32330       -6.82650
C         -2.26640        5.40630       -5.92660
C         -1.76040        4.83870       -4.72070
C         -1.36660        5.36930       -3.49450
C         -0.89450        4.51750       -2.52430
C         -2.55250        6.70630       -6.34210
C         -3.01230        6.90650       -7.61820
C         -3.20580        5.83280       -8.52700
C         -2.92070        4.52560       -8.11390
C         -3.65530        6.19070       -9.83520
C         -4.01640        5.49200      -10.95410
C         -4.20050        4.03750      -11.16660
O         -3.92810        3.10460      -10.43910
C         -4.82300        3.90240      -12.50130
C         -5.24030        2.74360      -13.12490
C         -5.80970        2.88200      -14.38080
F         -6.23270        1.78410      -15.02930
C         -5.96260        4.11690      -14.99470
C         -5.53440        5.27090      -14.35750
C         -4.95580        5.16470      -13.09960
C         -4.40840        6.16710      -12.19020
C         -4.24090        7.48930      -12.50430
C         -4.62610        8.06370      -13.73580
N         -4.91390        8.60010      -14.70890
C         -3.63980        8.48360      -11.70050
N         -3.15630        9.36660      -11.14680
H          2.16830       -4.75100        6.07820
H          6.44760       -0.83870        8.43420
H          7.71570       -4.02280       11.00090
H          6.17990       -5.60060        9.87490
H          4.34060       -4.85410        3.49700
H          5.67040       -6.70470        4.40810
H          9.74080       -5.60150        6.98010
H          9.28740       -6.99550        7.98470
H          8.32640       -5.50300        8.08200
H          8.27660       -3.89560        6.31280
H          6.95970       -2.05670        5.39520
H          6.76720       -2.23900        2.28830
H          7.91790       -0.27890        1.40350
H          8.29640        1.52420       -0.05240
H          9.47150        1.46600        1.30370
H          9.21060        2.97700        0.40680
H          5.36970        2.26220        3.71960
H          4.22270        0.26420        4.62860
H          0.29800       -2.58810       -0.16490
H         -0.29090       -2.38170       -2.51160
H         -0.19030       -1.11790       -4.51500
H         -1.10140       -2.65810       -4.63930
H         -1.36500       -1.36640       -5.82680
H         -3.66470        0.02750       -1.44960
H         -3.07450       -0.20110        0.92840
H         -0.60950       -0.47310        4.33440
H         -2.11630       -0.82510        6.21080
H         -2.89810       -2.29240        7.93670
H         -4.49570       -2.08300        8.68910
H         -3.72250       -0.69980        7.88800
H         -4.72080       -3.09780        3.69320
H         -3.17340       -2.77850        1.80700
H         -3.69490        4.61060        0.45520
H         -3.91200        4.10540        2.14380
H         -1.87070        5.45060        2.76520
H         -1.72290        5.95520        1.08110
H         -3.12560        6.45400        2.03130
H         -1.63730        1.82540        4.16800
H         -2.49170        3.35450        3.88510
H         -3.51740        0.54960        3.22200
H         -4.38680        2.03520        2.83450
H         -4.09670        1.58980        4.51750
H         -1.12840        1.52380       -4.13130
H         -2.47520        1.12220       -6.01710
H         -2.94080        1.83450       -7.57130
H         -0.89170        0.45020       -7.83770
H         -0.53180        2.14770       -8.15610
H         -0.05820        1.42310       -6.61710
H         -1.42800        6.43180       -3.31510
H         -0.57460        4.90510       -1.57100
H         -2.40670        7.53820       -5.67020
H         -3.22910        7.91030       -7.95270
H         -3.05020        3.70350       -8.79450
H         -3.73200        7.26640       -9.94860
H         -5.12920        1.77870      -12.65670
H         -6.41810        4.16490      -15.97120
H         -5.66300        6.22320      -14.84410
