
  xtb     02152202093D
 energy: -286.014540316183 gnorm: 0.000622841298 xtb: 6.4.1 (unknown)
164178  0     0  0            999 V2000
    2.8774   -3.9578    5.8733 C   0  0  0  0  0  0  0  0  0  0  0  0
    3.9489   -3.8004    6.7314 C   0  0  0  0  0  0  0  0  0  0  0  0
    4.6030   -2.5129    6.9863 C   0  0  0  0  0  0  0  0  0  0  0  0
    4.3567   -1.4353    6.4754 O   0  0  0  0  0  0  0  0  0  0  0  0
    5.5418   -2.7619    8.1073 C   0  0  0  0  0  0  0  0  0  0  0  0
    6.3879   -1.8727    8.7344 C   0  0  0  0  0  0  0  0  0  0  0  0
    7.1640   -2.3718    9.7711 C   0  0  0  0  0  0  0  0  0  0  0  0
    8.0165   -1.5434   10.4028 F   0  0  0  0  0  0  0  0  0  0  0  0
    7.0967   -3.6931   10.1812 C   0  0  0  0  0  0  0  0  0  0  0  0
    6.2362   -4.5767    9.5424 C   0  0  0  0  0  0  0  0  0  0  0  0
    5.4588   -4.1099    8.4946 C   0  0  0  0  0  0  0  0  0  0  0  0
    4.4970   -4.7845    7.6226 C   0  0  0  0  0  0  0  0  0  0  0  0
    4.2861   -6.1397    7.5578 C   0  0  0  0  0  0  0  0  0  0  0  0
    3.4594   -6.7570    6.5984 C   0  0  0  0  0  0  0  0  0  0  0  0
    2.8221   -7.3188    5.8256 N   0  0  0  0  0  0  0  0  0  0  0  0
    4.9247   -7.0741    8.3947 C   0  0  0  0  0  0  0  0  0  0  0  0
    5.4260   -7.8676    9.0568 N   0  0  0  0  0  0  0  0  0  0  0  0
    2.5707   -3.1404    4.7855 C   0  0  0  0  0  0  0  0  0  0  0  0
    3.3796   -2.3010    3.9866 C   0  0  0  0  0  0  0  0  0  0  0  0
    4.7416   -2.2553    3.9829 N   0  0  0  0  0  0  0  0  0  0  0  0
    5.5296   -3.3243    4.4291 C   0  0  0  0  0  0  0  0  0  0  0  0
    5.1934   -4.6454    4.1245 C   0  0  0  0  0  0  0  0  0  0  0  0
    5.9365   -5.6835    4.6330 C   0  0  0  0  0  0  0  0  0  0  0  0
    7.0314   -5.4334    5.4647 C   0  0  0  0  0  0  0  0  0  0  0  0
    7.8415   -6.8410    6.1399 S   0  0  0  0  0  0  0  0  0  0  0  0
    8.9124   -6.1426    7.4280 C   0  0  0  0  0  0  0  0  0  0  0  0
    7.4119   -4.1204    5.7098 C   0  0  0  0  0  0  0  0  0  0  0  0
    6.6680   -3.0764    5.1931 C   0  0  0  0  0  0  0  0  0  0  0  0
    5.4006   -1.1099    3.4896 C   0  0  0  0  0  0  0  0  0  0  0  0
    6.4579   -1.2516    2.5984 C   0  0  0  0  0  0  0  0  0  0  0  0
    7.1078   -0.1389    2.1003 C   0  0  0  0  0  0  0  0  0  0  0  0
    6.7071    1.1321    2.4930 C   0  0  0  0  0  0  0  0  0  0  0  0
    7.4454    2.6249    1.9196 S   0  0  0  0  0  0  0  0  0  0  0  0
    8.7403    2.0703    0.7749 C   0  0  0  0  0  0  0  0  0  0  0  0
    5.6601    1.2719    3.4044 C   0  0  0  0  0  0  0  0  0  0  0  0
    5.0112    0.1642    3.8999 C   0  0  0  0  0  0  0  0  0  0  0  0
    2.5836   -1.5818    3.0628 C   0  0  0  0  0  0  0  0  0  0  0  0
    2.9365   -0.4346    1.8132 S   0  0  0  0  0  0  0  0  0  0  0  0
    1.2472   -0.3565    1.3867 C   0  0  0  0  0  0  0  0  0  0  0  0
    0.4581   -1.2173    2.1255 C   0  0  0  0  0  0  0  0  0  0  0  0
   -0.8881   -1.4343    1.8802 N   0  0  0  0  0  0  0  0  0  0  0  0
   -1.3242   -1.3827    0.5467 C   0  0  0  0  0  0  0  0  0  0  0  0
   -0.5710   -2.0101   -0.4428 C   0  0  0  0  0  0  0  0  0  0  0  0
   -0.9043   -1.8874   -1.7762 C   0  0  0  0  0  0  0  0  0  0  0  0
   -2.0082   -1.1316   -2.1451 C   0  0  0  0  0  0  0  0  0  0  0  0
   -2.4912   -0.8577   -3.8207 S   0  0  0  0  0  0  0  0  0  0  0  0
   -1.1332   -1.5830   -4.7886 C   0  0  0  0  0  0  0  0  0  0  0  0
   -2.7977   -0.5454   -1.1580 C   0  0  0  0  0  0  0  0  0  0  0  0
   -2.4652   -0.6734    0.1729 C   0  0  0  0  0  0  0  0  0  0  0  0
   -1.7746   -1.6101    2.9418 C   0  0  0  0  0  0  0  0  0  0  0  0
   -1.4977   -1.0694    4.1955 C   0  0  0  0  0  0  0  0  0  0  0  0
   -2.3607   -1.2630    5.2565 C   0  0  0  0  0  0  0  0  0  0  0  0
   -3.5255   -1.9959    5.0806 C   0  0  0  0  0  0  0  0  0  0  0  0
   -4.7147   -2.2859    6.3546 S   0  0  0  0  0  0  0  0  0  0  0  0
   -3.8521   -1.7782    7.8697 C   0  0  0  0  0  0  0  0  0  0  0  0
   -3.8136   -2.5287    3.8254 C   0  0  0  0  0  0  0  0  0  0  0  0
   -2.9488   -2.3459    2.7702 C   0  0  0  0  0  0  0  0  0  0  0  0
    1.2336   -1.9066    3.0881 C   0  0  0  0  0  0  0  0  0  0  0  0
    0.8795   -3.1240    4.2549 S   0  0  0  0  0  0  0  0  0  0  0  0
    0.7705    0.5464    0.3530 C   0  0  0  0  0  0  0  0  0  0  0  0
    1.2622    0.5272   -0.9334 C   0  0  0  0  0  0  0  0  0  0  0  0
    2.2353   -0.3404   -1.2668 F   0  0  0  0  0  0  0  0  0  0  0  0
    0.7370    1.3463   -1.9435 C   0  0  0  0  0  0  0  0  0  0  0  0
    1.2513    1.2078   -3.1820 F   0  0  0  0  0  0  0  0  0  0  0  0
   -0.2599    2.2641   -1.7018 C   0  0  0  0  0  0  0  0  0  0  0  0
   -0.7591    2.3343   -0.3746 C   0  0  0  0  0  0  0  0  0  0  0  0
   -1.7188    3.2288   -0.0821 N   0  0  0  0  0  0  0  0  0  0  0  0
   -2.2036    3.2830    1.1309 C   0  0  0  0  0  0  0  0  0  0  0  0
   -3.1795    4.3906    1.3907 C   0  0  0  0  0  0  0  0  0  0  0  0
   -2.4258    5.6425    1.8492 C   0  0  0  0  0  0  0  0  0  0  0  0
   -1.7486    2.3797    2.1364 C   0  0  0  0  0  0  0  0  0  0  0  0
   -0.7976    1.5175    1.8768 N   0  0  0  0  0  0  0  0  0  0  0  0
   -0.2737    1.4685    0.6372 C   0  0  0  0  0  0  0  0  0  0  0  0
   -2.3394    2.3407    3.5128 C   0  0  0  0  0  0  0  0  0  0  0  0
   -3.6707    1.5839    3.5175 C   0  0  0  0  0  0  0  0  0  0  0  0
   -0.7954    3.1352   -2.7552 C   0  0  0  0  0  0  0  0  0  0  0  0
   -1.1857    2.5869   -3.9677 C   0  0  0  0  0  0  0  0  0  0  0  0
   -1.6767    3.4395   -4.9446 C   0  0  0  0  0  0  0  0  0  0  0  0
   -2.1271    3.1477   -6.2041 N   0  0  0  0  0  0  0  0  0  0  0  0
   -2.1755    1.8339   -6.7920 C   0  0  0  0  0  0  0  0  0  0  0  0
   -0.8258    1.4370   -7.3874 C   0  0  0  0  0  0  0  0  0  0  0  0
   -2.4658    4.3233   -6.8265 C   0  0  0  0  0  0  0  0  0  0  0  0
   -2.2664    5.4063   -5.9266 C   0  0  0  0  0  0  0  0  0  0  0  0
   -1.7604    4.8387   -4.7207 C   0  0  0  0  0  0  0  0  0  0  0  0
   -1.3666    5.3693   -3.4945 C   0  0  0  0  0  0  0  0  0  0  0  0
   -0.8945    4.5175   -2.5243 C   0  0  0  0  0  0  0  0  0  0  0  0
   -2.5525    6.7063   -6.3421 C   0  0  0  0  0  0  0  0  0  0  0  0
   -3.0123    6.9065   -7.6182 C   0  0  0  0  0  0  0  0  0  0  0  0
   -3.2058    5.8328   -8.5270 C   0  0  0  0  0  0  0  0  0  0  0  0
   -2.9207    4.5256   -8.1139 C   0  0  0  0  0  0  0  0  0  0  0  0
   -3.6553    6.1907   -9.8352 C   0  0  0  0  0  0  0  0  0  0  0  0
   -4.0164    5.4920  -10.9541 C   0  0  0  0  0  0  0  0  0  0  0  0
   -4.2005    4.0375  -11.1666 C   0  0  0  0  0  0  0  0  0  0  0  0
   -3.9281    3.1046  -10.4391 O   0  0  0  0  0  0  0  0  0  0  0  0
   -4.8230    3.9024  -12.5013 C   0  0  0  0  0  0  0  0  0  0  0  0
   -5.2403    2.7436  -13.1249 C   0  0  0  0  0  0  0  0  0  0  0  0
   -5.8097    2.8820  -14.3808 C   0  0  0  0  0  0  0  0  0  0  0  0
   -6.2327    1.7841  -15.0293 F   0  0  0  0  0  0  0  0  0  0  0  0
   -5.9626    4.1169  -14.9947 C   0  0  0  0  0  0  0  0  0  0  0  0
   -5.5344    5.2709  -14.3575 C   0  0  0  0  0  0  0  0  0  0  0  0
   -4.9558    5.1647  -13.0996 C   0  0  0  0  0  0  0  0  0  0  0  0
   -4.4084    6.1671  -12.1902 C   0  0  0  0  0  0  0  0  0  0  0  0
   -4.2409    7.4893  -12.5043 C   0  0  0  0  0  0  0  0  0  0  0  0
   -4.6261    8.0637  -13.7358 C   0  0  0  0  0  0  0  0  0  0  0  0
   -4.9139    8.6001  -14.7089 N   0  0  0  0  0  0  0  0  0  0  0  0
   -3.6398    8.4836  -11.7005 C   0  0  0  0  0  0  0  0  0  0  0  0
   -3.1563    9.3666  -11.1468 N   0  0  0  0  0  0  0  0  0  0  0  0
    2.1683   -4.7510    6.0782 H   0  0  0  0  0  0  0  0  0  0  0  0
    6.4476   -0.8387    8.4342 H   0  0  0  0  0  0  0  0  0  0  0  0
    7.7157   -4.0228   11.0009 H   0  0  0  0  0  0  0  0  0  0  0  0
    6.1799   -5.6006    9.8749 H   0  0  0  0  0  0  0  0  0  0  0  0
    4.3406   -4.8541    3.4970 H   0  0  0  0  0  0  0  0  0  0  0  0
    5.6704   -6.7047    4.4081 H   0  0  0  0  0  0  0  0  0  0  0  0
    9.7408   -5.6015    6.9801 H   0  0  0  0  0  0  0  0  0  0  0  0
    9.2874   -6.9955    7.9847 H   0  0  0  0  0  0  0  0  0  0  0  0
    8.3264   -5.5030    8.0820 H   0  0  0  0  0  0  0  0  0  0  0  0
    8.2766   -3.8956    6.3128 H   0  0  0  0  0  0  0  0  0  0  0  0
    6.9597   -2.0567    5.3952 H   0  0  0  0  0  0  0  0  0  0  0  0
    6.7672   -2.2390    2.2883 H   0  0  0  0  0  0  0  0  0  0  0  0
    7.9179   -0.2789    1.4035 H   0  0  0  0  0  0  0  0  0  0  0  0
    8.2964    1.5242   -0.0524 H   0  0  0  0  0  0  0  0  0  0  0  0
    9.4715    1.4660    1.3037 H   0  0  0  0  0  0  0  0  0  0  0  0
    9.2106    2.9770    0.4068 H   0  0  0  0  0  0  0  0  0  0  0  0
    5.3697    2.2622    3.7196 H   0  0  0  0  0  0  0  0  0  0  0  0
    4.2227    0.2642    4.6286 H   0  0  0  0  0  0  0  0  0  0  0  0
    0.2980   -2.5881   -0.1649 H   0  0  0  0  0  0  0  0  0  0  0  0
   -0.2909   -2.3817   -2.5116 H   0  0  0  0  0  0  0  0  0  0  0  0
   -0.1903   -1.1179   -4.5150 H   0  0  0  0  0  0  0  0  0  0  0  0
   -1.1014   -2.6581   -4.6393 H   0  0  0  0  0  0  0  0  0  0  0  0
   -1.3650   -1.3664   -5.8268 H   0  0  0  0  0  0  0  0  0  0  0  0
   -3.6647    0.0275   -1.4496 H   0  0  0  0  0  0  0  0  0  0  0  0
   -3.0745   -0.2011    0.9284 H   0  0  0  0  0  0  0  0  0  0  0  0
   -0.6095   -0.4731    4.3344 H   0  0  0  0  0  0  0  0  0  0  0  0
   -2.1163   -0.8251    6.2108 H   0  0  0  0  0  0  0  0  0  0  0  0
   -2.8981   -2.2924    7.9367 H   0  0  0  0  0  0  0  0  0  0  0  0
   -4.4957   -2.0830    8.6891 H   0  0  0  0  0  0  0  0  0  0  0  0
   -3.7225   -0.6998    7.8880 H   0  0  0  0  0  0  0  0  0  0  0  0
   -4.7208   -3.0978    3.6932 H   0  0  0  0  0  0  0  0  0  0  0  0
   -3.1734   -2.7785    1.8070 H   0  0  0  0  0  0  0  0  0  0  0  0
   -3.6949    4.6106    0.4552 H   0  0  0  0  0  0  0  0  0  0  0  0
   -3.9120    4.1054    2.1438 H   0  0  0  0  0  0  0  0  0  0  0  0
   -1.8707    5.4506    2.7652 H   0  0  0  0  0  0  0  0  0  0  0  0
   -1.7229    5.9552    1.0811 H   0  0  0  0  0  0  0  0  0  0  0  0
   -3.1256    6.4540    2.0313 H   0  0  0  0  0  0  0  0  0  0  0  0
   -1.6373    1.8254    4.1680 H   0  0  0  0  0  0  0  0  0  0  0  0
   -2.4917    3.3545    3.8851 H   0  0  0  0  0  0  0  0  0  0  0  0
   -3.5174    0.5496    3.2220 H   0  0  0  0  0  0  0  0  0  0  0  0
   -4.3868    2.0352    2.8345 H   0  0  0  0  0  0  0  0  0  0  0  0
   -4.0967    1.5898    4.5175 H   0  0  0  0  0  0  0  0  0  0  0  0
   -1.1284    1.5238   -4.1313 H   0  0  0  0  0  0  0  0  0  0  0  0
   -2.4752    1.1222   -6.0171 H   0  0  0  0  0  0  0  0  0  0  0  0
   -2.9408    1.8345   -7.5713 H   0  0  0  0  0  0  0  0  0  0  0  0
   -0.8917    0.4502   -7.8377 H   0  0  0  0  0  0  0  0  0  0  0  0
   -0.5318    2.1477   -8.1561 H   0  0  0  0  0  0  0  0  0  0  0  0
   -0.0582    1.4231   -6.6171 H   0  0  0  0  0  0  0  0  0  0  0  0
   -1.4280    6.4318   -3.3151 H   0  0  0  0  0  0  0  0  0  0  0  0
   -0.5746    4.9051   -1.5710 H   0  0  0  0  0  0  0  0  0  0  0  0
   -2.4067    7.5382   -5.6702 H   0  0  0  0  0  0  0  0  0  0  0  0
   -3.2291    7.9103   -7.9527 H   0  0  0  0  0  0  0  0  0  0  0  0
   -3.0502    3.7035   -8.7945 H   0  0  0  0  0  0  0  0  0  0  0  0
   -3.7320    7.2664   -9.9486 H   0  0  0  0  0  0  0  0  0  0  0  0
   -5.1292    1.7787  -12.6567 H   0  0  0  0  0  0  0  0  0  0  0  0
   -6.4181    4.1649  -15.9712 H   0  0  0  0  0  0  0  0  0  0  0  0
   -5.6630    6.2232  -14.8441 H   0  0  0  0  0  0  0  0  0  0  0  0
  1  2  2  0  0  0  0
  2  3  1  0  0  0  0
  3  4  2  0  0  0  0
  3  5  1  0  0  0  0
  5  6  2  0  0  0  0
  6  7  1  0  0  0  0
  7  8  1  0  0  0  0
  7  9  2  0  0  0  0
  9 10  1  0  0  0  0
 10 11  2  0  0  0  0
 11 12  1  0  0  0  0
 12 13  2  0  0  0  0
 13 14  1  0  0  0  0
 14 15  3  0  0  0  0
 13 16  1  0  0  0  0
 16 17  3  0  0  0  0
  1 18  1  0  0  0  0
 18 19  2  0  0  0  0
 19 20  1  0  0  0  0
 20 21  1  0  0  0  0
 21 22  2  0  0  0  0
 22 23  1  0  0  0  0
 23 24  2  0  0  0  0
 24 25  1  0  0  0  0
 25 26  1  0  0  0  0
 24 27  1  0  0  0  0
 27 28  2  0  0  0  0
 20 29  1  0  0  0  0
 29 30  2  0  0  0  0
 30 31  1  0  0  0  0
 31 32  2  0  0  0  0
 32 33  1  0  0  0  0
 33 34  1  0  0  0  0
 32 35  1  0  0  0  0
 35 36  2  0  0  0  0
 19 37  1  0  0  0  0
 37 38  1  0  0  0  0
 38 39  1  0  0  0  0
 39 40  2  0  0  0  0
 40 41  1  0  0  0  0
 41 42  1  0  0  0  0
 42 43  2  0  0  0  0
 43 44  1  0  0  0  0
 44 45  2  0  0  0  0
 45 46  1  0  0  0  0
 46 47  1  0  0  0  0
 45 48  1  0  0  0  0
 48 49  2  0  0  0  0
 41 50  1  0  0  0  0
 50 51  2  0  0  0  0
 51 52  1  0  0  0  0
 52 53  2  0  0  0  0
 53 54  1  0  0  0  0
 54 55  1  0  0  0  0
 53 56  1  0  0  0  0
 56 57  2  0  0  0  0
 40 58  1  0  0  0  0
 58 59  1  0  0  0  0
 39 60  1  0  0  0  0
 60 61  2  0  0  0  0
 61 62  1  0  0  0  0
 61 63  1  0  0  0  0
 63 64  1  0  0  0  0
 63 65  2  0  0  0  0
 65 66  1  0  0  0  0
 66 67  2  0  0  0  0
 67 68  1  0  0  0  0
 68 69  1  0  0  0  0
 69 70  1  0  0  0  0
 68 71  2  0  0  0  0
 71 72  1  0  0  0  0
 72 73  2  0  0  0  0
 71 74  1  0  0  0  0
 74 75  1  0  0  0  0
 65 76  1  0  0  0  0
 76 77  2  0  0  0  0
 77 78  1  0  0  0  0
 78 79  1  0  0  0  0
 79 80  1  0  0  0  0
 80 81  1  0  0  0  0
 79 82  1  0  0  0  0
 82 83  2  0  0  0  0
 83 84  1  0  0  0  0
 84 85  1  0  0  0  0
 85 86  2  0  0  0  0
 83 87  1  0  0  0  0
 87 88  2  0  0  0  0
 88 89  1  0  0  0  0
 89 90  2  0  0  0  0
 89 91  1  0  0  0  0
 91 92  2  0  0  0  0
 92 93  1  0  0  0  0
 93 94  2  0  0  0  0
 93 95  1  0  0  0  0
 95 96  2  0  0  0  0
 96 97  1  0  0  0  0
 97 98  1  0  0  0  0
 97 99  2  0  0  0  0
 99100  1  0  0  0  0
100101  2  0  0  0  0
101102  1  0  0  0  0
102103  2  0  0  0  0
103104  1  0  0  0  0
104105  3  0  0  0  0
103106  1  0  0  0  0
106107  3  0  0  0  0
 12  2  1  0  0  0  0
 59 18  1  0  0  0  0
 73 60  1  0  0  0  0
 86 76  1  0  0  0  0
102 92  1  0  0  0  0
 11  5  1  0  0  0  0
 28 21  1  0  0  0  0
 36 29  1  0  0  0  0
 58 37  2  0  0  0  0
 73 66  1  0  0  0  0
 84 78  2  0  0  0  0
101 95  1  0  0  0  0
 49 42  1  0  0  0  0
 57 50  1  0  0  0  0
 90 82  1  0  0  0  0
  1108  1  0  0  0  0
  6109  1  0  0  0  0
  9110  1  0  0  0  0
 10111  1  0  0  0  0
 22112  1  0  0  0  0
 23113  1  0  0  0  0
 26114  1  0  0  0  0
 26115  1  0  0  0  0
 26116  1  0  0  0  0
 27117  1  0  0  0  0
 28118  1  0  0  0  0
 30119  1  0  0  0  0
 31120  1  0  0  0  0
 34121  1  0  0  0  0
 34122  1  0  0  0  0
 34123  1  0  0  0  0
 35124  1  0  0  0  0
 36125  1  0  0  0  0
 43126  1  0  0  0  0
 44127  1  0  0  0  0
 47128  1  0  0  0  0
 47129  1  0  0  0  0
 47130  1  0  0  0  0
 48131  1  0  0  0  0
 49132  1  0  0  0  0
 51133  1  0  0  0  0
 52134  1  0  0  0  0
 55135  1  0  0  0  0
 55136  1  0  0  0  0
 55137  1  0  0  0  0
 56138  1  0  0  0  0
 57139  1  0  0  0  0
 69140  1  0  0  0  0
 69141  1  0  0  0  0
 70142  1  0  0  0  0
 70143  1  0  0  0  0
 70144  1  0  0  0  0
 74145  1  0  0  0  0
 74146  1  0  0  0  0
 75147  1  0  0  0  0
 75148  1  0  0  0  0
 75149  1  0  0  0  0
 77150  1  0  0  0  0
 80151  1  0  0  0  0
 80152  1  0  0  0  0
 81153  1  0  0  0  0
 81154  1  0  0  0  0
 81155  1  0  0  0  0
 85156  1  0  0  0  0
 86157  1  0  0  0  0
 87158  1  0  0  0  0
 88159  1  0  0  0  0
 90160  1  0  0  0  0
 91161  1  0  0  0  0
 96162  1  0  0  0  0
 99163  1  0  0  0  0
100164  1  0  0  0  0
M  END
