
  xtb     02082200313D
 energy: -340.955327001502 gnorm: 0.000665956367 xtb: 6.4.1 (unknown)
193210  0     0  0            999 V2000
    2.8106    5.8860    3.1525 C   0  0  0  0  0  0  0  0  0  0  0  0
    3.8678    6.5576    2.5696 C   0  0  0  0  0  0  0  0  0  0  0  0
    3.9511    6.8605    1.1349 C   0  0  0  0  0  0  0  0  0  0  0  0
    3.1552    6.5565    0.2662 O   0  0  0  0  0  0  0  0  0  0  0  0
    5.1341    7.7419    0.9871 C   0  0  0  0  0  0  0  0  0  0  0  0
    5.6531    8.3019   -0.1602 C   0  0  0  0  0  0  0  0  0  0  0  0
    6.7988    9.0722   -0.0171 C   0  0  0  0  0  0  0  0  0  0  0  0
    7.3483    9.6252   -1.1136 F   0  0  0  0  0  0  0  0  0  0  0  0
    7.4027    9.2895    1.2104 C   0  0  0  0  0  0  0  0  0  0  0  0
    6.8628    8.7283    2.3591 C   0  0  0  0  0  0  0  0  0  0  0  0
    5.7226    7.9503    2.2461 C   0  0  0  0  0  0  0  0  0  0  0  0
    4.9562    7.2059    3.2429 C   0  0  0  0  0  0  0  0  0  0  0  0
    5.3173    7.0045    4.5529 C   0  0  0  0  0  0  0  0  0  0  0  0
    4.6559    6.1072    5.4142 C   0  0  0  0  0  0  0  0  0  0  0  0
    4.2024    5.3499    6.1498 N   0  0  0  0  0  0  0  0  0  0  0  0
    6.4436    7.5828    5.1656 C   0  0  0  0  0  0  0  0  0  0  0  0
    7.3545    8.0036    5.7253 N   0  0  0  0  0  0  0  0  0  0  0  0
    2.0137    4.9207    2.5349 C   0  0  0  0  0  0  0  0  0  0  0  0
    2.2661    4.0572    1.4489 C   0  0  0  0  0  0  0  0  0  0  0  0
    3.4156    3.9208    0.7200 N   0  0  0  0  0  0  0  0  0  0  0  0
    4.6867    4.1665    1.2393 C   0  0  0  0  0  0  0  0  0  0  0  0
    4.9916    3.8721    2.5678 C   0  0  0  0  0  0  0  0  0  0  0  0
    6.2331    4.1680    3.0921 C   0  0  0  0  0  0  0  0  0  0  0  0
    7.2019    4.7704    2.2962 C   0  0  0  0  0  0  0  0  0  0  0  0
    8.7867    5.2734    2.8679 S   0  0  0  0  0  0  0  0  0  0  0  0
    8.8214    4.7664    4.6093 C   0  0  0  0  0  0  0  0  0  0  0  0
    6.9192    5.0177    0.9524 C   0  0  0  0  0  0  0  0  0  0  0  0
    5.6822    4.7203    0.4286 C   0  0  0  0  0  0  0  0  0  0  0  0
    3.2920    3.5343   -0.6343 C   0  0  0  0  0  0  0  0  0  0  0  0
    4.0846    2.5196   -1.1573 C   0  0  0  0  0  0  0  0  0  0  0  0
    3.9778    2.1613   -2.4885 C   0  0  0  0  0  0  0  0  0  0  0  0
    3.0869    2.8295   -3.3186 C   0  0  0  0  0  0  0  0  0  0  0  0
    2.8801    2.5029   -5.0352 S   0  0  0  0  0  0  0  0  0  0  0  0
    4.1224    1.2349   -5.4024 C   0  0  0  0  0  0  0  0  0  0  0  0
    2.2976    3.8523   -2.7924 C   0  0  0  0  0  0  0  0  0  0  0  0
    2.3858    4.1943   -1.4636 C   0  0  0  0  0  0  0  0  0  0  0  0
    1.1556    3.2111    1.2260 C   0  0  0  0  0  0  0  0  0  0  0  0
    0.9042    1.8534    0.1954 S   0  0  0  0  0  0  0  0  0  0  0  0
   -0.6864    1.5557    0.9234 C   0  0  0  0  0  0  0  0  0  0  0  0
   -1.0017    2.4971    1.8848 C   0  0  0  0  0  0  0  0  0  0  0  0
   -2.2126    2.6841    2.5109 N   0  0  0  0  0  0  0  0  0  0  0  0
   -3.1213    1.6453    2.7766 C   0  0  0  0  0  0  0  0  0  0  0  0
   -4.4561    1.8071    2.4169 C   0  0  0  0  0  0  0  0  0  0  0  0
   -5.4023    0.8697    2.7757 C   0  0  0  0  0  0  0  0  0  0  0  0
   -5.0260   -0.2420    3.5185 C   0  0  0  0  0  0  0  0  0  0  0  0
   -6.1747   -1.4540    4.0918 S   0  0  0  0  0  0  0  0  0  0  0  0
   -7.7899   -0.6472    3.8900 C   0  0  0  0  0  0  0  0  0  0  0  0
   -3.6854   -0.4248    3.8508 C   0  0  0  0  0  0  0  0  0  0  0  0
   -2.7386    0.5064    3.4798 C   0  0  0  0  0  0  0  0  0  0  0  0
   -2.6247    3.9915    2.8312 C   0  0  0  0  0  0  0  0  0  0  0  0
   -3.3507    4.2196    3.9962 C   0  0  0  0  0  0  0  0  0  0  0  0
   -3.7800    5.4901    4.3263 C   0  0  0  0  0  0  0  0  0  0  0  0
   -3.4801    6.5621    3.4971 C   0  0  0  0  0  0  0  0  0  0  0  0
   -3.9630    8.2297    3.8076 S   0  0  0  0  0  0  0  0  0  0  0  0
   -4.9246    8.1302    5.3439 C   0  0  0  0  0  0  0  0  0  0  0  0
   -2.7485    6.3393    2.3330 C   0  0  0  0  0  0  0  0  0  0  0  0
   -2.3310    5.0716    1.9987 C   0  0  0  0  0  0  0  0  0  0  0  0
    0.0854    3.3970    2.0817 C   0  0  0  0  0  0  0  0  0  0  0  0
    0.4228    4.6173    3.2556 S   0  0  0  0  0  0  0  0  0  0  0  0
   -1.3255    0.3864    0.3747 C   0  0  0  0  0  0  0  0  0  0  0  0
   -1.4737    0.2264   -0.9908 C   0  0  0  0  0  0  0  0  0  0  0  0
   -1.3287    1.2480   -1.9173 N   0  0  0  0  0  0  0  0  0  0  0  0
   -1.9005    2.5017   -1.6998 C   0  0  0  0  0  0  0  0  0  0  0  0
   -1.2899    3.6457   -2.2047 C   0  0  0  0  0  0  0  0  0  0  0  0
   -1.8512    4.8928   -2.0112 C   0  0  0  0  0  0  0  0  0  0  0  0
   -3.0391    5.0175   -1.3034 C   0  0  0  0  0  0  0  0  0  0  0  0
   -3.8620    6.5509   -1.0013 S   0  0  0  0  0  0  0  0  0  0  0  0
   -2.6222    7.7982   -1.4539 C   0  0  0  0  0  0  0  0  0  0  0  0
   -3.6512    3.8741   -0.7926 C   0  0  0  0  0  0  0  0  0  0  0  0
   -3.0912    2.6315   -0.9825 C   0  0  0  0  0  0  0  0  0  0  0  0
   -0.6461    0.9263   -3.1003 C   0  0  0  0  0  0  0  0  0  0  0  0
    0.4805    0.1045   -3.0349 C   0  0  0  0  0  0  0  0  0  0  0  0
    1.0684   -0.3611   -4.1874 C   0  0  0  0  0  0  0  0  0  0  0  0
    0.5670    0.0086   -5.4323 C   0  0  0  0  0  0  0  0  0  0  0  0
    1.3637   -0.7022   -6.8390 S   0  0  0  0  0  0  0  0  0  0  0  0
    0.3869   -0.1031   -8.2444 C   0  0  0  0  0  0  0  0  0  0  0  0
   -0.5035    0.8880   -5.5024 C   0  0  0  0  0  0  0  0  0  0  0  0
   -1.1095    1.3367   -4.3449 C   0  0  0  0  0  0  0  0  0  0  0  0
   -1.7144   -1.1196   -1.3443 C   0  0  0  0  0  0  0  0  0  0  0  0
   -1.8243   -1.9271   -2.8621 S   0  0  0  0  0  0  0  0  0  0  0  0
   -1.8293   -3.4833   -2.0484 C   0  0  0  0  0  0  0  0  0  0  0  0
   -1.7000   -3.3611   -0.6565 C   0  0  0  0  0  0  0  0  0  0  0  0
   -1.4615   -4.3881    0.2295 N   0  0  0  0  0  0  0  0  0  0  0  0
   -1.9057   -4.2404    1.5557 C   0  0  0  0  0  0  0  0  0  0  0  0
   -3.2177   -3.8425    1.8098 C   0  0  0  0  0  0  0  0  0  0  0  0
   -3.6709   -3.7501    3.1052 C   0  0  0  0  0  0  0  0  0  0  0  0
   -2.8212   -4.0306    4.1749 C   0  0  0  0  0  0  0  0  0  0  0  0
   -3.5133   -3.8580    5.7870 S   0  0  0  0  0  0  0  0  0  0  0  0
   -2.2041   -4.4585    6.8938 C   0  0  0  0  0  0  0  0  0  0  0  0
   -1.5074   -4.4062    3.9248 C   0  0  0  0  0  0  0  0  0  0  0  0
   -1.0576   -4.5140    2.6246 C   0  0  0  0  0  0  0  0  0  0  0  0
   -0.6195   -5.4704   -0.0734 C   0  0  0  0  0  0  0  0  0  0  0  0
   -0.8403   -6.7043    0.5437 C   0  0  0  0  0  0  0  0  0  0  0  0
   -0.0093   -7.7698    0.2888 C   0  0  0  0  0  0  0  0  0  0  0  0
    1.0578   -7.6372   -0.5972 C   0  0  0  0  0  0  0  0  0  0  0  0
    2.0888   -9.0440   -0.8131 S   0  0  0  0  0  0  0  0  0  0  0  0
    3.0000   -8.6730   -2.3371 C   0  0  0  0  0  0  0  0  0  0  0  0
    1.2742   -6.4167   -1.2225 C   0  0  0  0  0  0  0  0  0  0  0  0
    0.4442   -5.3448   -0.9617 C   0  0  0  0  0  0  0  0  0  0  0  0
   -1.6856   -1.9967   -0.2729 C   0  0  0  0  0  0  0  0  0  0  0  0
   -1.4921   -1.1466    1.2316 S   0  0  0  0  0  0  0  0  0  0  0  0
   -1.9262   -4.6415   -2.8660 C   0  0  0  0  0  0  0  0  0  0  0  0
   -2.2928   -5.9091   -2.4162 C   0  0  0  0  0  0  0  0  0  0  0  0
   -2.2651   -7.0162   -3.2493 C   0  0  0  0  0  0  0  0  0  0  0  0
   -2.6990   -8.1722   -2.7186 F   0  0  0  0  0  0  0  0  0  0  0  0
   -1.9161   -6.9873   -4.6015 C   0  0  0  0  0  0  0  0  0  0  0  0
   -1.6576   -5.6902   -5.1150 C   0  0  0  0  0  0  0  0  0  0  0  0
   -1.6545   -4.5377   -4.2600 C   0  0  0  0  0  0  0  0  0  0  0  0
   -1.3465   -3.4288   -4.9238 N   0  0  0  0  0  0  0  0  0  0  0  0
   -1.0821   -3.7953   -6.4695 S   0  0  0  0  0  0  0  0  0  0  0  0
   -1.3417   -5.3823   -6.3697 N   0  0  0  0  0  0  0  0  0  0  0  0
   -1.8723   -8.1314   -5.4531 C   0  0  0  0  0  0  0  0  0  0  0  0
   -1.4211   -9.3588   -5.0662 C   0  0  0  0  0  0  0  0  0  0  0  0
   -0.5365   -9.5677   -3.8958 C   0  0  0  0  0  0  0  0  0  0  0  0
   -0.1150   -8.7307   -3.1258 O   0  0  0  0  0  0  0  0  0  0  0  0
   -0.1260  -10.9863   -3.9604 C   0  0  0  0  0  0  0  0  0  0  0  0
    0.6921  -11.6786   -3.0904 C   0  0  0  0  0  0  0  0  0  0  0  0
    0.9379  -13.0093   -3.3932 C   0  0  0  0  0  0  0  0  0  0  0  0
    1.7263  -13.7280   -2.5754 F   0  0  0  0  0  0  0  0  0  0  0  0
    0.4058  -13.6290   -4.5142 C   0  0  0  0  0  0  0  0  0  0  0  0
   -0.4134  -12.9202   -5.3800 C   0  0  0  0  0  0  0  0  0  0  0  0
   -0.6857  -11.5884   -5.1014 C   0  0  0  0  0  0  0  0  0  0  0  0
   -1.5072  -10.6030   -5.8007 C   0  0  0  0  0  0  0  0  0  0  0  0
   -2.2840  -10.8394   -6.9042 C   0  0  0  0  0  0  0  0  0  0  0  0
   -3.1380   -9.8882   -7.5019 C   0  0  0  0  0  0  0  0  0  0  0  0
   -3.8682   -9.1787   -8.0325 N   0  0  0  0  0  0  0  0  0  0  0  0
   -2.3486  -12.0768   -7.5770 C   0  0  0  0  0  0  0  0  0  0  0  0
   -2.4363  -13.0569   -8.1687 N   0  0  0  0  0  0  0  0  0  0  0  0
    2.5439    6.1305    4.1740 H   0  0  0  0  0  0  0  0  0  0  0  0
    5.1992    8.1423   -1.1252 H   0  0  0  0  0  0  0  0  0  0  0  0
    8.2923    9.8970    1.2599 H   0  0  0  0  0  0  0  0  0  0  0  0
    7.3338    8.9066    3.3119 H   0  0  0  0  0  0  0  0  0  0  0  0
    4.2486    3.4111    3.2011 H   0  0  0  0  0  0  0  0  0  0  0  0
    6.4268    3.9337    4.1264 H   0  0  0  0  0  0  0  0  0  0  0  0
    8.0661    5.3047    5.1739 H   0  0  0  0  0  0  0  0  0  0  0  0
    8.6881    3.6914    4.6856 H   0  0  0  0  0  0  0  0  0  0  0  0
    9.8074    5.0432    4.9691 H   0  0  0  0  0  0  0  0  0  0  0  0
    7.6800    5.4667    0.3329 H   0  0  0  0  0  0  0  0  0  0  0  0
    5.4658    4.9336   -0.6069 H   0  0  0  0  0  0  0  0  0  0  0  0
    4.7887    2.0082   -0.5173 H   0  0  0  0  0  0  0  0  0  0  0  0
    4.5985    1.3647   -2.8652 H   0  0  0  0  0  0  0  0  0  0  0  0
    4.0219    1.0256   -6.4626 H   0  0  0  0  0  0  0  0  0  0  0  0
    5.1158    1.6186   -5.1899 H   0  0  0  0  0  0  0  0  0  0  0  0
    3.9103    0.3343   -4.8354 H   0  0  0  0  0  0  0  0  0  0  0  0
    1.6359    4.3887   -3.4554 H   0  0  0  0  0  0  0  0  0  0  0  0
    1.7950    5.0010   -1.0602 H   0  0  0  0  0  0  0  0  0  0  0  0
   -4.7511    2.6880    1.8669 H   0  0  0  0  0  0  0  0  0  0  0  0
   -6.4273    1.0211    2.4782 H   0  0  0  0  0  0  0  0  0  0  0  0
   -8.0545   -0.5837    2.8385 H   0  0  0  0  0  0  0  0  0  0  0  0
   -7.7685    0.3349    4.3527 H   0  0  0  0  0  0  0  0  0  0  0  0
   -8.4992   -1.2856    4.4074 H   0  0  0  0  0  0  0  0  0  0  0  0
   -3.4008   -1.2902    4.4267 H   0  0  0  0  0  0  0  0  0  0  0  0
   -1.7048    0.3736    3.7621 H   0  0  0  0  0  0  0  0  0  0  0  0
   -3.5801    3.3922    4.6512 H   0  0  0  0  0  0  0  0  0  0  0  0
   -4.3384    5.6275    5.2380 H   0  0  0  0  0  0  0  0  0  0  0  0
   -5.7830    7.4800    5.2025 H   0  0  0  0  0  0  0  0  0  0  0  0
   -5.2593    9.1432    5.5447 H   0  0  0  0  0  0  0  0  0  0  0  0
   -4.2935    7.7831    6.1570 H   0  0  0  0  0  0  0  0  0  0  0  0
   -2.5236    7.1761    1.6912 H   0  0  0  0  0  0  0  0  0  0  0  0
   -1.7830    4.9102    1.0829 H   0  0  0  0  0  0  0  0  0  0  0  0
   -0.3653    3.5469   -2.7513 H   0  0  0  0  0  0  0  0  0  0  0  0
   -1.3512    5.7576   -2.4169 H   0  0  0  0  0  0  0  0  0  0  0  0
   -2.4702    7.8070   -2.5294 H   0  0  0  0  0  0  0  0  0  0  0  0
   -1.6930    7.6027   -0.9265 H   0  0  0  0  0  0  0  0  0  0  0  0
   -3.0359    8.7499   -1.1346 H   0  0  0  0  0  0  0  0  0  0  0  0
   -4.5786    3.9811   -0.2510 H   0  0  0  0  0  0  0  0  0  0  0  0
   -3.5763    1.7527   -0.5838 H   0  0  0  0  0  0  0  0  0  0  0  0
    0.8745   -0.1816   -2.0706 H   0  0  0  0  0  0  0  0  0  0  0  0
    1.9140   -1.0305   -4.1367 H   0  0  0  0  0  0  0  0  0  0  0  0
   -0.6478   -0.4131   -8.1310 H   0  0  0  0  0  0  0  0  0  0  0  0
    0.4726    0.9769   -8.3211 H   0  0  0  0  0  0  0  0  0  0  0  0
    0.8187   -0.5704   -9.1240 H   0  0  0  0  0  0  0  0  0  0  0  0
   -0.8938    1.2164   -6.4517 H   0  0  0  0  0  0  0  0  0  0  0  0
   -1.9664    1.9909   -4.4065 H   0  0  0  0  0  0  0  0  0  0  0  0
   -3.8806   -3.6286    0.9846 H   0  0  0  0  0  0  0  0  0  0  0  0
   -4.6910   -3.4666    3.3083 H   0  0  0  0  0  0  0  0  0  0  0  0
   -1.9396   -5.4790    6.6339 H   0  0  0  0  0  0  0  0  0  0  0  0
   -1.3412   -3.8007    6.8476 H   0  0  0  0  0  0  0  0  0  0  0  0
   -2.6327   -4.4311    7.8909 H   0  0  0  0  0  0  0  0  0  0  0  0
   -0.8228   -4.6150    4.7306 H   0  0  0  0  0  0  0  0  0  0  0  0
   -0.0371   -4.8104    2.4327 H   0  0  0  0  0  0  0  0  0  0  0  0
   -1.6742   -6.8210    1.2202 H   0  0  0  0  0  0  0  0  0  0  0  0
   -0.1841   -8.7224    0.7641 H   0  0  0  0  0  0  0  0  0  0  0  0
    2.2843   -8.3908   -3.1034 H   0  0  0  0  0  0  0  0  0  0  0  0
    3.5091   -9.5908   -2.6155 H   0  0  0  0  0  0  0  0  0  0  0  0
    3.7308   -7.8887   -2.1615 H   0  0  0  0  0  0  0  0  0  0  0  0
    2.0937   -6.2825   -1.9096 H   0  0  0  0  0  0  0  0  0  0  0  0
    0.6358   -4.3961   -1.4412 H   0  0  0  0  0  0  0  0  0  0  0  0
   -2.6319   -6.0574   -1.4054 H   0  0  0  0  0  0  0  0  0  0  0  0
   -2.1763   -7.9591   -6.4774 H   0  0  0  0  0  0  0  0  0  0  0  0
    1.1096  -11.2118   -2.2117 H   0  0  0  0  0  0  0  0  0  0  0  0
    0.6379  -14.6656   -4.7016 H   0  0  0  0  0  0  0  0  0  0  0  0
   -0.8184  -13.4093   -6.2506 H   0  0  0  0  0  0  0  0  0  0  0  0
  1  2  2  0  0  0  0
  2  3  1  0  0  0  0
  3  4  2  0  0  0  0
  3  5  1  0  0  0  0
  5  6  2  0  0  0  0
  6  7  1  0  0  0  0
  7  8  1  0  0  0  0
  7  9  2  0  0  0  0
  9 10  1  0  0  0  0
 10 11  2  0  0  0  0
 11 12  1  0  0  0  0
 12 13  2  0  0  0  0
 13 14  1  0  0  0  0
 14 15  3  0  0  0  0
 13 16  1  0  0  0  0
 16 17  3  0  0  0  0
  1 18  1  0  0  0  0
 18 19  2  0  0  0  0
 19 20  1  0  0  0  0
 20 21  1  0  0  0  0
 21 22  2  0  0  0  0
 22 23  1  0  0  0  0
 23 24  2  0  0  0  0
 24 25  1  0  0  0  0
 25 26  1  0  0  0  0
 24 27  1  0  0  0  0
 27 28  2  0  0  0  0
 20 29  1  0  0  0  0
 29 30  2  0  0  0  0
 30 31  1  0  0  0  0
 31 32  2  0  0  0  0
 32 33  1  0  0  0  0
 33 34  1  0  0  0  0
 32 35  1  0  0  0  0
 35 36  2  0  0  0  0
 19 37  1  0  0  0  0
 37 38  1  0  0  0  0
 38 39  1  0  0  0  0
 39 40  2  0  0  0  0
 40 41  1  0  0  0  0
 41 42  1  0  0  0  0
 42 43  2  0  0  0  0
 43 44  1  0  0  0  0
 44 45  2  0  0  0  0
 45 46  1  0  0  0  0
 46 47  1  0  0  0  0
 45 48  1  0  0  0  0
 48 49  2  0  0  0  0
 41 50  1  0  0  0  0
 50 51  2  0  0  0  0
 51 52  1  0  0  0  0
 52 53  2  0  0  0  0
 53 54  1  0  0  0  0
 54 55  1  0  0  0  0
 53 56  1  0  0  0  0
 56 57  2  0  0  0  0
 40 58  1  0  0  0  0
 58 59  1  0  0  0  0
 39 60  1  0  0  0  0
 60 61  2  0  0  0  0
 61 62  1  0  0  0  0
 62 63  1  0  0  0  0
 63 64  2  0  0  0  0
 64 65  1  0  0  0  0
 65 66  2  0  0  0  0
 66 67  1  0  0  0  0
 67 68  1  0  0  0  0
 66 69  1  0  0  0  0
 69 70  2  0  0  0  0
 62 71  1  0  0  0  0
 71 72  2  0  0  0  0
 72 73  1  0  0  0  0
 73 74  2  0  0  0  0
 74 75  1  0  0  0  0
 75 76  1  0  0  0  0
 74 77  1  0  0  0  0
 77 78  2  0  0  0  0
 61 79  1  0  0  0  0
 79 80  1  0  0  0  0
 80 81  1  0  0  0  0
 81 82  2  0  0  0  0
 82 83  1  0  0  0  0
 83 84  1  0  0  0  0
 84 85  2  0  0  0  0
 85 86  1  0  0  0  0
 86 87  2  0  0  0  0
 87 88  1  0  0  0  0
 88 89  1  0  0  0  0
 87 90  1  0  0  0  0
 90 91  2  0  0  0  0
 83 92  1  0  0  0  0
 92 93  2  0  0  0  0
 93 94  1  0  0  0  0
 94 95  2  0  0  0  0
 95 96  1  0  0  0  0
 96 97  1  0  0  0  0
 95 98  1  0  0  0  0
 98 99  2  0  0  0  0
 82100  1  0  0  0  0
100101  1  0  0  0  0
 81102  1  0  0  0  0
102103  2  0  0  0  0
103104  1  0  0  0  0
104105  1  0  0  0  0
104106  2  0  0  0  0
106107  1  0  0  0  0
107108  1  0  0  0  0
108109  2  0  0  0  0
109110  1  0  0  0  0
110111  1  0  0  0  0
106112  1  0  0  0  0
112113  2  0  0  0  0
113114  1  0  0  0  0
114115  2  0  0  0  0
114116  1  0  0  0  0
116117  2  0  0  0  0
117118  1  0  0  0  0
118119  1  0  0  0  0
118120  2  0  0  0  0
120121  1  0  0  0  0
121122  2  0  0  0  0
122123  1  0  0  0  0
123124  2  0  0  0  0
124125  1  0  0  0  0
125126  3  0  0  0  0
124127  1  0  0  0  0
127128  3  0  0  0  0
 12  2  1  0  0  0  0
 59 18  1  0  0  0  0
101 60  1  0  0  0  0
108102  1  0  0  0  0
123113  1  0  0  0  0
 11  5  1  0  0  0  0
 28 21  1  0  0  0  0
 36 29  1  0  0  0  0
 58 37  2  0  0  0  0
 70 63  1  0  0  0  0
 78 71  1  0  0  0  0
100 79  2  0  0  0  0
111107  2  0  0  0  0
122116  1  0  0  0  0
 49 42  1  0  0  0  0
 57 50  1  0  0  0  0
 91 84  1  0  0  0  0
 99 92  1  0  0  0  0
  1129  1  0  0  0  0
  6130  1  0  0  0  0
  9131  1  0  0  0  0
 10132  1  0  0  0  0
 22133  1  0  0  0  0
 23134  1  0  0  0  0
 26135  1  0  0  0  0
 26136  1  0  0  0  0
 26137  1  0  0  0  0
 27138  1  0  0  0  0
 28139  1  0  0  0  0
 30140  1  0  0  0  0
 31141  1  0  0  0  0
 34142  1  0  0  0  0
 34143  1  0  0  0  0
 34144  1  0  0  0  0
 35145  1  0  0  0  0
 36146  1  0  0  0  0
 43147  1  0  0  0  0
 44148  1  0  0  0  0
 47149  1  0  0  0  0
 47150  1  0  0  0  0
 47151  1  0  0  0  0
 48152  1  0  0  0  0
 49153  1  0  0  0  0
 51154  1  0  0  0  0
 52155  1  0  0  0  0
 55156  1  0  0  0  0
 55157  1  0  0  0  0
 55158  1  0  0  0  0
 56159  1  0  0  0  0
 57160  1  0  0  0  0
 64161  1  0  0  0  0
 65162  1  0  0  0  0
 68163  1  0  0  0  0
 68164  1  0  0  0  0
 68165  1  0  0  0  0
 69166  1  0  0  0  0
 70167  1  0  0  0  0
 72168  1  0  0  0  0
 73169  1  0  0  0  0
 76170  1  0  0  0  0
 76171  1  0  0  0  0
 76172  1  0  0  0  0
 77173  1  0  0  0  0
 78174  1  0  0  0  0
 85175  1  0  0  0  0
 86176  1  0  0  0  0
 89177  1  0  0  0  0
 89178  1  0  0  0  0
 89179  1  0  0  0  0
 90180  1  0  0  0  0
 91181  1  0  0  0  0
 93182  1  0  0  0  0
 94183  1  0  0  0  0
 97184  1  0  0  0  0
 97185  1  0  0  0  0
 97186  1  0  0  0  0
 98187  1  0  0  0  0
 99188  1  0  0  0  0
103189  1  0  0  0  0
112190  1  0  0  0  0
117191  1  0  0  0  0
120192  1  0  0  0  0
121193  1  0  0  0  0
M  END
