152

C         -1.49710        9.27640       -6.07530
C         -1.89680       10.07900       -5.05730
C         -1.84390        9.72650       -3.60830
O         -1.59730        8.65850       -3.10230
C         -2.07120       11.00210       -2.89280
C         -2.07540       11.21680       -1.52910
C         -2.31340       12.51420       -1.10210
F         -2.33140       12.77430        0.21430
C         -2.53270       13.56020       -1.98810
C         -2.52290       13.33090       -3.35450
C         -2.29190       12.04040       -3.81410
C         -2.22470       11.49460       -5.16510
C         -2.49300       12.17930       -6.31870
C         -2.49490       11.61980       -7.61530
N         -2.51940       11.24370       -8.69960
C         -2.82900       13.54980       -6.36730
N         -3.10300       14.65890       -6.47400
C         -1.23150        7.86110       -6.00440
C         -2.01180        6.99340       -5.22090
C         -1.67220        5.66450       -5.17910
C         -2.30640        4.55810       -4.40960
O         -3.31460        4.59640       -3.74900
C         -1.40710        3.39460       -4.63810
C         -0.38540        3.76160       -5.53620
C         -0.56050        5.16240       -5.88560
C          0.17110        6.00070       -6.70770
C         -0.18400        7.33750       -6.77280
C          0.60240        2.85450       -5.86910
C          0.62290        1.63160       -5.21830
C         -0.34140        1.29510       -4.26520
C         -1.41360        2.16460       -4.02530
C         -0.15540        0.12190       -3.43140
C          0.99530       -0.19770       -2.73510
N          2.15870        0.55950       -2.71290
C          2.08650        1.95850       -2.76340
C          1.06890        2.64090       -2.09390
C          0.92490        3.99990       -2.24540
C          1.80270        4.72060       -3.05450
S          1.45630        6.44200       -3.23230
C          2.74070        7.02430       -4.37720
C          2.85970        4.05860       -3.66310
C          2.99590        2.69050       -3.52110
C          3.39340       -0.09490       -2.63950
C          4.44300        0.45130       -1.90600
C          5.65860       -0.19800       -1.82260
C          5.84360       -1.41600       -2.46350
S          7.34800       -2.33940       -2.42800
C          8.38280       -1.44460       -1.23520
C          4.79740       -1.96510       -3.20150
C          3.58930       -1.31190       -3.29450
C          0.80630       -1.36940       -1.95780
S          1.79080       -2.23690       -0.83380
C          0.47660       -3.35530       -0.51990
C         -0.67760       -3.03500       -1.21340
N         -1.90840       -3.65880       -1.07280
C         -2.74250       -3.77770       -2.19210
C         -4.12660       -3.65730       -2.05840
C         -4.94080       -3.76610       -3.16160
C         -4.39740       -3.98930       -4.42660
S         -5.54590       -4.10590       -5.76150
C         -4.49550       -4.31590       -7.22750
C         -3.02240       -4.11220       -4.56430
C         -2.20520       -4.01250       -3.45460
C         -2.30530       -4.18270        0.16500
C         -1.99770       -3.52150        1.35130
C         -2.26940       -4.09830        2.57570
C         -2.87640       -5.34540        2.63690
S         -3.19110       -6.22770        4.13320
C         -2.60050       -5.12020        5.44100
C         -3.25770       -5.97520        1.45370
C         -2.97420       -5.40590        0.23310
C         -0.46730       -1.90380       -2.04530
S         -1.48430       -0.96620       -3.08430
C          0.62410       -4.39060        0.48350
C          1.18130       -4.07370        1.72980
C          1.07370       -4.99030        2.74770
C          1.42010       -4.83340        4.18470
O          1.92390       -3.87910        4.72660
C          0.93690       -6.09190        4.81720
C          0.36290       -6.92010        3.82950
C          0.46150       -6.24380        2.54600
C          0.02520       -6.60420        1.28490
C          0.10620       -5.67070        0.26480
C         -0.24840       -8.10680        4.19370
C         -0.27790       -8.45010        5.53440
C          0.33050       -7.65690        6.51690
C          0.94030       -6.44630        6.14350
C          0.23370       -8.05790        7.89660
C          1.15870       -7.86260        8.87080
C          2.59660       -7.54460        8.64270
O          3.14620       -7.25190        7.60710
C          3.25220       -7.76430        9.95150
C          4.59290       -7.64390       10.25810
C          4.96040       -7.90970       11.56840
F          6.25180       -7.80130       11.91710
C          4.04070       -8.28690       12.53730
C          2.69810       -8.40570       12.21570
C          2.29760       -8.14030       10.91270
C          0.98210       -8.16350       10.28400
C         -0.21400       -8.33440       10.92630
C         -0.34100       -8.60010       12.30660
N         -0.50390       -8.82670       13.41960
C         -1.47920       -8.22530       10.30880
N         -2.53890       -8.12160        9.88010
H         -1.30620        9.73090       -7.04060
H         -1.90480       10.41210       -0.83190
H         -2.70880       14.55010       -1.59760
H         -2.68810       14.15140       -4.03300
H         -2.87260        7.35070       -4.68040
H          1.00240        5.62670       -7.28730
H          0.38570        8.00890       -7.40000
H          1.37040        3.10050       -6.58670
H          1.41380        0.92770       -5.43130
H         -2.18620        1.90270       -3.31790
H          0.38120        2.09330       -1.46740
H          0.12400        4.52380       -1.74680
H          2.53150        8.07780       -4.53480
H          2.66710        6.48970       -5.31940
H          3.72350        6.90750       -3.93000
H          3.57510        4.59050       -4.26900
H          3.80530        2.17970       -4.02200
H          4.30040        1.39110       -1.39350
H          6.44930        0.25430       -1.24620
H          7.86990       -1.37840       -0.28030
H          9.28530       -2.03850       -1.12940
H          8.63440       -0.46030       -1.61980
H          4.94860       -2.90750       -3.70500
H          2.78890       -1.74030       -3.87960
H         -4.55300       -3.47250       -1.08410
H         -6.01080       -3.66940       -3.06110
H         -3.94260       -5.24850       -7.16050
H         -5.17770       -4.35360       -8.07100
H         -3.82850       -3.46500       -7.33030
H         -2.57070       -4.29400       -5.52600
H         -1.13680       -4.12510       -3.56970
H         -1.52150       -2.55310        1.31530
H         -1.99610       -3.56610        3.47240
H         -1.53850       -4.92740        5.31720
H         -3.17500       -4.19860        5.43290
H         -2.77150       -5.65260        6.37180
H         -3.75810       -6.92980        1.50700
H         -3.24860       -5.91600       -0.67820
H          1.62230       -3.10340        1.90400
H         -0.40320       -7.57700        1.09950
H         -0.25560       -5.92580       -0.72000
H         -0.71820       -8.73960        3.45700
H         -0.76870       -9.36400        5.83650
H          1.35620       -5.77980        6.88150
H         -0.67530       -8.58930        8.15470
H          5.31760       -7.35300        9.51460
H          4.38650       -8.48550       13.53950
H          1.99270       -8.70510       12.97330
