193

C          2.81060        5.88600        3.15250
C          3.86780        6.55760        2.56960
C          3.95110        6.86050        1.13490
O          3.15520        6.55650        0.26620
C          5.13410        7.74190        0.98710
C          5.65310        8.30190       -0.16020
C          6.79880        9.07220       -0.01710
F          7.34830        9.62520       -1.11360
C          7.40270        9.28950        1.21040
C          6.86280        8.72830        2.35910
C          5.72260        7.95030        2.24610
C          4.95620        7.20590        3.24290
C          5.31730        7.00450        4.55290
C          4.65590        6.10720        5.41420
N          4.20240        5.34990        6.14980
C          6.44360        7.58280        5.16560
N          7.35450        8.00360        5.72530
C          2.01370        4.92070        2.53490
C          2.26610        4.05720        1.44890
N          3.41560        3.92080        0.72000
C          4.68670        4.16650        1.23930
C          4.99160        3.87210        2.56780
C          6.23310        4.16800        3.09210
C          7.20190        4.77040        2.29620
S          8.78670        5.27340        2.86790
C          8.82140        4.76640        4.60930
C          6.91920        5.01770        0.95240
C          5.68220        4.72030        0.42860
C          3.29200        3.53430       -0.63430
C          4.08460        2.51960       -1.15730
C          3.97780        2.16130       -2.48850
C          3.08690        2.82950       -3.31860
S          2.88010        2.50290       -5.03520
C          4.12240        1.23490       -5.40240
C          2.29760        3.85230       -2.79240
C          2.38580        4.19430       -1.46360
C          1.15560        3.21110        1.22600
S          0.90420        1.85340        0.19540
C         -0.68640        1.55570        0.92340
C         -1.00170        2.49710        1.88480
N         -2.21260        2.68410        2.51090
C         -3.12130        1.64530        2.77660
C         -4.45610        1.80710        2.41690
C         -5.40230        0.86970        2.77570
C         -5.02600       -0.24200        3.51850
S         -6.17470       -1.45400        4.09180
C         -7.78990       -0.64720        3.89000
C         -3.68540       -0.42480        3.85080
C         -2.73860        0.50640        3.47980
C         -2.62470        3.99150        2.83120
C         -3.35070        4.21960        3.99620
C         -3.78000        5.49010        4.32630
C         -3.48010        6.56210        3.49710
S         -3.96300        8.22970        3.80760
C         -4.92460        8.13020        5.34390
C         -2.74850        6.33930        2.33300
C         -2.33100        5.07160        1.99870
C          0.08540        3.39700        2.08170
S          0.42280        4.61730        3.25560
C         -1.32550        0.38640        0.37470
C         -1.47370        0.22640       -0.99080
N         -1.32870        1.24800       -1.91730
C         -1.90050        2.50170       -1.69980
C         -1.28990        3.64570       -2.20470
C         -1.85120        4.89280       -2.01120
C         -3.03910        5.01750       -1.30340
S         -3.86200        6.55090       -1.00130
C         -2.62220        7.79820       -1.45390
C         -3.65120        3.87410       -0.79260
C         -3.09120        2.63150       -0.98250
C         -0.64610        0.92630       -3.10030
C          0.48050        0.10450       -3.03490
C          1.06840       -0.36110       -4.18740
C          0.56700        0.00860       -5.43230
S          1.36370       -0.70220       -6.83900
C          0.38690       -0.10310       -8.24440
C         -0.50350        0.88800       -5.50240
C         -1.10950        1.33670       -4.34490
C         -1.71440       -1.11960       -1.34430
S         -1.82430       -1.92710       -2.86210
C         -1.82930       -3.48330       -2.04840
C         -1.70000       -3.36110       -0.65650
N         -1.46150       -4.38810        0.22950
C         -1.90570       -4.24040        1.55570
C         -3.21770       -3.84250        1.80980
C         -3.67090       -3.75010        3.10520
C         -2.82120       -4.03060        4.17490
S         -3.51330       -3.85800        5.78700
C         -2.20410       -4.45850        6.89380
C         -1.50740       -4.40620        3.92480
C         -1.05760       -4.51400        2.62460
C         -0.61950       -5.47040       -0.07340
C         -0.84030       -6.70430        0.54370
C         -0.00930       -7.76980        0.28880
C          1.05780       -7.63720       -0.59720
S          2.08880       -9.04400       -0.81310
C          3.00000       -8.67300       -2.33710
C          1.27420       -6.41670       -1.22250
C          0.44420       -5.34480       -0.96170
C         -1.68560       -1.99670       -0.27290
S         -1.49210       -1.14660        1.23160
C         -1.92620       -4.64150       -2.86600
C         -2.29280       -5.90910       -2.41620
C         -2.26510       -7.01620       -3.24930
F         -2.69900       -8.17220       -2.71860
C         -1.91610       -6.98730       -4.60150
C         -1.65760       -5.69020       -5.11500
C         -1.65450       -4.53770       -4.26000
N         -1.34650       -3.42880       -4.92380
S         -1.08210       -3.79530       -6.46950
N         -1.34170       -5.38230       -6.36970
C         -1.87230       -8.13140       -5.45310
C         -1.42110       -9.35880       -5.06620
C         -0.53650       -9.56770       -3.89580
O         -0.11500       -8.73070       -3.12580
C         -0.12600      -10.98630       -3.96040
C          0.69210      -11.67860       -3.09040
C          0.93790      -13.00930       -3.39320
F          1.72630      -13.72800       -2.57540
C          0.40580      -13.62900       -4.51420
C         -0.41340      -12.92020       -5.38000
C         -0.68570      -11.58840       -5.10140
C         -1.50720      -10.60300       -5.80070
C         -2.28400      -10.83940       -6.90420
C         -3.13800       -9.88820       -7.50190
N         -3.86820       -9.17870       -8.03250
C         -2.34860      -12.07680       -7.57700
N         -2.43630      -13.05690       -8.16870
H          2.54390        6.13050        4.17400
H          5.19920        8.14230       -1.12520
H          8.29230        9.89700        1.25990
H          7.33380        8.90660        3.31190
H          4.24860        3.41110        3.20110
H          6.42680        3.93370        4.12640
H          8.06610        5.30470        5.17390
H          8.68810        3.69140        4.68560
H          9.80740        5.04320        4.96910
H          7.68000        5.46670        0.33290
H          5.46580        4.93360       -0.60690
H          4.78870        2.00820       -0.51730
H          4.59850        1.36470       -2.86520
H          4.02190        1.02560       -6.46260
H          5.11580        1.61860       -5.18990
H          3.91030        0.33430       -4.83540
H          1.63590        4.38870       -3.45540
H          1.79500        5.00100       -1.06020
H         -4.75110        2.68800        1.86690
H         -6.42730        1.02110        2.47820
H         -8.05450       -0.58370        2.83850
H         -7.76850        0.33490        4.35270
H         -8.49920       -1.28560        4.40740
H         -3.40080       -1.29020        4.42670
H         -1.70480        0.37360        3.76210
H         -3.58010        3.39220        4.65120
H         -4.33840        5.62750        5.23800
H         -5.78300        7.48000        5.20250
H         -5.25930        9.14320        5.54470
H         -4.29350        7.78310        6.15700
H         -2.52360        7.17610        1.69120
H         -1.78300        4.91020        1.08290
H         -0.36530        3.54690       -2.75130
H         -1.35120        5.75760       -2.41690
H         -2.47020        7.80700       -2.52940
H         -1.69300        7.60270       -0.92650
H         -3.03590        8.74990       -1.13460
H         -4.57860        3.98110       -0.25100
H         -3.57630        1.75270       -0.58380
H          0.87450       -0.18160       -2.07060
H          1.91400       -1.03050       -4.13670
H         -0.64780       -0.41310       -8.13100
H          0.47260        0.97690       -8.32110
H          0.81870       -0.57040       -9.12400
H         -0.89380        1.21640       -6.45170
H         -1.96640        1.99090       -4.40650
H         -3.88060       -3.62860        0.98460
H         -4.69100       -3.46660        3.30830
H         -1.93960       -5.47900        6.63390
H         -1.34120       -3.80070        6.84760
H         -2.63270       -4.43110        7.89090
H         -0.82280       -4.61500        4.73060
H         -0.03710       -4.81040        2.43270
H         -1.67420       -6.82100        1.22020
H         -0.18410       -8.72240        0.76410
H          2.28430       -8.39080       -3.10340
H          3.50910       -9.59080       -2.61550
H          3.73080       -7.88870       -2.16150
H          2.09370       -6.28250       -1.90960
H          0.63580       -4.39610       -1.44120
H         -2.63190       -6.05740       -1.40540
H         -2.17630       -7.95910       -6.47740
H          1.10960      -11.21180       -2.21170
H          0.63790      -14.66560       -4.70160
H         -0.81840      -13.40930       -6.25060
