
  xtb     02132222013D
 energy: -400.291389352798 gnorm: 0.000400189740 xtb: 6.4.1 (unknown)
244265  0     0  0            999 V2000
    3.9354   -8.6086    2.0958 C   0  0  0  0  0  0  0  0  0  0  0  0
    4.2854   -9.7480    1.4060 C   0  0  0  0  0  0  0  0  0  0  0  0
    5.3955  -10.5859    1.9041 C   0  0  0  0  0  0  0  0  0  0  0  0
    5.9840  -10.4828    2.9579 O   0  0  0  0  0  0  0  0  0  0  0  0
    5.6808  -11.5412    0.8057 C   0  0  0  0  0  0  0  0  0  0  0  0
    6.6839  -12.4835    0.7206 C   0  0  0  0  0  0  0  0  0  0  0  0
    6.7235  -13.2521   -0.4334 C   0  0  0  0  0  0  0  0  0  0  0  0
    7.6966  -14.1731   -0.5696 F   0  0  0  0  0  0  0  0  0  0  0  0
    5.7993  -13.1092   -1.4557 C   0  0  0  0  0  0  0  0  0  0  0  0
    4.7911  -12.1615   -1.3538 C   0  0  0  0  0  0  0  0  0  0  0  0
    4.7409  -11.3626   -0.2233 C   0  0  0  0  0  0  0  0  0  0  0  0
    3.8190  -10.2953    0.1678 C   0  0  0  0  0  0  0  0  0  0  0  0
    2.6077  -10.0180   -0.4303 C   0  0  0  0  0  0  0  0  0  0  0  0
    1.6068   -9.2610    0.1977 C   0  0  0  0  0  0  0  0  0  0  0  0
    0.7476   -8.6812    0.6953 N   0  0  0  0  0  0  0  0  0  0  0  0
    2.2182  -10.5063   -1.6886 C   0  0  0  0  0  0  0  0  0  0  0  0
    1.8784  -10.8288   -2.7383 N   0  0  0  0  0  0  0  0  0  0  0  0
    3.3172   -7.4332    1.6612 C   0  0  0  0  0  0  0  0  0  0  0  0
    3.1410   -6.8653    0.3800 C   0  0  0  0  0  0  0  0  0  0  0  0
    3.6978   -7.3143   -0.7954 N   0  0  0  0  0  0  0  0  0  0  0  0
    4.9768   -7.8977   -0.8302 C   0  0  0  0  0  0  0  0  0  0  0  0
    5.2860   -8.8172   -1.8318 C   0  0  0  0  0  0  0  0  0  0  0  0
    6.5314   -9.4123   -1.8722 C   0  0  0  0  0  0  0  0  0  0  0  0
    7.4952   -9.1267   -0.9135 C   0  0  0  0  0  0  0  0  0  0  0  0
    8.8299   -9.8019   -0.9304 C   0  0  0  0  0  0  0  0  0  0  0  0
    7.1935   -8.1786    0.0587 C   0  0  0  0  0  0  0  0  0  0  0  0
    5.9599   -7.5609    0.0976 C   0  0  0  0  0  0  0  0  0  0  0  0
    3.1419   -6.8798   -2.0228 C   0  0  0  0  0  0  0  0  0  0  0  0
    3.9627   -6.3718   -3.0253 C   0  0  0  0  0  0  0  0  0  0  0  0
    3.4172   -5.9273   -4.2124 C   0  0  0  0  0  0  0  0  0  0  0  0
    2.0457   -5.9743   -4.4356 C   0  0  0  0  0  0  0  0  0  0  0  0
    1.4601   -5.4460   -5.7073 C   0  0  0  0  0  0  0  0  0  0  0  0
    1.2369   -6.5031   -3.4382 C   0  0  0  0  0  0  0  0  0  0  0  0
    1.7700   -6.9543   -2.2462 C   0  0  0  0  0  0  0  0  0  0  0  0
    2.4037   -5.6687    0.4688 C   0  0  0  0  0  0  0  0  0  0  0  0
    1.9100   -4.4923   -0.6936 S   0  0  0  0  0  0  0  0  0  0  0  0
    1.3117   -3.4388    0.5802 C   0  0  0  0  0  0  0  0  0  0  0  0
    1.4780   -3.9965    1.8466 C   0  0  0  0  0  0  0  0  0  0  0  0
    1.1381   -3.3936    3.0471 N   0  0  0  0  0  0  0  0  0  0  0  0
    0.6203   -4.2056    4.0684 C   0  0  0  0  0  0  0  0  0  0  0  0
    0.9869   -4.0128    5.3966 C   0  0  0  0  0  0  0  0  0  0  0  0
    0.4770   -4.8353    6.3823 C   0  0  0  0  0  0  0  0  0  0  0  0
   -0.3949   -5.8717    6.0755 C   0  0  0  0  0  0  0  0  0  0  0  0
   -0.9268   -6.7828    7.1388 C   0  0  0  0  0  0  0  0  0  0  0  0
   -0.7552   -6.0574    4.7453 C   0  0  0  0  0  0  0  0  0  0  0  0
   -0.2638   -5.2358    3.7526 C   0  0  0  0  0  0  0  0  0  0  0  0
    1.5269   -2.0706    3.3055 C   0  0  0  0  0  0  0  0  0  0  0  0
    0.7207   -1.2297    4.0702 C   0  0  0  0  0  0  0  0  0  0  0  0
    1.0997    0.0792    4.2938 C   0  0  0  0  0  0  0  0  0  0  0  0
    2.2817    0.5859    3.7679 C   0  0  0  0  0  0  0  0  0  0  0  0
    2.6902    2.0083    3.9902 C   0  0  0  0  0  0  0  0  0  0  0  0
    3.0831   -0.2637    3.0135 C   0  0  0  0  0  0  0  0  0  0  0  0
    2.7188   -1.5750    2.7852 C   0  0  0  0  0  0  0  0  0  0  0  0
    2.0903   -5.2664    1.7608 C   0  0  0  0  0  0  0  0  0  0  0  0
    2.6684   -6.3861    2.9330 S   0  0  0  0  0  0  0  0  0  0  0  0
    0.6684   -2.2294    0.2105 C   0  0  0  0  0  0  0  0  0  0  0  0
    0.8013   -1.5290   -0.9865 C   0  0  0  0  0  0  0  0  0  0  0  0
    1.7342   -1.7830   -1.9860 N   0  0  0  0  0  0  0  0  0  0  0  0
    3.0740   -2.0222   -1.6701 C   0  0  0  0  0  0  0  0  0  0  0  0
    3.8440   -2.8790   -2.4559 C   0  0  0  0  0  0  0  0  0  0  0  0
    5.1334   -3.2045   -2.0896 C   0  0  0  0  0  0  0  0  0  0  0  0
    5.6772   -2.6898   -0.9209 C   0  0  0  0  0  0  0  0  0  0  0  0
    7.2830   -3.1069   -0.3139 S   0  0  0  0  0  0  0  0  0  0  0  0
    7.7715   -4.5316   -1.3276 C   0  0  0  0  0  0  0  0  0  0  0  0
    4.9321   -1.7894   -0.1625 C   0  0  0  0  0  0  0  0  0  0  0  0
    3.6496   -1.4523   -0.5342 C   0  0  0  0  0  0  0  0  0  0  0  0
    1.3019   -1.7503   -3.3167 C   0  0  0  0  0  0  0  0  0  0  0  0
    2.1095   -1.2087   -4.3183 C   0  0  0  0  0  0  0  0  0  0  0  0
    1.6792   -1.1942   -5.6248 C   0  0  0  0  0  0  0  0  0  0  0  0
    0.4314   -1.7153   -5.9660 C   0  0  0  0  0  0  0  0  0  0  0  0
    0.0014   -1.6655   -7.6784 S   0  0  0  0  0  0  0  0  0  0  0  0
   -1.7086   -2.2739   -7.7189 C   0  0  0  0  0  0  0  0  0  0  0  0
   -0.3787   -2.2462   -4.9718 C   0  0  0  0  0  0  0  0  0  0  0  0
    0.0529   -2.2596   -3.6595 C   0  0  0  0  0  0  0  0  0  0  0  0
   -0.1138   -0.4553   -1.0498 C   0  0  0  0  0  0  0  0  0  0  0  0
   -0.4183    0.8035   -2.1913 S   0  0  0  0  0  0  0  0  0  0  0  0
   -1.5967    1.5323   -1.1085 C   0  0  0  0  0  0  0  0  0  0  0  0
   -1.7338    0.8278    0.0659 C   0  0  0  0  0  0  0  0  0  0  0  0
   -2.5110    1.2472    1.1639 N   0  0  0  0  0  0  0  0  0  0  0  0
   -3.8096    0.7511    1.3090 C   0  0  0  0  0  0  0  0  0  0  0  0
   -4.7953    1.5344    1.9076 C   0  0  0  0  0  0  0  0  0  0  0  0
   -6.0994    1.0936    1.9917 C   0  0  0  0  0  0  0  0  0  0  0  0
   -6.4465   -0.1497    1.4820 C   0  0  0  0  0  0  0  0  0  0  0  0
   -8.1005   -0.7761    1.4869 S   0  0  0  0  0  0  0  0  0  0  0  0
   -9.1032    0.7266    1.6781 C   0  0  0  0  0  0  0  0  0  0  0  0
   -5.4592   -0.9573    0.9264 C   0  0  0  0  0  0  0  0  0  0  0  0
   -4.1591   -0.5101    0.8279 C   0  0  0  0  0  0  0  0  0  0  0  0
   -1.8781    1.9865    2.1666 C   0  0  0  0  0  0  0  0  0  0  0  0
   -2.2639    1.8673    3.5009 C   0  0  0  0  0  0  0  0  0  0  0  0
   -1.6722    2.6342    4.4856 C   0  0  0  0  0  0  0  0  0  0  0  0
   -0.6679    3.5345    4.1604 C   0  0  0  0  0  0  0  0  0  0  0  0
    0.1440    4.5932    5.3231 S   0  0  0  0  0  0  0  0  0  0  0  0
   -0.5885    4.1351    6.9194 C   0  0  0  0  0  0  0  0  0  0  0  0
   -0.2432    3.6241    2.8382 C   0  0  0  0  0  0  0  0  0  0  0  0
   -0.8289    2.8548    1.8583 C   0  0  0  0  0  0  0  0  0  0  0  0
   -0.9003   -0.3132    0.0822 C   0  0  0  0  0  0  0  0  0  0  0  0
   -0.5597   -1.5278    1.2575 S   0  0  0  0  0  0  0  0  0  0  0  0
   -2.1334    2.8362   -1.4153 C   0  0  0  0  0  0  0  0  0  0  0  0
   -3.4377    3.2463   -1.6202 C   0  0  0  0  0  0  0  0  0  0  0  0
   -4.5376    2.4161   -1.7337 N   0  0  0  0  0  0  0  0  0  0  0  0
   -5.7804    2.8886   -1.2789 C   0  0  0  0  0  0  0  0  0  0  0  0
   -5.8539    3.6600   -0.1217 C   0  0  0  0  0  0  0  0  0  0  0  0
   -7.0721    4.1230    0.3337 C   0  0  0  0  0  0  0  0  0  0  0  0
   -8.2496    3.8292   -0.3420 C   0  0  0  0  0  0  0  0  0  0  0  0
   -9.5676    4.3452    0.1501 C   0  0  0  0  0  0  0  0  0  0  0  0
   -8.1674    3.0700   -1.5040 C   0  0  0  0  0  0  0  0  0  0  0  0
   -6.9541    2.6111   -1.9753 C   0  0  0  0  0  0  0  0  0  0  0  0
   -4.4329    1.1647   -2.3592 C   0  0  0  0  0  0  0  0  0  0  0  0
   -5.2938    0.1299   -2.0036 C   0  0  0  0  0  0  0  0  0  0  0  0
   -5.1951   -1.1040   -2.6126 C   0  0  0  0  0  0  0  0  0  0  0  0
   -4.2383   -1.3523   -3.5880 C   0  0  0  0  0  0  0  0  0  0  0  0
   -4.1258   -2.7048   -4.2243 C   0  0  0  0  0  0  0  0  0  0  0  0
   -3.3932   -0.3112   -3.9521 C   0  0  0  0  0  0  0  0  0  0  0  0
   -3.4915    0.9323   -3.3596 C   0  0  0  0  0  0  0  0  0  0  0  0
   -3.4989    4.6604   -1.7549 C   0  0  0  0  0  0  0  0  0  0  0  0
   -4.7641    5.8187   -1.9632 S   0  0  0  0  0  0  0  0  0  0  0  0
   -3.6222    7.1467   -1.8227 C   0  0  0  0  0  0  0  0  0  0  0  0
   -2.3097    6.6961   -1.6681 C   0  0  0  0  0  0  0  0  0  0  0  0
   -1.1635    7.4838   -1.7066 N   0  0  0  0  0  0  0  0  0  0  0  0
   -0.7376    8.1786   -0.5571 C   0  0  0  0  0  0  0  0  0  0  0  0
   -0.2595    9.4803   -0.6686 C   0  0  0  0  0  0  0  0  0  0  0  0
    0.1558   10.1600    0.4586 C   0  0  0  0  0  0  0  0  0  0  0  0
    0.1028    9.5645    1.7159 C   0  0  0  0  0  0  0  0  0  0  0  0
    0.5686   10.3145    2.9262 C   0  0  0  0  0  0  0  0  0  0  0  0
   -0.3785    8.2662    1.8144 C   0  0  0  0  0  0  0  0  0  0  0  0
   -0.7959    7.5733    0.6927 C   0  0  0  0  0  0  0  0  0  0  0  0
   -0.2720    7.2521   -2.7606 C   0  0  0  0  0  0  0  0  0  0  0  0
    1.1039    7.3875   -2.5942 C   0  0  0  0  0  0  0  0  0  0  0  0
    1.9566    7.1679   -3.6584 C   0  0  0  0  0  0  0  0  0  0  0  0
    1.4733    6.7970   -4.9062 C   0  0  0  0  0  0  0  0  0  0  0  0
    2.3945    6.5591   -6.0628 C   0  0  0  0  0  0  0  0  0  0  0  0
    0.0980    6.6594   -5.0630 C   0  0  0  0  0  0  0  0  0  0  0  0
   -0.7666    6.8873   -4.0134 C   0  0  0  0  0  0  0  0  0  0  0  0
   -2.2659    5.2872   -1.6695 C   0  0  0  0  0  0  0  0  0  0  0  0
   -0.9761    4.1615   -1.4919 S   0  0  0  0  0  0  0  0  0  0  0  0
   -4.0445    8.4743   -2.0709 C   0  0  0  0  0  0  0  0  0  0  0  0
   -3.6321    9.5446   -1.3247 C   0  0  0  0  0  0  0  0  0  0  0  0
   -3.3005    9.4175    0.1104 C   0  0  0  0  0  0  0  0  0  0  0  0
   -3.2946    8.4059    0.7780 O   0  0  0  0  0  0  0  0  0  0  0  0
   -3.1385   10.8048    0.5966 C   0  0  0  0  0  0  0  0  0  0  0  0
   -2.8150   11.2320    1.8674 C   0  0  0  0  0  0  0  0  0  0  0  0
   -2.6992   12.6007    2.0540 C   0  0  0  0  0  0  0  0  0  0  0  0
   -2.3585   13.0642    3.2705 F   0  0  0  0  0  0  0  0  0  0  0  0
   -2.9137   13.5139    1.0328 C   0  0  0  0  0  0  0  0  0  0  0  0
   -3.2554   13.0706   -0.2361 C   0  0  0  0  0  0  0  0  0  0  0  0
   -3.3662   11.7057   -0.4580 C   0  0  0  0  0  0  0  0  0  0  0  0
   -3.6813   10.9452   -1.6651 C   0  0  0  0  0  0  0  0  0  0  0  0
   -3.8770   11.4573   -2.9223 C   0  0  0  0  0  0  0  0  0  0  0  0
   -3.8858   12.8330   -3.2256 C   0  0  0  0  0  0  0  0  0  0  0  0
   -3.9112   13.9411   -3.5253 N   0  0  0  0  0  0  0  0  0  0  0  0
   -4.0651   10.6594   -4.0698 C   0  0  0  0  0  0  0  0  0  0  0  0
   -4.1993   10.0613   -5.0408 N   0  0  0  0  0  0  0  0  0  0  0  0
    4.2487   -8.6038    3.1360 H   0  0  0  0  0  0  0  0  0  0  0  0
    7.4023  -12.6191    1.5130 H   0  0  0  0  0  0  0  0  0  0  0  0
    5.8758  -13.7417   -2.3263 H   0  0  0  0  0  0  0  0  0  0  0  0
    4.0764  -12.0525   -2.1534 H   0  0  0  0  0  0  0  0  0  0  0  0
    4.5413   -9.0685   -2.5730 H   0  0  0  0  0  0  0  0  0  0  0  0
    6.7477  -10.1286   -2.6509 H   0  0  0  0  0  0  0  0  0  0  0  0
    9.1510  -10.0356    0.0822 H   0  0  0  0  0  0  0  0  0  0  0  0
    8.7929  -10.7203   -1.5108 H   0  0  0  0  0  0  0  0  0  0  0  0
    9.5789   -9.1465   -1.3759 H   0  0  0  0  0  0  0  0  0  0  0  0
    7.9358   -7.9188    0.7986 H   0  0  0  0  0  0  0  0  0  0  0  0
    5.7573   -6.8163    0.8527 H   0  0  0  0  0  0  0  0  0  0  0  0
    5.0302   -6.3241   -2.8685 H   0  0  0  0  0  0  0  0  0  0  0  0
    4.0680   -5.5305   -4.9785 H   0  0  0  0  0  0  0  0  0  0  0  0
    1.2891   -4.3722   -5.6166 H   0  0  0  0  0  0  0  0  0  0  0  0
    2.1354   -5.6080   -6.5442 H   0  0  0  0  0  0  0  0  0  0  0  0
    0.5079   -5.9243   -5.9227 H   0  0  0  0  0  0  0  0  0  0  0  0
    0.1705   -6.5685   -3.5935 H   0  0  0  0  0  0  0  0  0  0  0  0
    1.1222   -7.3636   -1.4870 H   0  0  0  0  0  0  0  0  0  0  0  0
    1.6790   -3.2240    5.6515 H   0  0  0  0  0  0  0  0  0  0  0  0
    0.7749   -4.6741    7.4084 H   0  0  0  0  0  0  0  0  0  0  0  0
   -0.4766   -7.7709    7.0439 H   0  0  0  0  0  0  0  0  0  0  0  0
   -0.7031   -6.3979    8.1305 H   0  0  0  0  0  0  0  0  0  0  0  0
   -2.0049   -6.8987    7.0412 H   0  0  0  0  0  0  0  0  0  0  0  0
   -1.4338   -6.8561    4.4840 H   0  0  0  0  0  0  0  0  0  0  0  0
   -0.5626   -5.3885    2.7259 H   0  0  0  0  0  0  0  0  0  0  0  0
   -0.2058   -1.6083    4.4753 H   0  0  0  0  0  0  0  0  0  0  0  0
    0.4573    0.7226    4.8768 H   0  0  0  0  0  0  0  0  0  0  0  0
    2.1448    2.4491    4.8197 H   0  0  0  0  0  0  0  0  0  0  0  0
    3.7572    2.0757    4.1932 H   0  0  0  0  0  0  0  0  0  0  0  0
    2.4806    2.5993    3.0987 H   0  0  0  0  0  0  0  0  0  0  0  0
    4.0134    0.1075    2.6071 H   0  0  0  0  0  0  0  0  0  0  0  0
    3.3593   -2.2273    2.2095 H   0  0  0  0  0  0  0  0  0  0  0  0
    3.4142   -3.3236   -3.3402 H   0  0  0  0  0  0  0  0  0  0  0  0
    5.6961   -3.8752   -2.7175 H   0  0  0  0  0  0  0  0  0  0  0  0
    8.7022   -4.8893   -0.8984 H   0  0  0  0  0  0  0  0  0  0  0  0
    7.0155   -5.3095   -1.2616 H   0  0  0  0  0  0  0  0  0  0  0  0
    7.9379   -4.2248   -2.3563 H   0  0  0  0  0  0  0  0  0  0  0  0
    5.3736   -1.3620    0.7249 H   0  0  0  0  0  0  0  0  0  0  0  0
    3.0787   -0.7587    0.0648 H   0  0  0  0  0  0  0  0  0  0  0  0
    3.0723   -0.7945   -4.0607 H   0  0  0  0  0  0  0  0  0  0  0  0
    2.3013   -0.7743   -6.4001 H   0  0  0  0  0  0  0  0  0  0  0  0
   -2.3427   -1.6344   -7.1115 H   0  0  0  0  0  0  0  0  0  0  0  0
   -2.0145   -2.2124   -8.7587 H   0  0  0  0  0  0  0  0  0  0  0  0
   -1.7478   -3.3070   -7.3859 H   0  0  0  0  0  0  0  0  0  0  0  0
   -1.3411   -2.6688   -5.2066 H   0  0  0  0  0  0  0  0  0  0  0  0
   -0.5783   -2.6839   -2.8926 H   0  0  0  0  0  0  0  0  0  0  0  0
   -4.5368    2.5034    2.3060 H   0  0  0  0  0  0  0  0  0  0  0  0
   -6.8374    1.7333    2.4478 H   0  0  0  0  0  0  0  0  0  0  0  0
   -9.0538    1.0874    2.7017 H   0  0  0  0  0  0  0  0  0  0  0  0
   -8.7596    1.4816    0.9766 H   0  0  0  0  0  0  0  0  0  0  0  0
  -10.1217    0.4328    1.4442 H   0  0  0  0  0  0  0  0  0  0  0  0
   -5.7259   -1.9347    0.5555 H   0  0  0  0  0  0  0  0  0  0  0  0
   -3.4140   -1.1408    0.3692 H   0  0  0  0  0  0  0  0  0  0  0  0
   -3.0326    1.1603    3.7742 H   0  0  0  0  0  0  0  0  0  0  0  0
   -2.0060    2.5125    5.5040 H   0  0  0  0  0  0  0  0  0  0  0  0
   -0.0879    4.7531    7.6584 H   0  0  0  0  0  0  0  0  0  0  0  0
   -1.6528    4.3525    6.9176 H   0  0  0  0  0  0  0  0  0  0  0  0
   -0.4001    3.0860    7.1291 H   0  0  0  0  0  0  0  0  0  0  0  0
    0.5469    4.3147    2.5846 H   0  0  0  0  0  0  0  0  0  0  0  0
   -0.4703    2.9353    0.8449 H   0  0  0  0  0  0  0  0  0  0  0  0
   -4.9513    3.8948    0.4211 H   0  0  0  0  0  0  0  0  0  0  0  0
   -7.1075    4.7203    1.2333 H   0  0  0  0  0  0  0  0  0  0  0  0
  -10.3836    3.7007   -0.1687 H   0  0  0  0  0  0  0  0  0  0  0  0
   -9.5772    4.4182    1.2356 H   0  0  0  0  0  0  0  0  0  0  0  0
   -9.7488    5.3419   -0.2535 H   0  0  0  0  0  0  0  0  0  0  0  0
   -9.0683    2.8410   -2.0548 H   0  0  0  0  0  0  0  0  0  0  0  0
   -6.9115    2.0371   -2.8886 H   0  0  0  0  0  0  0  0  0  0  0  0
   -6.0445    0.2969   -1.2488 H   0  0  0  0  0  0  0  0  0  0  0  0
   -5.8762   -1.8891   -2.3185 H   0  0  0  0  0  0  0  0  0  0  0  0
   -3.2874   -3.2550   -3.7953 H   0  0  0  0  0  0  0  0  0  0  0  0
   -5.0296   -3.2853   -4.0566 H   0  0  0  0  0  0  0  0  0  0  0  0
   -3.9639   -2.6176   -5.2974 H   0  0  0  0  0  0  0  0  0  0  0  0
   -2.6435   -0.4650   -4.7149 H   0  0  0  0  0  0  0  0  0  0  0  0
   -2.8424    1.7297   -3.6896 H   0  0  0  0  0  0  0  0  0  0  0  0
   -0.2191    9.9485   -1.6418 H   0  0  0  0  0  0  0  0  0  0  0  0
    0.5195   11.1735    0.3651 H   0  0  0  0  0  0  0  0  0  0  0  0
    0.1368   11.3135    2.9533 H   0  0  0  0  0  0  0  0  0  0  0  0
    1.6528   10.4247    2.9043 H   0  0  0  0  0  0  0  0  0  0  0  0
    0.2978    9.7884    3.8379 H   0  0  0  0  0  0  0  0  0  0  0  0
   -0.4287    7.7837    2.7795 H   0  0  0  0  0  0  0  0  0  0  0  0
   -1.1675    6.5642    0.7848 H   0  0  0  0  0  0  0  0  0  0  0  0
    1.5029    7.6571   -1.6279 H   0  0  0  0  0  0  0  0  0  0  0  0
    3.0212    7.2779   -3.5092 H   0  0  0  0  0  0  0  0  0  0  0  0
    2.2006    5.5861   -6.5114 H   0  0  0  0  0  0  0  0  0  0  0  0
    2.2380    7.3160   -6.8312 H   0  0  0  0  0  0  0  0  0  0  0  0
    3.4340    6.5982   -5.7474 H   0  0  0  0  0  0  0  0  0  0  0  0
   -0.3019    6.3789   -6.0265 H   0  0  0  0  0  0  0  0  0  0  0  0
   -1.8324    6.7958   -4.1636 H   0  0  0  0  0  0  0  0  0  0  0  0
   -4.7255    8.6174   -2.9010 H   0  0  0  0  0  0  0  0  0  0  0  0
   -2.6466   10.5331    2.6704 H   0  0  0  0  0  0  0  0  0  0  0  0
   -2.8132   14.5677    1.2396 H   0  0  0  0  0  0  0  0  0  0  0  0
   -3.4297   13.7866   -1.0226 H   0  0  0  0  0  0  0  0  0  0  0  0
  1  2  2  0  0  0  0
  2  3  1  0  0  0  0
  3  4  2  0  0  0  0
  3  5  1  0  0  0  0
  5  6  2  0  0  0  0
  6  7  1  0  0  0  0
  7  8  1  0  0  0  0
  7  9  2  0  0  0  0
  9 10  1  0  0  0  0
 10 11  2  0  0  0  0
 11 12  1  0  0  0  0
 12 13  2  0  0  0  0
 13 14  1  0  0  0  0
 14 15  3  0  0  0  0
 13 16  1  0  0  0  0
 16 17  3  0  0  0  0
  1 18  1  0  0  0  0
 18 19  2  0  0  0  0
 19 20  1  0  0  0  0
 20 21  1  0  0  0  0
 21 22  2  0  0  0  0
 22 23  1  0  0  0  0
 23 24  2  0  0  0  0
 24 25  1  0  0  0  0
 24 26  1  0  0  0  0
 26 27  2  0  0  0  0
 20 28  1  0  0  0  0
 28 29  2  0  0  0  0
 29 30  1  0  0  0  0
 30 31  2  0  0  0  0
 31 32  1  0  0  0  0
 31 33  1  0  0  0  0
 33 34  2  0  0  0  0
 19 35  1  0  0  0  0
 35 36  1  0  0  0  0
 36 37  1  0  0  0  0
 37 38  2  0  0  0  0
 38 39  1  0  0  0  0
 39 40  1  0  0  0  0
 40 41  2  0  0  0  0
 41 42  1  0  0  0  0
 42 43  2  0  0  0  0
 43 44  1  0  0  0  0
 43 45  1  0  0  0  0
 45 46  2  0  0  0  0
 39 47  1  0  0  0  0
 47 48  2  0  0  0  0
 48 49  1  0  0  0  0
 49 50  2  0  0  0  0
 50 51  1  0  0  0  0
 50 52  1  0  0  0  0
 52 53  2  0  0  0  0
 38 54  1  0  0  0  0
 54 55  1  0  0  0  0
 37 56  1  0  0  0  0
 56 57  2  0  0  0  0
 57 58  1  0  0  0  0
 58 59  1  0  0  0  0
 59 60  2  0  0  0  0
 60 61  1  0  0  0  0
 61 62  2  0  0  0  0
 62 63  1  0  0  0  0
 63 64  1  0  0  0  0
 62 65  1  0  0  0  0
 65 66  2  0  0  0  0
 58 67  1  0  0  0  0
 67 68  2  0  0  0  0
 68 69  1  0  0  0  0
 69 70  2  0  0  0  0
 70 71  1  0  0  0  0
 71 72  1  0  0  0  0
 70 73  1  0  0  0  0
 73 74  2  0  0  0  0
 57 75  1  0  0  0  0
 75 76  1  0  0  0  0
 76 77  1  0  0  0  0
 77 78  2  0  0  0  0
 78 79  1  0  0  0  0
 79 80  1  0  0  0  0
 80 81  2  0  0  0  0
 81 82  1  0  0  0  0
 82 83  2  0  0  0  0
 83 84  1  0  0  0  0
 84 85  1  0  0  0  0
 83 86  1  0  0  0  0
 86 87  2  0  0  0  0
 79 88  1  0  0  0  0
 88 89  2  0  0  0  0
 89 90  1  0  0  0  0
 90 91  2  0  0  0  0
 91 92  1  0  0  0  0
 92 93  1  0  0  0  0
 91 94  1  0  0  0  0
 94 95  2  0  0  0  0
 78 96  1  0  0  0  0
 96 97  1  0  0  0  0
 77 98  1  0  0  0  0
 98 99  2  0  0  0  0
 99100  1  0  0  0  0
100101  1  0  0  0  0
101102  2  0  0  0  0
102103  1  0  0  0  0
103104  2  0  0  0  0
104105  1  0  0  0  0
104106  1  0  0  0  0
106107  2  0  0  0  0
100108  1  0  0  0  0
108109  2  0  0  0  0
109110  1  0  0  0  0
110111  2  0  0  0  0
111112  1  0  0  0  0
111113  1  0  0  0  0
113114  2  0  0  0  0
 99115  1  0  0  0  0
115116  1  0  0  0  0
116117  1  0  0  0  0
117118  2  0  0  0  0
118119  1  0  0  0  0
119120  1  0  0  0  0
120121  2  0  0  0  0
121122  1  0  0  0  0
122123  2  0  0  0  0
123124  1  0  0  0  0
123125  1  0  0  0  0
125126  2  0  0  0  0
119127  1  0  0  0  0
127128  2  0  0  0  0
128129  1  0  0  0  0
129130  2  0  0  0  0
130131  1  0  0  0  0
130132  1  0  0  0  0
132133  2  0  0  0  0
118134  1  0  0  0  0
134135  1  0  0  0  0
117136  1  0  0  0  0
136137  2  0  0  0  0
137138  1  0  0  0  0
138139  2  0  0  0  0
138140  1  0  0  0  0
140141  2  0  0  0  0
141142  1  0  0  0  0
142143  1  0  0  0  0
142144  2  0  0  0  0
144145  1  0  0  0  0
145146  2  0  0  0  0
146147  1  0  0  0  0
147148  2  0  0  0  0
148149  1  0  0  0  0
149150  3  0  0  0  0
148151  1  0  0  0  0
151152  3  0  0  0  0
 12  2  1  0  0  0  0
 55 18  1  0  0  0  0
 97 56  1  0  0  0  0
135 98  1  0  0  0  0
147137  1  0  0  0  0
 11  5  1  0  0  0  0
 27 21  1  0  0  0  0
 34 28  1  0  0  0  0
 54 35  2  0  0  0  0
 66 59  1  0  0  0  0
 74 67  1  0  0  0  0
 96 75  2  0  0  0  0
107101  1  0  0  0  0
114108  1  0  0  0  0
134115  2  0  0  0  0
146140  1  0  0  0  0
 46 40  1  0  0  0  0
 53 47  1  0  0  0  0
 87 80  1  0  0  0  0
 95 88  1  0  0  0  0
126120  1  0  0  0  0
133127  1  0  0  0  0
  1153  1  0  0  0  0
  6154  1  0  0  0  0
  9155  1  0  0  0  0
 10156  1  0  0  0  0
 22157  1  0  0  0  0
 23158  1  0  0  0  0
 25159  1  0  0  0  0
 25160  1  0  0  0  0
 25161  1  0  0  0  0
 26162  1  0  0  0  0
 27163  1  0  0  0  0
 29164  1  0  0  0  0
 30165  1  0  0  0  0
 32166  1  0  0  0  0
 32167  1  0  0  0  0
 32168  1  0  0  0  0
 33169  1  0  0  0  0
 34170  1  0  0  0  0
 41171  1  0  0  0  0
 42172  1  0  0  0  0
 44173  1  0  0  0  0
 44174  1  0  0  0  0
 44175  1  0  0  0  0
 45176  1  0  0  0  0
 46177  1  0  0  0  0
 48178  1  0  0  0  0
 49179  1  0  0  0  0
 51180  1  0  0  0  0
 51181  1  0  0  0  0
 51182  1  0  0  0  0
 52183  1  0  0  0  0
 53184  1  0  0  0  0
 60185  1  0  0  0  0
 61186  1  0  0  0  0
 64187  1  0  0  0  0
 64188  1  0  0  0  0
 64189  1  0  0  0  0
 65190  1  0  0  0  0
 66191  1  0  0  0  0
 68192  1  0  0  0  0
 69193  1  0  0  0  0
 72194  1  0  0  0  0
 72195  1  0  0  0  0
 72196  1  0  0  0  0
 73197  1  0  0  0  0
 74198  1  0  0  0  0
 81199  1  0  0  0  0
 82200  1  0  0  0  0
 85201  1  0  0  0  0
 85202  1  0  0  0  0
 85203  1  0  0  0  0
 86204  1  0  0  0  0
 87205  1  0  0  0  0
 89206  1  0  0  0  0
 90207  1  0  0  0  0
 93208  1  0  0  0  0
 93209  1  0  0  0  0
 93210  1  0  0  0  0
 94211  1  0  0  0  0
 95212  1  0  0  0  0
102213  1  0  0  0  0
103214  1  0  0  0  0
105215  1  0  0  0  0
105216  1  0  0  0  0
105217  1  0  0  0  0
106218  1  0  0  0  0
107219  1  0  0  0  0
109220  1  0  0  0  0
110221  1  0  0  0  0
112222  1  0  0  0  0
112223  1  0  0  0  0
112224  1  0  0  0  0
113225  1  0  0  0  0
114226  1  0  0  0  0
121227  1  0  0  0  0
122228  1  0  0  0  0
124229  1  0  0  0  0
124230  1  0  0  0  0
124231  1  0  0  0  0
125232  1  0  0  0  0
126233  1  0  0  0  0
128234  1  0  0  0  0
129235  1  0  0  0  0
131236  1  0  0  0  0
131237  1  0  0  0  0
131238  1  0  0  0  0
132239  1  0  0  0  0
133240  1  0  0  0  0
136241  1  0  0  0  0
141242  1  0  0  0  0
144243  1  0  0  0  0
145244  1  0  0  0  0
M  END
