
  xtb     02062201543D
 energy: -420.928315463333 gnorm: 0.000677633761 xtb: 6.4.1 (unknown)
254274  0     0  0            999 V2000
   -4.3006    7.5075    7.2651 C   0  0  0  0  0  0  0  0  0  0  0  0
   -3.5695    8.6271    7.5613 C   0  0  0  0  0  0  0  0  0  0  0  0
   -2.3230    9.0965    6.9169 C   0  0  0  0  0  0  0  0  0  0  0  0
   -1.7652    8.6780    5.9223 O   0  0  0  0  0  0  0  0  0  0  0  0
   -1.8141   10.1833    7.7795 C   0  0  0  0  0  0  0  0  0  0  0  0
   -0.6586   10.9210    7.6177 C   0  0  0  0  0  0  0  0  0  0  0  0
   -0.3996   11.8904    8.5742 C   0  0  0  0  0  0  0  0  0  0  0  0
    0.7114   12.6370    8.4600 F   0  0  0  0  0  0  0  0  0  0  0  0
   -1.2461   12.1179    9.6494 C   0  0  0  0  0  0  0  0  0  0  0  0
   -2.4044   11.3701    9.7970 C   0  0  0  0  0  0  0  0  0  0  0  0
   -2.6945   10.3950    8.8529 C   0  0  0  0  0  0  0  0  0  0  0  0
   -3.8191    9.4725    8.7190 C   0  0  0  0  0  0  0  0  0  0  0  0
   -4.9415    9.4795    9.5037 C   0  0  0  0  0  0  0  0  0  0  0  0
   -5.1273   10.3389   10.6079 C   0  0  0  0  0  0  0  0  0  0  0  0
   -5.3396   11.0036   11.5190 N   0  0  0  0  0  0  0  0  0  0  0  0
   -6.0877    8.6765    9.3147 C   0  0  0  0  0  0  0  0  0  0  0  0
   -7.0707    8.0908    9.2197 N   0  0  0  0  0  0  0  0  0  0  0  0
   -4.2341    6.6558    6.1430 C   0  0  0  0  0  0  0  0  0  0  0  0
   -3.6640    6.8371    4.9067 C   0  0  0  0  0  0  0  0  0  0  0  0
   -3.8161    5.7377    4.0451 C   0  0  0  0  0  0  0  0  0  0  0  0
   -3.2415    5.5869    2.7623 C   0  0  0  0  0  0  0  0  0  0  0  0
   -2.5418    6.6914    2.1448 C   0  0  0  0  0  0  0  0  0  0  0  0
   -2.9012    8.0110    2.1289 C   0  0  0  0  0  0  0  0  0  0  0  0
   -1.9139    8.8283    1.5447 C   0  0  0  0  0  0  0  0  0  0  0  0
   -2.1088   10.5284    1.4206 Cl  0  0  0  0  0  0  0  0  0  0  0  0
   -0.7982    8.1710    1.1092 C   0  0  0  0  0  0  0  0  0  0  0  0
    0.8720    8.8071    0.4860 Si  0  0  0  0  0  4  0  0  0  0  0  0
    0.6759   10.4486   -0.4679 C   0  0  0  0  0  0  0  0  0  0  0  0
    1.9472   10.8407   -1.2147 C   0  0  0  0  0  0  0  0  0  0  0  0
    1.9638    9.0057    2.0493 C   0  0  0  0  0  0  0  0  0  0  0  0
    1.2714    9.7538    3.1858 C   0  0  0  0  0  0  0  0  0  0  0  0
    1.5729    7.4210   -0.6274 C   0  0  0  0  0  0  0  0  0  0  0  0
    0.7155    7.1454   -1.8592 C   0  0  0  0  0  0  0  0  0  0  0  0
   -0.9804    6.4794    1.4043 S   0  0  0  0  0  0  0  0  0  0  0  0
   -3.2923    4.3153    2.2180 C   0  0  0  0  0  0  0  0  0  0  0  0
   -3.9456    3.2198    2.8429 C   0  0  0  0  0  0  0  0  0  0  0  0
   -4.6393    3.4036    4.0595 C   0  0  0  0  0  0  0  0  0  0  0  0
   -5.3986    2.3604    4.7158 C   0  0  0  0  0  0  0  0  0  0  0  0
   -4.9695    0.6778    4.6452 S   0  0  0  0  0  0  0  0  0  0  0  0
   -6.2658    0.1993    5.6770 C   0  0  0  0  0  0  0  0  0  0  0  0
   -6.5355   -1.6139    6.1502 Si  0  0  0  0  0  4  0  0  0  0  0  0
   -8.2442   -2.1390    5.4727 C   0  0  0  0  0  0  0  0  0  0  0  0
   -8.3864   -1.9179    3.9703 C   0  0  0  0  0  0  0  0  0  0  0  0
   -6.4761   -1.7809    8.0548 C   0  0  0  0  0  0  0  0  0  0  0  0
   -5.5148   -0.8097    8.7347 C   0  0  0  0  0  0  0  0  0  0  0  0
   -5.1528   -2.6084    5.2709 C   0  0  0  0  0  0  0  0  0  0  0  0
   -3.7847   -2.5185    5.9402 C   0  0  0  0  0  0  0  0  0  0  0  0
   -6.9840    1.3071    6.0304 C   0  0  0  0  0  0  0  0  0  0  0  0
   -6.5089    2.5231    5.5050 C   0  0  0  0  0  0  0  0  0  0  0  0
   -8.3654    1.2166    7.0456 Cl  0  0  0  0  0  0  0  0  0  0  0  0
   -4.5214    4.6635    4.6474 C   0  0  0  0  0  0  0  0  0  0  0  0
   -5.0491    5.0977    6.2445 S   0  0  0  0  0  0  0  0  0  0  0  0
   -3.7143    2.0202    2.1308 C   0  0  0  0  0  0  0  0  0  0  0  0
   -2.9109    2.1695    1.0381 C   0  0  0  0  0  0  0  0  0  0  0  0
   -2.5003    3.8440    0.7411 S   0  0  0  0  0  0  0  0  0  0  0  0
   -2.2423    1.1193    0.3370 C   0  0  0  0  0  0  0  0  0  0  0  0
   -1.5859    0.0585    0.9479 C   0  0  0  0  0  0  0  0  0  0  0  0
   -1.4245   -0.1215    2.3124 N   0  0  0  0  0  0  0  0  0  0  0  0
   -1.2313    0.9846    3.1591 C   0  0  0  0  0  0  0  0  0  0  0  0
   -0.5188    2.1065    2.7445 C   0  0  0  0  0  0  0  0  0  0  0  0
   -0.4237    3.2226    3.5547 C   0  0  0  0  0  0  0  0  0  0  0  0
   -1.0388    3.2340    4.7998 C   0  0  0  0  0  0  0  0  0  0  0  0
   -1.0839    4.6230    5.8877 S   0  0  0  0  0  0  0  0  0  0  0  0
   -0.2012    5.9309    4.9983 C   0  0  0  0  0  0  0  0  0  0  0  0
   -1.6856    2.0832    5.2488 C   0  0  0  0  0  0  0  0  0  0  0  0
   -1.7744    0.9714    4.4437 C   0  0  0  0  0  0  0  0  0  0  0  0
   -1.2315   -1.4189    2.8007 C   0  0  0  0  0  0  0  0  0  0  0  0
   -1.9263   -2.4930    2.2479 C   0  0  0  0  0  0  0  0  0  0  0  0
   -1.6539   -3.7897    2.6402 C   0  0  0  0  0  0  0  0  0  0  0  0
   -0.6848   -4.0361    3.6025 C   0  0  0  0  0  0  0  0  0  0  0  0
   -0.1958   -5.6513    4.1226 S   0  0  0  0  0  0  0  0  0  0  0  0
   -0.7561   -6.7126    2.7615 C   0  0  0  0  0  0  0  0  0  0  0  0
   -0.0495   -2.9599    4.2192 C   0  0  0  0  0  0  0  0  0  0  0  0
   -0.3184   -1.6702    3.8257 C   0  0  0  0  0  0  0  0  0  0  0  0
   -0.9604   -0.7576   -0.0230 C   0  0  0  0  0  0  0  0  0  0  0  0
    0.0465   -2.1491    0.0845 S   0  0  0  0  0  0  0  0  0  0  0  0
    0.4156   -2.0447   -1.6312 C   0  0  0  0  0  0  0  0  0  0  0  0
   -0.2644   -0.9982   -2.2503 C   0  0  0  0  0  0  0  0  0  0  0  0
   -0.1642   -0.6488   -3.5969 N   0  0  0  0  0  0  0  0  0  0  0  0
   -1.3461   -0.5405   -4.3338 C   0  0  0  0  0  0  0  0  0  0  0  0
   -2.4436   -1.3388   -4.0067 C   0  0  0  0  0  0  0  0  0  0  0  0
   -3.6045   -1.2640   -4.7433 C   0  0  0  0  0  0  0  0  0  0  0  0
   -3.6927   -0.4051   -5.8351 C   0  0  0  0  0  0  0  0  0  0  0  0
   -5.2029   -0.4228   -6.7528 S   0  0  0  0  0  0  0  0  0  0  0  0
   -4.7154    0.2870   -8.3520 C   0  0  0  0  0  0  0  0  0  0  0  0
   -2.6174    0.4169   -6.1432 C   0  0  0  0  0  0  0  0  0  0  0  0
   -1.4603    0.3555   -5.3940 C   0  0  0  0  0  0  0  0  0  0  0  0
    1.0967   -0.4471   -4.1634 C   0  0  0  0  0  0  0  0  0  0  0  0
    1.3508   -0.7587   -5.4990 C   0  0  0  0  0  0  0  0  0  0  0  0
    2.6283   -0.6707   -6.0125 C   0  0  0  0  0  0  0  0  0  0  0  0
    3.6847   -0.2852   -5.1986 C   0  0  0  0  0  0  0  0  0  0  0  0
    5.3680   -0.2252   -5.7311 S   0  0  0  0  0  0  0  0  0  0  0  0
    5.3515   -1.1107   -7.3161 C   0  0  0  0  0  0  0  0  0  0  0  0
    3.4278    0.0800   -3.8785 C   0  0  0  0  0  0  0  0  0  0  0  0
    2.1502    0.0101   -3.3697 C   0  0  0  0  0  0  0  0  0  0  0  0
   -1.0539   -0.2840   -1.3219 C   0  0  0  0  0  0  0  0  0  0  0  0
   -1.9960    1.1650   -1.4030 S   0  0  0  0  0  0  0  0  0  0  0  0
    1.2629   -3.0195   -2.2137 C   0  0  0  0  0  0  0  0  0  0  0  0
    2.1842   -3.8553   -1.5818 C   0  0  0  0  0  0  0  0  0  0  0  0
    2.5514   -3.8223   -0.2437 N   0  0  0  0  0  0  0  0  0  0  0  0
    2.8256   -5.0704    0.3423 C   0  0  0  0  0  0  0  0  0  0  0  0
    1.9282   -6.1193    0.1504 C   0  0  0  0  0  0  0  0  0  0  0  0
    2.2406   -7.3892    0.5844 C   0  0  0  0  0  0  0  0  0  0  0  0
    3.4554   -7.6256    1.2151 C   0  0  0  0  0  0  0  0  0  0  0  0
    3.8774   -9.2907    1.6384 S   0  0  0  0  0  0  0  0  0  0  0  0
    5.6326   -9.3080    1.1566 C   0  0  0  0  0  0  0  0  0  0  0  0
    4.3180   -6.5686    1.4753 C   0  0  0  0  0  0  0  0  0  0  0  0
    4.0070   -5.2976    1.0408 C   0  0  0  0  0  0  0  0  0  0  0  0
    2.8263   -2.6267    0.4193 C   0  0  0  0  0  0  0  0  0  0  0  0
    2.6518   -2.5316    1.7995 C   0  0  0  0  0  0  0  0  0  0  0  0
    2.7744   -1.3161    2.4430 C   0  0  0  0  0  0  0  0  0  0  0  0
    3.0646   -0.1690    1.7175 C   0  0  0  0  0  0  0  0  0  0  0  0
    3.1279    1.4595    2.4002 S   0  0  0  0  0  0  0  0  0  0  0  0
    2.7556    1.2276    4.1593 C   0  0  0  0  0  0  0  0  0  0  0  0
    3.3133   -0.2730    0.3497 C   0  0  0  0  0  0  0  0  0  0  0  0
    3.2093   -1.4863   -0.2904 C   0  0  0  0  0  0  0  0  0  0  0  0
    2.7584   -4.7690   -2.4924 C   0  0  0  0  0  0  0  0  0  0  0  0
    3.9712   -5.9891   -2.3385 S   0  0  0  0  0  0  0  0  0  0  0  0
    3.9350   -6.2607   -4.0868 C   0  0  0  0  0  0  0  0  0  0  0  0
    3.0389   -5.3687   -4.7403 C   0  0  0  0  0  0  0  0  0  0  0  0
    2.9140   -5.2117   -6.0971 N   0  0  0  0  0  0  0  0  0  0  0  0
    1.7175   -4.6838   -6.6133 C   0  0  0  0  0  0  0  0  0  0  0  0
    1.7419   -3.6760   -7.5776 C   0  0  0  0  0  0  0  0  0  0  0  0
    0.5676   -3.1150   -8.0231 C   0  0  0  0  0  0  0  0  0  0  0  0
   -0.6608   -3.5466   -7.5220 C   0  0  0  0  0  0  0  0  0  0  0  0
   -2.0894   -2.7011   -8.1100 S   0  0  0  0  0  0  0  0  0  0  0  0
   -3.4733   -3.6003   -7.3614 C   0  0  0  0  0  0  0  0  0  0  0  0
   -0.6917   -4.5862   -6.6023 C   0  0  0  0  0  0  0  0  0  0  0  0
    0.4878   -5.1510   -6.1573 C   0  0  0  0  0  0  0  0  0  0  0  0
    4.0298   -5.3033   -6.9525 C   0  0  0  0  0  0  0  0  0  0  0  0
    3.8816   -5.8308   -8.2312 C   0  0  0  0  0  0  0  0  0  0  0  0
    4.9753   -5.9611   -9.0651 C   0  0  0  0  0  0  0  0  0  0  0  0
    6.2356   -5.5817   -8.6239 C   0  0  0  0  0  0  0  0  0  0  0  0
    7.7049   -5.7873   -9.5761 S   0  0  0  0  0  0  0  0  0  0  0  0
    7.2344   -7.0454  -10.7971 C   0  0  0  0  0  0  0  0  0  0  0  0
    6.3754   -4.9971   -7.3649 C   0  0  0  0  0  0  0  0  0  0  0  0
    5.2842   -4.8490   -6.5401 C   0  0  0  0  0  0  0  0  0  0  0  0
    2.3381   -4.5948   -3.8053 C   0  0  0  0  0  0  0  0  0  0  0  0
    1.1492   -3.3443   -3.9374 S   0  0  0  0  0  0  0  0  0  0  0  0
    4.6479   -7.2539   -4.7458 C   0  0  0  0  0  0  0  0  0  0  0  0
    5.5974   -8.1458   -4.2825 C   0  0  0  0  0  0  0  0  0  0  0  0
    6.1132   -8.2502   -2.9202 C   0  0  0  0  0  0  0  0  0  0  0  0
    5.7260   -7.6770   -1.9144 O   0  0  0  0  0  0  0  0  0  0  0  0
    7.2296   -9.2196   -2.9801 C   0  0  0  0  0  0  0  0  0  0  0  0
    8.0547   -9.6489   -1.9619 C   0  0  0  0  0  0  0  0  0  0  0  0
    9.0375  -10.5683   -2.2997 C   0  0  0  0  0  0  0  0  0  0  0  0
    9.8646  -11.0153   -1.3380 F   0  0  0  0  0  0  0  0  0  0  0  0
    9.1986  -11.0439   -3.5909 C   0  0  0  0  0  0  0  0  0  0  0  0
    8.3590  -10.6041   -4.6049 C   0  0  0  0  0  0  0  0  0  0  0  0
    7.3676   -9.6850   -4.2988 C   0  0  0  0  0  0  0  0  0  0  0  0
    6.3309   -9.0609   -5.1219 C   0  0  0  0  0  0  0  0  0  0  0  0
    6.1160   -9.3360   -6.4518 C   0  0  0  0  0  0  0  0  0  0  0  0
    6.9515  -10.1483   -7.2435 C   0  0  0  0  0  0  0  0  0  0  0  0
    7.5917  -10.7698   -7.9674 N   0  0  0  0  0  0  0  0  0  0  0  0
    5.0287   -8.8866   -7.2220 C   0  0  0  0  0  0  0  0  0  0  0  0
    4.1619   -8.6067   -7.9248 N   0  0  0  0  0  0  0  0  0  0  0  0
   -5.0302    7.1951    8.0031 H   0  0  0  0  0  0  0  0  0  0  0  0
    0.0065   10.7536    6.7854 H   0  0  0  0  0  0  0  0  0  0  0  0
   -0.9909   12.8829   10.3657 H   0  0  0  0  0  0  0  0  0  0  0  0
   -3.0515   11.5545   10.6383 H   0  0  0  0  0  0  0  0  0  0  0  0
   -3.1178    7.7213    4.6426 H   0  0  0  0  0  0  0  0  0  0  0  0
   -3.8407    8.3849    2.4927 H   0  0  0  0  0  0  0  0  0  0  0  0
    0.4158   11.2518    0.2212 H   0  0  0  0  0  0  0  0  0  0  0  0
   -0.1472   10.3759   -1.1800 H   0  0  0  0  0  0  0  0  0  0  0  0
    2.2134   10.0857   -1.9496 H   0  0  0  0  0  0  0  0  0  0  0  0
    1.8110   11.7874   -1.7343 H   0  0  0  0  0  0  0  0  0  0  0  0
    2.7802   10.9501   -0.5246 H   0  0  0  0  0  0  0  0  0  0  0  0
    2.2674    8.0216    2.4107 H   0  0  0  0  0  0  0  0  0  0  0  0
    2.8817    9.5334    1.7879 H   0  0  0  0  0  0  0  0  0  0  0  0
    1.9426    9.8644    4.0357 H   0  0  0  0  0  0  0  0  0  0  0  0
    0.9648   10.7458    2.8642 H   0  0  0  0  0  0  0  0  0  0  0  0
    0.3861    9.2172    3.5197 H   0  0  0  0  0  0  0  0  0  0  0  0
    1.6607    6.4991   -0.0504 H   0  0  0  0  0  0  0  0  0  0  0  0
    2.5821    7.6808   -0.9469 H   0  0  0  0  0  0  0  0  0  0  0  0
    0.6360    8.0329   -2.4820 H   0  0  0  0  0  0  0  0  0  0  0  0
   -0.2877    6.8437   -1.5673 H   0  0  0  0  0  0  0  0  0  0  0  0
    1.1474    6.3463   -2.4588 H   0  0  0  0  0  0  0  0  0  0  0  0
   -9.0279   -1.5823    5.9857 H   0  0  0  0  0  0  0  0  0  0  0  0
   -8.4179   -3.1918    5.6968 H   0  0  0  0  0  0  0  0  0  0  0  0
   -8.2440   -0.8680    3.7250 H   0  0  0  0  0  0  0  0  0  0  0  0
   -9.3753   -2.2163    3.6276 H   0  0  0  0  0  0  0  0  0  0  0  0
   -7.6468   -2.4981    3.4242 H   0  0  0  0  0  0  0  0  0  0  0  0
   -6.1948   -2.8016    8.3167 H   0  0  0  0  0  0  0  0  0  0  0  0
   -7.4751   -1.6247    8.4628 H   0  0  0  0  0  0  0  0  0  0  0  0
   -5.5126   -0.9654    9.8120 H   0  0  0  0  0  0  0  0  0  0  0  0
   -5.8107    0.2183    8.5420 H   0  0  0  0  0  0  0  0  0  0  0  0
   -4.5002   -0.9444    8.3692 H   0  0  0  0  0  0  0  0  0  0  0  0
   -5.0581   -2.2571    4.2419 H   0  0  0  0  0  0  0  0  0  0  0  0
   -5.4431   -3.6582    5.2132 H   0  0  0  0  0  0  0  0  0  0  0  0
   -3.8138   -2.9573    6.9339 H   0  0  0  0  0  0  0  0  0  0  0  0
   -3.0318   -3.0463    5.3565 H   0  0  0  0  0  0  0  0  0  0  0  0
   -3.4718   -1.4813    6.0347 H   0  0  0  0  0  0  0  0  0  0  0  0
   -6.9988    3.4631    5.6787 H   0  0  0  0  0  0  0  0  0  0  0  0
   -4.0963    1.0603    2.4197 H   0  0  0  0  0  0  0  0  0  0  0  0
   -0.0370    2.1141    1.7781 H   0  0  0  0  0  0  0  0  0  0  0  0
    0.1290    4.0754    3.1951 H   0  0  0  0  0  0  0  0  0  0  0  0
   -0.6011    6.0267    3.9950 H   0  0  0  0  0  0  0  0  0  0  0  0
   -0.3947    6.8459    5.5502 H   0  0  0  0  0  0  0  0  0  0  0  0
    0.8635    5.7166    4.9796 H   0  0  0  0  0  0  0  0  0  0  0  0
   -2.1340    2.0826    6.2305 H   0  0  0  0  0  0  0  0  0  0  0  0
   -2.2798    0.0850    4.7921 H   0  0  0  0  0  0  0  0  0  0  0  0
   -2.6826   -2.3099    1.4990 H   0  0  0  0  0  0  0  0  0  0  0  0
   -2.2034   -4.5993    2.1873 H   0  0  0  0  0  0  0  0  0  0  0  0
   -1.8338   -6.8435    2.8008 H   0  0  0  0  0  0  0  0  0  0  0  0
   -0.2631   -7.6681    2.9119 H   0  0  0  0  0  0  0  0  0  0  0  0
   -0.4407   -6.2787    1.8179 H   0  0  0  0  0  0  0  0  0  0  0  0
    0.6738   -3.1553    4.9960 H   0  0  0  0  0  0  0  0  0  0  0  0
    0.1930   -0.8459    4.2977 H   0  0  0  0  0  0  0  0  0  0  0  0
   -2.3727   -2.0327   -3.1820 H   0  0  0  0  0  0  0  0  0  0  0  0
   -4.4537   -1.8809   -4.4896 H   0  0  0  0  0  0  0  0  0  0  0  0
   -5.5355    0.0771   -9.0316 H   0  0  0  0  0  0  0  0  0  0  0  0
   -3.8078   -0.1997   -8.6975 H   0  0  0  0  0  0  0  0  0  0  0  0
   -4.5809    1.3611   -8.2635 H   0  0  0  0  0  0  0  0  0  0  0  0
   -2.6726    1.1170   -6.9608 H   0  0  0  0  0  0  0  0  0  0  0  0
   -0.6369    1.0121   -5.6298 H   0  0  0  0  0  0  0  0  0  0  0  0
    0.5502   -1.1125   -6.1298 H   0  0  0  0  0  0  0  0  0  0  0  0
    2.7872   -0.9261   -7.0470 H   0  0  0  0  0  0  0  0  0  0  0  0
    4.8132   -0.5367   -8.0649 H   0  0  0  0  0  0  0  0  0  0  0  0
    4.9173   -2.0979   -7.1827 H   0  0  0  0  0  0  0  0  0  0  0  0
    6.3926   -1.2066   -7.6086 H   0  0  0  0  0  0  0  0  0  0  0  0
    4.2451    0.4139   -3.2573 H   0  0  0  0  0  0  0  0  0  0  0  0
    1.9605    0.2933   -2.3452 H   0  0  0  0  0  0  0  0  0  0  0  0
    1.0032   -5.9325   -0.3772 H   0  0  0  0  0  0  0  0  0  0  0  0
    1.5629   -8.2117    0.4143 H   0  0  0  0  0  0  0  0  0  0  0  0
    5.7389   -8.7225    0.2474 H   0  0  0  0  0  0  0  0  0  0  0  0
    5.8885  -10.3475    0.9756 H   0  0  0  0  0  0  0  0  0  0  0  0
    6.2506   -8.9117    1.9574 H   0  0  0  0  0  0  0  0  0  0  0  0
    5.2472   -6.7390    1.9954 H   0  0  0  0  0  0  0  0  0  0  0  0
    4.6923   -4.4807    1.2103 H   0  0  0  0  0  0  0  0  0  0  0  0
    2.3787   -3.4094    2.3652 H   0  0  0  0  0  0  0  0  0  0  0  0
    2.6161   -1.2777    3.5078 H   0  0  0  0  0  0  0  0  0  0  0  0
    1.7449    0.8482    4.2784 H   0  0  0  0  0  0  0  0  0  0  0  0
    3.4879    0.5659    4.6123 H   0  0  0  0  0  0  0  0  0  0  0  0
    2.8257    2.2149    4.6052 H   0  0  0  0  0  0  0  0  0  0  0  0
    3.5851    0.6141   -0.2024 H   0  0  0  0  0  0  0  0  0  0  0  0
    3.4040   -1.5555   -1.3502 H   0  0  0  0  0  0  0  0  0  0  0  0
    2.6884   -3.3306   -7.9650 H   0  0  0  0  0  0  0  0  0  0  0  0
    0.5844   -2.3238   -8.7572 H   0  0  0  0  0  0  0  0  0  0  0  0
   -3.4644   -4.6334   -7.6962 H   0  0  0  0  0  0  0  0  0  0  0  0
   -3.4148   -3.5255   -6.2797 H   0  0  0  0  0  0  0  0  0  0  0  0
   -4.3733   -3.1040   -7.7111 H   0  0  0  0  0  0  0  0  0  0  0  0
   -1.6252   -4.9644   -6.2197 H   0  0  0  0  0  0  0  0  0  0  0  0
    0.4573   -5.9614   -5.4443 H   0  0  0  0  0  0  0  0  0  0  0  0
    2.9096   -6.1575   -8.5654 H   0  0  0  0  0  0  0  0  0  0  0  0
    4.8330   -6.3851  -10.0449 H   0  0  0  0  0  0  0  0  0  0  0  0
    8.1640   -7.3803  -11.2465 H   0  0  0  0  0  0  0  0  0  0  0  0
    6.7466   -7.8741  -10.2925 H   0  0  0  0  0  0  0  0  0  0  0  0
    6.5930   -6.6128  -11.5594 H   0  0  0  0  0  0  0  0  0  0  0  0
    7.3508   -4.6652   -7.0443 H   0  0  0  0  0  0  0  0  0  0  0  0
    5.4000   -4.4008   -5.5642 H   0  0  0  0  0  0  0  0  0  0  0  0
    4.4308   -7.3208   -5.8043 H   0  0  0  0  0  0  0  0  0  0  0  0
    7.9470   -9.2897   -0.9510 H   0  0  0  0  0  0  0  0  0  0  0  0
    9.9812  -11.7572   -3.7954 H   0  0  0  0  0  0  0  0  0  0  0  0
    8.4927  -10.9807   -5.6055 H   0  0  0  0  0  0  0  0  0  0  0  0
  1  2  2  0  0  0  0
  2  3  1  0  0  0  0
  3  4  2  0  0  0  0
  3  5  1  0  0  0  0
  5  6  2  0  0  0  0
  6  7  1  0  0  0  0
  7  8  1  0  0  0  0
  7  9  2  0  0  0  0
  9 10  1  0  0  0  0
 10 11  2  0  0  0  0
 11 12  1  0  0  0  0
 12 13  2  0  0  0  0
 13 14  1  0  0  0  0
 14 15  3  0  0  0  0
 13 16  1  0  0  0  0
 16 17  3  0  0  0  0
  1 18  1  0  0  0  0
 18 19  2  0  0  0  0
 19 20  1  0  0  0  0
 20 21  2  0  0  0  0
 21 22  1  0  0  0  0
 22 23  2  0  0  0  0
 23 24  1  0  0  0  0
 24 25  1  0  0  0  0
 24 26  2  0  0  0  0
 26 27  1  0  0  0  0
 27 28  1  0  0  0  0
 28 29  1  0  0  0  0
 27 30  1  0  0  0  0
 30 31  1  0  0  0  0
 27 32  1  0  0  0  0
 32 33  1  0  0  0  0
 26 34  1  0  0  0  0
 21 35  1  0  0  0  0
 35 36  2  0  0  0  0
 36 37  1  0  0  0  0
 37 38  1  0  0  0  0
 38 39  1  0  0  0  0
 39 40  1  0  0  0  0
 40 41  1  0  0  0  0
 41 42  1  0  0  0  0
 42 43  1  0  0  0  0
 41 44  1  0  0  0  0
 44 45  1  0  0  0  0
 41 46  1  0  0  0  0
 46 47  1  0  0  0  0
 40 48  2  0  0  0  0
 48 49  1  0  0  0  0
 48 50  1  0  0  0  0
 37 51  2  0  0  0  0
 51 52  1  0  0  0  0
 36 53  1  0  0  0  0
 53 54  2  0  0  0  0
 54 55  1  0  0  0  0
 54 56  1  0  0  0  0
 56 57  2  0  0  0  0
 57 58  1  0  0  0  0
 58 59  1  0  0  0  0
 59 60  2  0  0  0  0
 60 61  1  0  0  0  0
 61 62  2  0  0  0  0
 62 63  1  0  0  0  0
 63 64  1  0  0  0  0
 62 65  1  0  0  0  0
 65 66  2  0  0  0  0
 58 67  1  0  0  0  0
 67 68  2  0  0  0  0
 68 69  1  0  0  0  0
 69 70  2  0  0  0  0
 70 71  1  0  0  0  0
 71 72  1  0  0  0  0
 70 73  1  0  0  0  0
 73 74  2  0  0  0  0
 57 75  1  0  0  0  0
 75 76  1  0  0  0  0
 76 77  1  0  0  0  0
 77 78  2  0  0  0  0
 78 79  1  0  0  0  0
 79 80  1  0  0  0  0
 80 81  2  0  0  0  0
 81 82  1  0  0  0  0
 82 83  2  0  0  0  0
 83 84  1  0  0  0  0
 84 85  1  0  0  0  0
 83 86  1  0  0  0  0
 86 87  2  0  0  0  0
 79 88  1  0  0  0  0
 88 89  2  0  0  0  0
 89 90  1  0  0  0  0
 90 91  2  0  0  0  0
 91 92  1  0  0  0  0
 92 93  1  0  0  0  0
 91 94  1  0  0  0  0
 94 95  2  0  0  0  0
 78 96  1  0  0  0  0
 96 97  1  0  0  0  0
 77 98  1  0  0  0  0
 98 99  2  0  0  0  0
 99100  1  0  0  0  0
100101  1  0  0  0  0
101102  2  0  0  0  0
102103  1  0  0  0  0
103104  2  0  0  0  0
104105  1  0  0  0  0
105106  1  0  0  0  0
104107  1  0  0  0  0
107108  2  0  0  0  0
100109  1  0  0  0  0
109110  2  0  0  0  0
110111  1  0  0  0  0
111112  2  0  0  0  0
112113  1  0  0  0  0
113114  1  0  0  0  0
112115  1  0  0  0  0
115116  2  0  0  0  0
 99117  1  0  0  0  0
117118  1  0  0  0  0
118119  1  0  0  0  0
119120  2  0  0  0  0
120121  1  0  0  0  0
121122  1  0  0  0  0
122123  2  0  0  0  0
123124  1  0  0  0  0
124125  2  0  0  0  0
125126  1  0  0  0  0
126127  1  0  0  0  0
125128  1  0  0  0  0
128129  2  0  0  0  0
121130  1  0  0  0  0
130131  2  0  0  0  0
131132  1  0  0  0  0
132133  2  0  0  0  0
133134  1  0  0  0  0
134135  1  0  0  0  0
133136  1  0  0  0  0
136137  2  0  0  0  0
120138  1  0  0  0  0
138139  1  0  0  0  0
119140  1  0  0  0  0
140141  2  0  0  0  0
141142  1  0  0  0  0
142143  2  0  0  0  0
142144  1  0  0  0  0
144145  2  0  0  0  0
145146  1  0  0  0  0
146147  1  0  0  0  0
146148  2  0  0  0  0
148149  1  0  0  0  0
149150  2  0  0  0  0
150151  1  0  0  0  0
151152  2  0  0  0  0
152153  1  0  0  0  0
153154  3  0  0  0  0
152155  1  0  0  0  0
155156  3  0  0  0  0
 12  2  1  0  0  0  0
 52 18  1  0  0  0  0
 97 56  1  0  0  0  0
139 98  1  0  0  0  0
151141  1  0  0  0  0
 11  5  1  0  0  0  0
 51 20  1  0  0  0  0
 66 59  1  0  0  0  0
 74 67  1  0  0  0  0
 96 75  2  0  0  0  0
108101  1  0  0  0  0
116109  1  0  0  0  0
138117  2  0  0  0  0
150144  1  0  0  0  0
 34 22  1  0  0  0  0
 55 35  1  0  0  0  0
 87 80  1  0  0  0  0
 95 88  1  0  0  0  0
129122  1  0  0  0  0
137130  1  0  0  0  0
 49 38  2  0  0  0  0
  1157  1  0  0  0  0
  6158  1  0  0  0  0
  9159  1  0  0  0  0
 10160  1  0  0  0  0
 19161  1  0  0  0  0
 23162  1  0  0  0  0
 28163  1  0  0  0  0
 28164  1  0  0  0  0
 29165  1  0  0  0  0
 29166  1  0  0  0  0
 29167  1  0  0  0  0
 30168  1  0  0  0  0
 30169  1  0  0  0  0
 31170  1  0  0  0  0
 31171  1  0  0  0  0
 31172  1  0  0  0  0
 32173  1  0  0  0  0
 32174  1  0  0  0  0
 33175  1  0  0  0  0
 33176  1  0  0  0  0
 33177  1  0  0  0  0
 42178  1  0  0  0  0
 42179  1  0  0  0  0
 43180  1  0  0  0  0
 43181  1  0  0  0  0
 43182  1  0  0  0  0
 44183  1  0  0  0  0
 44184  1  0  0  0  0
 45185  1  0  0  0  0
 45186  1  0  0  0  0
 45187  1  0  0  0  0
 46188  1  0  0  0  0
 46189  1  0  0  0  0
 47190  1  0  0  0  0
 47191  1  0  0  0  0
 47192  1  0  0  0  0
 49193  1  0  0  0  0
 53194  1  0  0  0  0
 60195  1  0  0  0  0
 61196  1  0  0  0  0
 64197  1  0  0  0  0
 64198  1  0  0  0  0
 64199  1  0  0  0  0
 65200  1  0  0  0  0
 66201  1  0  0  0  0
 68202  1  0  0  0  0
 69203  1  0  0  0  0
 72204  1  0  0  0  0
 72205  1  0  0  0  0
 72206  1  0  0  0  0
 73207  1  0  0  0  0
 74208  1  0  0  0  0
 81209  1  0  0  0  0
 82210  1  0  0  0  0
 85211  1  0  0  0  0
 85212  1  0  0  0  0
 85213  1  0  0  0  0
 86214  1  0  0  0  0
 87215  1  0  0  0  0
 89216  1  0  0  0  0
 90217  1  0  0  0  0
 93218  1  0  0  0  0
 93219  1  0  0  0  0
 93220  1  0  0  0  0
 94221  1  0  0  0  0
 95222  1  0  0  0  0
102223  1  0  0  0  0
103224  1  0  0  0  0
106225  1  0  0  0  0
106226  1  0  0  0  0
106227  1  0  0  0  0
107228  1  0  0  0  0
108229  1  0  0  0  0
110230  1  0  0  0  0
111231  1  0  0  0  0
114232  1  0  0  0  0
114233  1  0  0  0  0
114234  1  0  0  0  0
115235  1  0  0  0  0
116236  1  0  0  0  0
123237  1  0  0  0  0
124238  1  0  0  0  0
127239  1  0  0  0  0
127240  1  0  0  0  0
127241  1  0  0  0  0
128242  1  0  0  0  0
129243  1  0  0  0  0
131244  1  0  0  0  0
132245  1  0  0  0  0
135246  1  0  0  0  0
135247  1  0  0  0  0
135248  1  0  0  0  0
136249  1  0  0  0  0
137250  1  0  0  0  0
140251  1  0  0  0  0
145252  1  0  0  0  0
148253  1  0  0  0  0
149254  1  0  0  0  0
M  END
