254

C         -4.30060        7.50750        7.26510
C         -3.56950        8.62710        7.56130
C         -2.32300        9.09650        6.91690
O         -1.76520        8.67800        5.92230
C         -1.81410       10.18330        7.77950
C         -0.65860       10.92100        7.61770
C         -0.39960       11.89040        8.57420
F          0.71140       12.63700        8.46000
C         -1.24610       12.11790        9.64940
C         -2.40440       11.37010        9.79700
C         -2.69450       10.39500        8.85290
C         -3.81910        9.47250        8.71900
C         -4.94150        9.47950        9.50370
C         -5.12730       10.33890       10.60790
N         -5.33960       11.00360       11.51900
C         -6.08770        8.67650        9.31470
N         -7.07070        8.09080        9.21970
C         -4.23410        6.65580        6.14300
C         -3.66400        6.83710        4.90670
C         -3.81610        5.73770        4.04510
C         -3.24150        5.58690        2.76230
C         -2.54180        6.69140        2.14480
C         -2.90120        8.01100        2.12890
C         -1.91390        8.82830        1.54470
Cl        -2.10880       10.52840        1.42060
C         -0.79820        8.17100        1.10920
Si         0.87200        8.80710        0.48600
C          0.67590       10.44860       -0.46790
C          1.94720       10.84070       -1.21470
C          1.96380        9.00570        2.04930
C          1.27140        9.75380        3.18580
C          1.57290        7.42100       -0.62740
C          0.71550        7.14540       -1.85920
S         -0.98040        6.47940        1.40430
C         -3.29230        4.31530        2.21800
C         -3.94560        3.21980        2.84290
C         -4.63930        3.40360        4.05950
C         -5.39860        2.36040        4.71580
S         -4.96950        0.67780        4.64520
C         -6.26580        0.19930        5.67700
Si        -6.53550       -1.61390        6.15020
C         -8.24420       -2.13900        5.47270
C         -8.38640       -1.91790        3.97030
C         -6.47610       -1.78090        8.05480
C         -5.51480       -0.80970        8.73470
C         -5.15280       -2.60840        5.27090
C         -3.78470       -2.51850        5.94020
C         -6.98400        1.30710        6.03040
C         -6.50890        2.52310        5.50500
Cl        -8.36540        1.21660        7.04560
C         -4.52140        4.66350        4.64740
S         -5.04910        5.09770        6.24450
C         -3.71430        2.02020        2.13080
C         -2.91090        2.16950        1.03810
S         -2.50030        3.84400        0.74110
C         -2.24230        1.11930        0.33700
C         -1.58590        0.05850        0.94790
N         -1.42450       -0.12150        2.31240
C         -1.23130        0.98460        3.15910
C         -0.51880        2.10650        2.74450
C         -0.42370        3.22260        3.55470
C         -1.03880        3.23400        4.79980
S         -1.08390        4.62300        5.88770
C         -0.20120        5.93090        4.99830
C         -1.68560        2.08320        5.24880
C         -1.77440        0.97140        4.44370
C         -1.23150       -1.41890        2.80070
C         -1.92630       -2.49300        2.24790
C         -1.65390       -3.78970        2.64020
C         -0.68480       -4.03610        3.60250
S         -0.19580       -5.65130        4.12260
C         -0.75610       -6.71260        2.76150
C         -0.04950       -2.95990        4.21920
C         -0.31840       -1.67020        3.82570
C         -0.96040       -0.75760       -0.02300
S          0.04650       -2.14910        0.08450
C          0.41560       -2.04470       -1.63120
C         -0.26440       -0.99820       -2.25030
N         -0.16420       -0.64880       -3.59690
C         -1.34610       -0.54050       -4.33380
C         -2.44360       -1.33880       -4.00670
C         -3.60450       -1.26400       -4.74330
C         -3.69270       -0.40510       -5.83510
S         -5.20290       -0.42280       -6.75280
C         -4.71540        0.28700       -8.35200
C         -2.61740        0.41690       -6.14320
C         -1.46030        0.35550       -5.39400
C          1.09670       -0.44710       -4.16340
C          1.35080       -0.75870       -5.49900
C          2.62830       -0.67070       -6.01250
C          3.68470       -0.28520       -5.19860
S          5.36800       -0.22520       -5.73110
C          5.35150       -1.11070       -7.31610
C          3.42780        0.08000       -3.87850
C          2.15020        0.01010       -3.36970
C         -1.05390       -0.28400       -1.32190
S         -1.99600        1.16500       -1.40300
C          1.26290       -3.01950       -2.21370
C          2.18420       -3.85530       -1.58180
N          2.55140       -3.82230       -0.24370
C          2.82560       -5.07040        0.34230
C          1.92820       -6.11930        0.15040
C          2.24060       -7.38920        0.58440
C          3.45540       -7.62560        1.21510
S          3.87740       -9.29070        1.63840
C          5.63260       -9.30800        1.15660
C          4.31800       -6.56860        1.47530
C          4.00700       -5.29760        1.04080
C          2.82630       -2.62670        0.41930
C          2.65180       -2.53160        1.79950
C          2.77440       -1.31610        2.44300
C          3.06460       -0.16900        1.71750
S          3.12790        1.45950        2.40020
C          2.75560        1.22760        4.15930
C          3.31330       -0.27300        0.34970
C          3.20930       -1.48630       -0.29040
C          2.75840       -4.76900       -2.49240
S          3.97120       -5.98910       -2.33850
C          3.93500       -6.26070       -4.08680
C          3.03890       -5.36870       -4.74030
N          2.91400       -5.21170       -6.09710
C          1.71750       -4.68380       -6.61330
C          1.74190       -3.67600       -7.57760
C          0.56760       -3.11500       -8.02310
C         -0.66080       -3.54660       -7.52200
S         -2.08940       -2.70110       -8.11000
C         -3.47330       -3.60030       -7.36140
C         -0.69170       -4.58620       -6.60230
C          0.48780       -5.15100       -6.15730
C          4.02980       -5.30330       -6.95250
C          3.88160       -5.83080       -8.23120
C          4.97530       -5.96110       -9.06510
C          6.23560       -5.58170       -8.62390
S          7.70490       -5.78730       -9.57610
C          7.23440       -7.04540      -10.79710
C          6.37540       -4.99710       -7.36490
C          5.28420       -4.84900       -6.54010
C          2.33810       -4.59480       -3.80530
S          1.14920       -3.34430       -3.93740
C          4.64790       -7.25390       -4.74580
C          5.59740       -8.14580       -4.28250
C          6.11320       -8.25020       -2.92020
O          5.72600       -7.67700       -1.91440
C          7.22960       -9.21960       -2.98010
C          8.05470       -9.64890       -1.96190
C          9.03750      -10.56830       -2.29970
F          9.86460      -11.01530       -1.33800
C          9.19860      -11.04390       -3.59090
C          8.35900      -10.60410       -4.60490
C          7.36760       -9.68500       -4.29880
C          6.33090       -9.06090       -5.12190
C          6.11600       -9.33600       -6.45180
C          6.95150      -10.14830       -7.24350
N          7.59170      -10.76980       -7.96740
C          5.02870       -8.88660       -7.22200
N          4.16190       -8.60670       -7.92480
H         -5.03020        7.19510        8.00310
H          0.00650       10.75360        6.78540
H         -0.99090       12.88290       10.36570
H         -3.05150       11.55450       10.63830
H         -3.11780        7.72130        4.64260
H         -3.84070        8.38490        2.49270
H          0.41580       11.25180        0.22120
H         -0.14720       10.37590       -1.18000
H          2.21340       10.08570       -1.94960
H          1.81100       11.78740       -1.73430
H          2.78020       10.95010       -0.52460
H          2.26740        8.02160        2.41070
H          2.88170        9.53340        1.78790
H          1.94260        9.86440        4.03570
H          0.96480       10.74580        2.86420
H          0.38610        9.21720        3.51970
H          1.66070        6.49910       -0.05040
H          2.58210        7.68080       -0.94690
H          0.63600        8.03290       -2.48200
H         -0.28770        6.84370       -1.56730
H          1.14740        6.34630       -2.45880
H         -9.02790       -1.58230        5.98570
H         -8.41790       -3.19180        5.69680
H         -8.24400       -0.86800        3.72500
H         -9.37530       -2.21630        3.62760
H         -7.64680       -2.49810        3.42420
H         -6.19480       -2.80160        8.31670
H         -7.47510       -1.62470        8.46280
H         -5.51260       -0.96540        9.81200
H         -5.81070        0.21830        8.54200
H         -4.50020       -0.94440        8.36920
H         -5.05810       -2.25710        4.24190
H         -5.44310       -3.65820        5.21320
H         -3.81380       -2.95730        6.93390
H         -3.03180       -3.04630        5.35650
H         -3.47180       -1.48130        6.03470
H         -6.99880        3.46310        5.67870
H         -4.09630        1.06030        2.41970
H         -0.03700        2.11410        1.77810
H          0.12900        4.07540        3.19510
H         -0.60110        6.02670        3.99500
H         -0.39470        6.84590        5.55020
H          0.86350        5.71660        4.97960
H         -2.13400        2.08260        6.23050
H         -2.27980        0.08500        4.79210
H         -2.68260       -2.30990        1.49900
H         -2.20340       -4.59930        2.18730
H         -1.83380       -6.84350        2.80080
H         -0.26310       -7.66810        2.91190
H         -0.44070       -6.27870        1.81790
H          0.67380       -3.15530        4.99600
H          0.19300       -0.84590        4.29770
H         -2.37270       -2.03270       -3.18200
H         -4.45370       -1.88090       -4.48960
H         -5.53550        0.07710       -9.03160
H         -3.80780       -0.19970       -8.69750
H         -4.58090        1.36110       -8.26350
H         -2.67260        1.11700       -6.96080
H         -0.63690        1.01210       -5.62980
H          0.55020       -1.11250       -6.12980
H          2.78720       -0.92610       -7.04700
H          4.81320       -0.53670       -8.06490
H          4.91730       -2.09790       -7.18270
H          6.39260       -1.20660       -7.60860
H          4.24510        0.41390       -3.25730
H          1.96050        0.29330       -2.34520
H          1.00320       -5.93250       -0.37720
H          1.56290       -8.21170        0.41430
H          5.73890       -8.72250        0.24740
H          5.88850      -10.34750        0.97560
H          6.25060       -8.91170        1.95740
H          5.24720       -6.73900        1.99540
H          4.69230       -4.48070        1.21030
H          2.37870       -3.40940        2.36520
H          2.61610       -1.27770        3.50780
H          1.74490        0.84820        4.27840
H          3.48790        0.56590        4.61230
H          2.82570        2.21490        4.60520
H          3.58510        0.61410       -0.20240
H          3.40400       -1.55550       -1.35020
H          2.68840       -3.33060       -7.96500
H          0.58440       -2.32380       -8.75720
H         -3.46440       -4.63340       -7.69620
H         -3.41480       -3.52550       -6.27970
H         -4.37330       -3.10400       -7.71110
H         -1.62520       -4.96440       -6.21970
H          0.45730       -5.96140       -5.44430
H          2.90960       -6.15750       -8.56540
H          4.83300       -6.38510      -10.04490
H          8.16400       -7.38030      -11.24650
H          6.74660       -7.87410      -10.29250
H          6.59300       -6.61280      -11.55940
H          7.35080       -4.66520       -7.04430
H          5.40000       -4.40080       -5.56420
H          4.43080       -7.32080       -5.80430
H          7.94700       -9.28970       -0.95100
H          9.98120      -11.75720       -3.79540
H          8.49270      -10.98070       -5.60550
