191

C         -0.93400       -8.36250        4.32040
C         -0.17140       -9.02600        5.24300
C          1.29460       -8.92340        5.42580
O          2.07150       -8.13360        4.93320
C          1.66100      -10.06500        6.29360
C          2.91980      -10.43590        6.72110
C          2.99880      -11.56310        7.52490
F          4.20170      -11.96270        7.96880
C          1.87930      -12.29790        7.88730
C          0.62040      -11.91150        7.45330
C          0.50820      -10.78390        6.65230
C         -0.65220      -10.12610        6.05890
C         -1.96240      -10.43500        6.31450
C         -2.37550      -11.50800        7.13170
N         -2.77210      -12.37020        7.77740
C         -3.07380       -9.70230        5.84510
N         -4.02630       -9.14330        5.52990
C         -0.60470       -7.22150        3.55980
C          0.33950       -6.24620        3.77360
C          0.33470       -5.22370        2.80630
C          1.15840       -4.07620        2.76870
C          2.28370       -3.94430        3.69490
C          2.56140       -2.71740        4.33450
C          3.61530       -2.59840        5.19290
C          4.45870       -3.69610        5.46720
C          5.54900       -3.59720        6.35260
C          6.33620       -4.69070        6.60780
S          7.73850       -4.70520        7.67780
C          7.68690       -3.10690        8.55830
C          6.58560       -3.05980        9.60070
C          6.05960       -5.92470        5.97640
C          5.01890       -6.04040        5.10680
C          4.18770       -4.93230        4.82570
C          3.10380       -5.02650        3.94010
C          0.84870       -3.13590        1.79830
C         -0.16420       -3.33400        0.82430
C         -0.94650       -4.50050        0.82900
C         -2.01100       -4.71020       -0.16280
C         -2.99020       -3.76530       -0.35740
C         -3.99470       -3.94710       -1.32420
C         -5.00180       -2.98470       -1.55090
C         -5.94940       -3.16720       -2.51650
C         -5.94360       -4.33720       -3.29880
S         -7.08590       -4.59620       -4.62630
C         -8.61680       -3.77800       -4.05300
C         -9.14990       -4.39870       -2.77710
C         -4.98140       -5.29670       -3.09530
C         -3.98970       -5.12730       -2.11390
C         -2.98690       -6.09340       -1.88180
C         -2.02930       -5.89400       -0.93110
C         -0.68400       -5.41520        1.83420
S         -1.58440       -6.87440        2.13510
C         -0.27710       -2.23280       -0.05690
C          0.54270       -1.19420        0.26420
S          1.62390       -1.58610        1.58240
C          0.49610        0.11660       -0.31490
C          0.38540        1.33260        0.33870
N          0.29320        1.51420        1.70840
C         -0.34380        0.56510        2.51720
C         -1.44810       -0.14540        2.05140
C         -1.97260       -1.19540        2.77990
C         -1.41420       -1.54320        4.00150
S         -1.89390       -2.95240        4.95020
C         -3.15600       -3.76420        3.93070
C         -0.38690       -0.75880        4.52480
C          0.14680        0.27810        3.79260
C          0.83250        2.68280        2.26610
C          2.04650        3.18870        1.80030
C          2.55340        4.35950        2.31680
C          1.86750        5.04720        3.31620
S          2.61000        6.54400        3.88440
C          1.43450        7.18320        5.11060
C          0.67170        4.53290        3.80020
C          0.15860        3.36300        3.27560
C          0.27380        2.39110       -0.59960
S          0.15660        4.10630       -0.46420
C          0.03620        4.26660       -2.22110
C          0.13290        3.03480       -2.86860
N          0.16230        2.78650       -4.22730
C         -0.42520        1.58790       -4.67640
C         -1.66960        1.19570       -4.19260
C         -2.24020        0.00330       -4.59430
C         -1.57560       -0.81340       -5.49970
S         -2.19040       -2.35920       -6.08210
C         -3.79630       -2.53460       -5.25930
C         -0.33630       -0.41270       -6.00030
C          0.23550        0.77050       -5.59310
C          0.78300        3.63560       -5.14470
C          1.87390        4.42630       -4.77730
C          2.39170        5.34930       -5.65870
C          1.85410        5.48360       -6.93610
S          2.48620        6.78980       -7.94590
C          2.10090        6.23850       -9.63360
C          0.82380        4.64260       -7.33480
C          0.29170        3.73260       -6.44650
C          0.24920        1.98350       -1.92170
S          0.37640        0.26390       -2.06020
C         -0.09410        5.58210       -2.73260
C          0.27300        6.73540       -2.04970
C          0.15780        7.89000       -2.80870
C          0.51610        9.21890       -2.32270
C          1.66240        9.39510       -1.54850
C          2.01120       10.65130       -1.09240
C          1.21960       11.74740       -1.39440
C          0.06920       11.58000       -2.14650
C         -0.28350       10.32610       -2.60680
C         -0.30430        7.63130       -4.11930
S         -0.73090        5.94560       -4.30200
C         -0.16620        8.53940       -5.16650
C         -0.44580        8.38370       -6.50730
C         -1.17190        7.26390       -7.09540
O         -1.67930        6.31210       -6.52440
C         -1.20020        7.51640       -8.55160
C         -1.75560        6.73940       -9.54780
C         -1.62030        7.20190      -10.84880
F         -2.13780        6.47370      -11.85570
C         -0.96200        8.38360      -11.15110
C         -0.41080        9.15510      -10.13730
C         -0.53020        8.72120       -8.82570
C         -0.06390        9.29500       -7.56080
C          0.62200       10.47720       -7.43820
C          1.05930       11.05860       -6.23020
N          1.43950       11.61410       -5.29850
C          0.97730       11.29850       -8.52750
N          1.29310       12.01260       -9.36980
H         -1.91490       -8.77080        4.10500
H          3.79830       -9.87420        6.44640
H          2.00290      -13.17050        8.50920
H         -0.24210      -12.49200        7.73650
H          0.98010       -6.23820        4.63390
H          1.90900       -1.87650        4.16060
H          3.81200       -1.65470        5.68190
H          5.73880       -2.63880        6.81050
H          8.66830       -3.03660        9.02740
H          7.59760       -2.31110        7.81960
H          6.60440       -2.10130       10.11630
H          6.72850       -3.85160       10.33230
H          5.60760       -3.19040        9.14250
H          6.69690       -6.76630        6.20280
H          4.79770       -6.98360        4.63060
H          2.93740       -5.96670        3.43640
H         -3.00480       -2.86620        0.24300
H         -5.00610       -2.08400       -0.95260
H         -6.69440       -2.40540       -2.68680
H         -9.30980       -3.92490       -4.88110
H         -8.42750       -2.71050       -3.94440
H        -10.09220       -3.92870       -2.50260
H         -9.31960       -5.46360       -2.91910
H         -8.44460       -4.26900       -1.95810
H         -4.98110       -6.19010       -3.70150
H         -2.98800       -6.99410       -2.47750
H         -1.25680       -6.63090       -0.77030
H         -0.97890       -2.18520       -0.87000
H         -1.88490        0.11310        1.09800
H         -2.81370       -1.73990        2.38210
H         -2.74840       -4.00190        2.95240
H         -3.41040       -4.67990        4.45590
H         -4.03560       -3.13200        3.85050
H          0.00610       -0.99850        5.50110
H          0.97470        0.84960        4.18450
H          2.58930        2.65390        1.03510
H          3.49010        4.75520        1.95590
H          1.85740        8.12100        5.45730
H          1.34740        6.48970        5.94190
H          0.47170        7.36440        4.64180
H          0.12170        5.03750        4.57790
H         -0.77870        2.97470        3.64600
H         -2.19340        1.83380       -3.49560
H         -3.20310       -0.27420       -4.19690
H         -4.20720       -3.47600       -5.61060
H         -3.66010       -2.57500       -4.18250
H         -4.45320       -1.71930       -5.54770
H          0.17360       -1.05200       -6.70420
H          1.20090        1.06850       -5.97340
H          2.29760        4.33230       -3.78860
H          3.21160        5.98560       -5.36300
H          1.03740        6.33120       -9.83290
H          2.43790        5.21470       -9.76250
H          2.65460        6.89970      -10.29280
H          0.40220        4.71400       -8.32440
H         -0.54390        3.12120       -6.74890
H          0.63650        6.71830       -1.03640
H          2.29170        8.54500       -1.33020
H          2.90760       10.77700       -0.50340
H          1.49800       12.72940       -1.04310
H         -0.55470       12.42990       -2.37800
H         -1.19680       10.19400       -3.16910
H          0.29380        9.47440       -4.87200
H         -2.27010        5.81800       -9.32520
H         -0.88610        8.69360      -12.18130
H          0.09770       10.07130      -10.38640
