177

C          3.48900        7.97320        4.76190
C          4.02180        9.11830        4.24250
C          4.09120        9.54550        2.82260
O          3.90990        8.89100        1.81810
C          4.41760       10.98480        2.86150
C          4.52020       11.86270        1.79980
C          4.82620       13.19640        2.04390
C          4.95370       14.20220        0.94760
C          5.01500       13.58110        3.37370
F          5.30070       14.87270        3.62030
C          4.92580       12.71970        4.45480
C          4.62250       11.39310        4.18910
C          4.46570       10.23650        5.06380
C          4.76950       10.20590        6.39830
C          5.19950       11.33310        7.13140
N          5.54420       12.21420        7.78110
C          4.75340        9.05580        7.21740
N          4.79750        8.16570        7.94170
C          3.00010        6.80810        4.12810
C          3.10610        6.34030        2.84190
C          2.45830        5.10720        2.63200
C          2.35210        4.39730        1.41920
C          3.09910        4.77930        0.22130
C          4.46080        5.07510        0.30510
C          5.19420        5.32100       -0.83410
C          4.58400        5.29160       -2.08590
S          5.61170        5.59910       -3.48840
C          4.77710        4.69830       -4.84400
C          4.70880        3.20600       -4.58010
C          3.21950        5.04710       -2.17400
C          2.49120        4.78380       -1.03180
C          1.55910        3.26280        1.44330
C          0.93350        2.76440        2.61440
C          1.06240        3.45540        3.83280
C          0.42730        2.97570        5.06600
C         -0.90780        2.57500        5.07000
C         -1.51970        2.14770        6.23190
C         -0.80210        2.10340        7.42050
S         -1.49960        1.63400        8.97590
C         -2.77260        0.40020        8.53070
C         -2.15550       -0.84660        7.92740
C          0.53120        2.50260        7.42730
C          1.13560        2.93490        6.26700
C          1.82180        4.61900        3.80560
S          2.09610        5.68760        5.15030
C          0.33120        1.50000        2.38720
C          0.49320        1.03840        1.11700
S          1.30250        2.20160        0.08570
C          0.12610       -0.24190        0.58850
C          0.92160       -1.10210       -0.15530
N          2.24990       -0.90980       -0.48110
C          3.11160       -0.16940        0.33780
C          3.00040       -0.22520        1.72440
C          3.73880        0.62370        2.52570
C          4.61180        1.53690        1.95100
S          5.52440        2.73460        2.87090
C          4.78420        2.66250        4.52590
C          4.79470        1.53200        0.56900
C          4.05660        0.68820       -0.22940
C          2.71700       -1.46540       -1.68590
C          3.92110       -2.15920       -1.72510
C          4.33350       -2.78270       -2.88680
C          3.54250       -2.72380       -4.02710
S          3.92820       -3.53370       -5.54590
C          5.36840       -4.56100       -5.13990
C          2.36170       -1.98460       -4.00530
C          1.95510       -1.35720       -2.84980
C          0.19170       -2.25990       -0.52680
S          0.56680       -3.64470       -1.49560
C         -1.05930       -4.25300       -1.27190
C         -1.88020       -3.36660       -0.56270
N         -3.25450       -3.42770       -0.52850
C         -3.91960       -2.89030        0.57990
C         -5.07150       -2.11810        0.42250
C         -5.68440       -1.56450        1.52230
C         -5.16330       -1.76410        2.80130
S         -6.02790       -0.98470        4.12340
C         -4.98270       -1.30530        5.57300
C         -4.02790       -2.54810        2.96230
C         -3.41370       -3.10640        1.85900
C         -3.97240       -3.91330       -1.62920
C         -5.19420       -4.56390       -1.45960
C         -5.86180       -5.09250       -2.54370
C         -5.30190       -5.02720       -3.81790
S         -6.15230       -5.84440       -5.12660
C         -4.90480       -5.95330       -6.44310
C         -4.11840       -4.32060       -4.00320
C         -3.47850       -3.75030       -2.92490
C         -1.12460       -2.26800       -0.08960
S         -1.48900       -0.87220        0.86650
C         -1.43210       -5.48120       -1.86540
C         -2.41330       -6.34850       -1.33690
C         -2.93690       -7.47140       -2.08330
N         -3.70670       -8.24450       -1.32400
S         -3.83660       -7.59520        0.13350
N         -2.88920       -6.31410       -0.09070
C         -2.61960       -7.67920       -3.44740
C         -1.48420       -6.94680       -3.88570
N         -0.89620       -7.05270       -5.07610
S          0.31950       -6.00110       -5.16980
N          0.13870       -5.31780       -3.72690
C         -0.87560       -5.90420       -3.09150
C         -3.30370       -8.48730       -4.37770
C         -4.61360       -8.90180       -4.39520
C         -5.72000       -8.45030       -3.52940
O         -5.69370       -7.73150       -2.55050
C         -6.95150       -9.01010       -4.13680
C         -8.25660       -8.83470       -3.72510
C         -9.25540       -9.42030       -4.48550
F        -10.53750       -9.27480       -4.12220
C         -8.93980      -10.15660       -5.62620
F         -9.92600      -10.70580       -6.34810
C         -7.62770      -10.33380       -6.03890
C         -6.62360       -9.75110       -5.28150
C         -5.16970       -9.74300       -5.43770
C         -4.47650      -10.46310       -6.37640
C         -3.07190      -10.55870       -6.48100
N         -1.94720      -10.72840       -6.64110
C         -5.08850      -11.25230       -7.37280
N         -5.52110      -11.89920       -8.21710
H          3.37040        7.94730        5.83960
H          4.36180       11.50650        0.79320
H          4.24280       15.01410        1.09770
H          5.95110       14.64090        0.95510
H          4.77330       13.74400       -0.02020
H          5.08470       13.10220        5.44940
H          3.60930        6.88310        2.06420
H          4.95580        5.05670        1.26370
H          6.25190        5.52490       -0.76960
H          3.79150        5.13560       -5.00210
H          5.39640        4.91360       -5.71500
H          4.24610        2.70070       -5.42650
H          4.12230        2.99650       -3.68640
H          5.70930        2.80230       -4.43790
H          2.71350        5.06460       -3.12660
H          1.42850        4.60870       -1.11340
H         -1.48540        2.63500        4.15900
H         -2.56280        1.87150        6.20460
H         -3.25870        0.17590        9.47970
H         -3.50090        0.86480        7.86730
H         -1.65910       -0.61420        6.98660
H         -2.92490       -1.59450        7.74540
H         -1.41820       -1.26480        8.60870
H          1.08480        2.47170        8.35280
H          2.17530        3.22440        6.29290
H         -0.13490        0.91380        3.15880
H          2.31480       -0.92510        2.17870
H          3.61440        0.56680        3.59510
H          3.70560        2.75750        4.44130
H          5.06210        1.73850        5.02530
H          5.19280        3.50950        5.06880
H          5.49600        2.22380        0.12900
H          4.17180        0.71720       -1.30230
H          4.52780       -2.22260       -0.83380
H          5.26570       -3.32400       -2.88280
H          6.22670       -3.93410       -4.91600
H          5.12840       -5.21670       -4.30820
H          5.56760       -5.15010       -6.02980
H          1.76670       -1.91890       -4.90290
H          1.03820       -0.78650       -2.83440
H         -5.46940       -1.94440       -0.56580
H         -6.56920       -0.95780        1.40620
H         -5.44980       -0.77060        6.39430
H         -4.96340       -2.36880        5.79310
H         -3.98370       -0.91910        5.39520
H         -3.61490       -2.73990        3.93920
H         -2.54240       -3.73170        1.98320
H         -5.60750       -4.67310       -0.46850
H         -6.80740       -5.58920       -2.40630
H         -4.74400       -4.97870       -6.89440
H         -3.98210       -6.36170       -6.03990
H         -5.31850       -6.63160       -7.18310
H         -3.69570       -4.19300       -4.98700
H         -2.57540       -3.18150       -3.09050
H         -2.70330       -8.71780       -5.25130
H         -8.49730       -8.26210       -2.84410
H         -7.43740      -10.90910       -6.92980
