
  xtb     02102218153D
 energy: -224.112401139560 gnorm: 0.000270957197 xtb: 6.4.1 (unknown)
126138  0     0  0            999 V2000
    6.5688   -1.6823    5.7766 C   0  0  0  0  0  0  0  0  0  0  0  0
    7.7964   -2.2690    5.6898 C   0  0  0  0  0  0  0  0  0  0  0  0
    8.7767   -2.2914    4.5735 C   0  0  0  0  0  0  0  0  0  0  0  0
    8.6463   -1.9081    3.4297 O   0  0  0  0  0  0  0  0  0  0  0  0
   10.0091   -2.8746    5.1360 C   0  0  0  0  0  0  0  0  0  0  0  0
   11.2215   -3.0683    4.5019 C   0  0  0  0  0  0  0  0  0  0  0  0
   12.2770   -3.6348    5.2057 C   0  0  0  0  0  0  0  0  0  0  0  0
   13.6134   -3.8801    4.5870 C   0  0  0  0  0  0  0  0  0  0  0  0
   12.0491   -3.9783    6.5411 C   0  0  0  0  0  0  0  0  0  0  0  0
   13.0677   -4.5197    7.2335 F   0  0  0  0  0  0  0  0  0  0  0  0
   10.8432   -3.7985    7.1977 C   0  0  0  0  0  0  0  0  0  0  0  0
    9.8004   -3.2371    6.4758 C   0  0  0  0  0  0  0  0  0  0  0  0
    8.4193   -2.9347    6.8326 C   0  0  0  0  0  0  0  0  0  0  0  0
    7.8137   -3.3048    8.0024 C   0  0  0  0  0  0  0  0  0  0  0  0
    6.4480   -3.1549    8.3352 C   0  0  0  0  0  0  0  0  0  0  0  0
    5.3602   -3.1242    8.7021 N   0  0  0  0  0  0  0  0  0  0  0  0
    8.4851   -3.9617    9.0577 C   0  0  0  0  0  0  0  0  0  0  0  0
    8.9697   -4.4899    9.9538 N   0  0  0  0  0  0  0  0  0  0  0  0
    5.7010   -1.0509    4.8342 C   0  0  0  0  0  0  0  0  0  0  0  0
    5.8939   -0.9395    3.4606 C   0  0  0  0  0  0  0  0  0  0  0  0
    4.9328   -0.3969    2.6198 C   0  0  0  0  0  0  0  0  0  0  0  0
    3.7057    0.0557    3.0888 C   0  0  0  0  0  0  0  0  0  0  0  0
    3.4816   -0.0101    4.4965 C   0  0  0  0  0  0  0  0  0  0  0  0
    2.3163    0.4367    4.9888 N   0  0  0  0  0  0  0  0  0  0  0  0
    2.1200    0.3820    6.2797 C   0  0  0  0  0  0  0  0  0  0  0  0
    3.1071   -0.1280    7.1415 C   0  0  0  0  0  0  0  0  0  0  0  0
    4.2475   -0.5768    6.6897 N   0  0  0  0  0  0  0  0  0  0  0  0
    4.4695   -0.5420    5.3641 C   0  0  0  0  0  0  0  0  0  0  0  0
    2.6673    0.5341    2.2253 C   0  0  0  0  0  0  0  0  0  0  0  0
    2.7203    0.6787    0.8629 C   0  0  0  0  0  0  0  0  0  0  0  0
    1.4972    1.0784    0.2816 C   0  0  0  0  0  0  0  0  0  0  0  0
    1.2243    1.2841   -1.0850 C   0  0  0  0  0  0  0  0  0  0  0  0
    2.2890    1.2585   -2.0949 C   0  0  0  0  0  0  0  0  0  0  0  0
    3.4568    1.9932   -1.9068 C   0  0  0  0  0  0  0  0  0  0  0  0
    4.4433    1.9840   -2.8779 C   0  0  0  0  0  0  0  0  0  0  0  0
    4.2688    1.2708   -4.0472 C   0  0  0  0  0  0  0  0  0  0  0  0
    3.0968    0.5459   -4.2485 C   0  0  0  0  0  0  0  0  0  0  0  0
    2.9357   -0.3247   -5.7753 S   0  0  0  0  0  0  0  0  0  0  0  0
    1.1233   -0.5658   -5.9243 C   0  0  0  0  0  0  0  0  0  0  0  0
    0.7778   -0.8630   -7.3709 C   0  0  0  0  0  0  0  0  0  0  0  0
    2.1217    0.5229   -3.2641 C   0  0  0  0  0  0  0  0  0  0  0  0
   -0.0985    1.5267   -1.4142 C   0  0  0  0  0  0  0  0  0  0  0  0
   -1.1286    1.6499   -0.4463 C   0  0  0  0  0  0  0  0  0  0  0  0
   -0.8342    1.5354    0.9241 C   0  0  0  0  0  0  0  0  0  0  0  0
   -1.8596    1.7583    1.9500 C   0  0  0  0  0  0  0  0  0  0  0  0
   -2.6951    2.8706    1.8935 C   0  0  0  0  0  0  0  0  0  0  0  0
   -3.6352    3.0782    2.8883 C   0  0  0  0  0  0  0  0  0  0  0  0
   -3.7346    2.2062    3.9545 C   0  0  0  0  0  0  0  0  0  0  0  0
   -2.8915    1.1002    4.0245 C   0  0  0  0  0  0  0  0  0  0  0  0
   -3.0540    0.0521    5.4384 S   0  0  0  0  0  0  0  0  0  0  0  0
   -1.4545   -0.8341    5.5204 C   0  0  0  0  0  0  0  0  0  0  0  0
   -1.4877   -2.1819    4.8238 C   0  0  0  0  0  0  0  0  0  0  0  0
   -1.9772    0.8666    3.0116 C   0  0  0  0  0  0  0  0  0  0  0  0
    0.4736    1.2115    1.2536 C   0  0  0  0  0  0  0  0  0  0  0  0
    1.0891    0.9223    2.8660 S   0  0  0  0  0  0  0  0  0  0  0  0
   -2.3981    1.8360   -1.0417 C   0  0  0  0  0  0  0  0  0  0  0  0
   -2.3742    1.8918   -2.4057 C   0  0  0  0  0  0  0  0  0  0  0  0
   -0.7344    1.7238   -3.0255 S   0  0  0  0  0  0  0  0  0  0  0  0
   -3.4750    1.9875   -3.3251 C   0  0  0  0  0  0  0  0  0  0  0  0
   -3.2603    1.8724   -4.6916 C   0  0  0  0  0  0  0  0  0  0  0  0
   -4.3021    1.8060   -5.6066 C   0  0  0  0  0  0  0  0  0  0  0  0
   -5.6231    1.8251   -5.1959 C   0  0  0  0  0  0  0  0  0  0  0  0
   -5.8916    2.0776   -3.8184 C   0  0  0  0  0  0  0  0  0  0  0  0
   -7.1580    2.3062   -3.4303 N   0  0  0  0  0  0  0  0  0  0  0  0
   -7.3896    2.5126   -2.1630 C   0  0  0  0  0  0  0  0  0  0  0  0
   -6.3460    2.5198   -1.2219 C   0  0  0  0  0  0  0  0  0  0  0  0
   -5.0998    2.3757   -1.5833 N   0  0  0  0  0  0  0  0  0  0  0  0
   -4.8247    2.1507   -2.8798 C   0  0  0  0  0  0  0  0  0  0  0  0
   -6.7055    1.6344   -6.1249 C   0  0  0  0  0  0  0  0  0  0  0  0
   -7.8170    0.9113   -5.8458 C   0  0  0  0  0  0  0  0  0  0  0  0
   -7.9407   -0.0285   -4.6941 C   0  0  0  0  0  0  0  0  0  0  0  0
   -7.0731   -0.3859   -3.9282 O   0  0  0  0  0  0  0  0  0  0  0  0
   -9.3150   -0.5588   -4.7687 C   0  0  0  0  0  0  0  0  0  0  0  0
   -9.9414   -1.4355   -3.9037 C   0  0  0  0  0  0  0  0  0  0  0  0
  -11.2458   -1.8386   -4.1629 C   0  0  0  0  0  0  0  0  0  0  0  0
  -11.9872   -2.7780   -3.2702 C   0  0  0  0  0  0  0  0  0  0  0  0
  -11.8603   -1.3309   -5.3110 C   0  0  0  0  0  0  0  0  0  0  0  0
  -13.1223   -1.7175   -5.5718 F   0  0  0  0  0  0  0  0  0  0  0  0
  -11.2529   -0.4594   -6.1988 C   0  0  0  0  0  0  0  0  0  0  0  0
   -9.9520   -0.0657   -5.9202 C   0  0  0  0  0  0  0  0  0  0  0  0
   -9.0380    0.8206   -6.6327 C   0  0  0  0  0  0  0  0  0  0  0  0
   -9.3069    1.4626   -7.8103 C   0  0  0  0  0  0  0  0  0  0  0  0
  -10.5219    1.3406   -8.5195 C   0  0  0  0  0  0  0  0  0  0  0  0
  -11.4824    1.2813   -9.1442 N   0  0  0  0  0  0  0  0  0  0  0  0
   -8.4178    2.3192   -8.4944 C   0  0  0  0  0  0  0  0  0  0  0  0
   -7.7539    3.0234   -9.1120 N   0  0  0  0  0  0  0  0  0  0  0  0
    6.1160   -1.6899    6.7625 H   0  0  0  0  0  0  0  0  0  0  0  0
   11.3371   -2.7807    3.4679 H   0  0  0  0  0  0  0  0  0  0  0  0
   14.3877   -3.3522    5.1428 H   0  0  0  0  0  0  0  0  0  0  0  0
   13.8554   -4.9417    4.6258 H   0  0  0  0  0  0  0  0  0  0  0  0
   13.6276   -3.5491    3.5528 H   0  0  0  0  0  0  0  0  0  0  0  0
   10.7574   -4.0919    8.2306 H   0  0  0  0  0  0  0  0  0  0  0  0
    6.8151   -1.2958    3.0292 H   0  0  0  0  0  0  0  0  0  0  0  0
    5.1458   -0.3538    1.5633 H   0  0  0  0  0  0  0  0  0  0  0  0
    1.1740    0.7527    6.6484 H   0  0  0  0  0  0  0  0  0  0  0  0
    2.9625   -0.1700    8.2119 H   0  0  0  0  0  0  0  0  0  0  0  0
    3.5983    0.4793    0.2758 H   0  0  0  0  0  0  0  0  0  0  0  0
    3.5767    2.5889   -1.0141 H   0  0  0  0  0  0  0  0  0  0  0  0
    5.3494    2.5521   -2.7282 H   0  0  0  0  0  0  0  0  0  0  0  0
    5.0262    1.2720   -4.8156 H   0  0  0  0  0  0  0  0  0  0  0  0
    0.8333   -1.3956   -5.2788 H   0  0  0  0  0  0  0  0  0  0  0  0
    0.6469    0.3546   -5.5862 H   0  0  0  0  0  0  0  0  0  0  0  0
    1.0728   -0.0341   -8.0099 H   0  0  0  0  0  0  0  0  0  0  0  0
   -0.2946   -1.0191   -7.4696 H   0  0  0  0  0  0  0  0  0  0  0  0
    1.2936   -1.7585   -7.7095 H   0  0  0  0  0  0  0  0  0  0  0  0
    1.2364   -0.0810   -3.3786 H   0  0  0  0  0  0  0  0  0  0  0  0
   -2.5910    3.5814    1.0880 H   0  0  0  0  0  0  0  0  0  0  0  0
   -4.2837    3.9406    2.8413 H   0  0  0  0  0  0  0  0  0  0  0  0
   -4.4514    2.3736    4.7435 H   0  0  0  0  0  0  0  0  0  0  0  0
   -0.6920   -0.1753    5.1066 H   0  0  0  0  0  0  0  0  0  0  0  0
   -1.2741   -0.9649    6.5879 H   0  0  0  0  0  0  0  0  0  0  0  0
   -2.2363   -2.8245    5.2813 H   0  0  0  0  0  0  0  0  0  0  0  0
   -0.5148   -2.6628    4.9102 H   0  0  0  0  0  0  0  0  0  0  0  0
   -1.7302   -2.0773    3.7687 H   0  0  0  0  0  0  0  0  0  0  0  0
   -1.3575   -0.0140    3.0179 H   0  0  0  0  0  0  0  0  0  0  0  0
   -3.3136    1.8943   -0.4844 H   0  0  0  0  0  0  0  0  0  0  0  0
   -2.2452    1.7915   -5.0530 H   0  0  0  0  0  0  0  0  0  0  0  0
   -4.0778    1.6647   -6.6537 H   0  0  0  0  0  0  0  0  0  0  0  0
   -8.4155    2.7051   -1.8796 H   0  0  0  0  0  0  0  0  0  0  0  0
   -6.5283    2.6826   -0.1682 H   0  0  0  0  0  0  0  0  0  0  0  0
   -6.5972    2.1148   -7.0884 H   0  0  0  0  0  0  0  0  0  0  0  0
   -9.4140   -1.7976   -3.0342 H   0  0  0  0  0  0  0  0  0  0  0  0
  -12.3047   -3.6566   -3.8308 H   0  0  0  0  0  0  0  0  0  0  0  0
  -12.8869   -2.2990   -2.8849 H   0  0  0  0  0  0  0  0  0  0  0  0
  -11.3657   -3.0918   -2.4369 H   0  0  0  0  0  0  0  0  0  0  0  0
  -11.7999   -0.1223   -7.0637 H   0  0  0  0  0  0  0  0  0  0  0  0
  1  2  2  0  0  0  0
  2  3  1  0  0  0  0
  3  4  2  0  0  0  0
  3  5  1  0  0  0  0
  5  6  2  0  0  0  0
  6  7  1  0  0  0  0
  7  8  1  0  0  0  0
  7  9  2  0  0  0  0
  9 10  1  0  0  0  0
  9 11  1  0  0  0  0
 11 12  2  0  0  0  0
 12 13  1  0  0  0  0
 13 14  2  0  0  0  0
 14 15  1  0  0  0  0
 15 16  3  0  0  0  0
 14 17  1  0  0  0  0
 17 18  3  0  0  0  0
  1 19  1  0  0  0  0
 19 20  2  0  0  0  0
 20 21  1  0  0  0  0
 21 22  2  0  0  0  0
 22 23  1  0  0  0  0
 23 24  2  0  0  0  0
 24 25  1  0  0  0  0
 25 26  2  0  0  0  0
 26 27  1  0  0  0  0
 27 28  2  0  0  0  0
 22 29  1  0  0  0  0
 29 30  2  0  0  0  0
 30 31  1  0  0  0  0
 31 32  2  0  0  0  0
 32 33  1  0  0  0  0
 33 34  2  0  0  0  0
 34 35  1  0  0  0  0
 35 36  2  0  0  0  0
 36 37  1  0  0  0  0
 37 38  1  0  0  0  0
 38 39  1  0  0  0  0
 39 40  1  0  0  0  0
 37 41  2  0  0  0  0
 32 42  1  0  0  0  0
 42 43  2  0  0  0  0
 43 44  1  0  0  0  0
 44 45  1  0  0  0  0
 45 46  2  0  0  0  0
 46 47  1  0  0  0  0
 47 48  2  0  0  0  0
 48 49  1  0  0  0  0
 49 50  1  0  0  0  0
 50 51  1  0  0  0  0
 51 52  1  0  0  0  0
 49 53  2  0  0  0  0
 44 54  2  0  0  0  0
 54 55  1  0  0  0  0
 43 56  1  0  0  0  0
 56 57  2  0  0  0  0
 57 58  1  0  0  0  0
 57 59  1  0  0  0  0
 59 60  2  0  0  0  0
 60 61  1  0  0  0  0
 61 62  2  0  0  0  0
 62 63  1  0  0  0  0
 63 64  2  0  0  0  0
 64 65  1  0  0  0  0
 65 66  2  0  0  0  0
 66 67  1  0  0  0  0
 67 68  2  0  0  0  0
 62 69  1  0  0  0  0
 69 70  2  0  0  0  0
 70 71  1  0  0  0  0
 71 72  2  0  0  0  0
 71 73  1  0  0  0  0
 73 74  2  0  0  0  0
 74 75  1  0  0  0  0
 75 76  1  0  0  0  0
 75 77  2  0  0  0  0
 77 78  1  0  0  0  0
 77 79  1  0  0  0  0
 79 80  2  0  0  0  0
 80 81  1  0  0  0  0
 81 82  2  0  0  0  0
 82 83  1  0  0  0  0
 83 84  3  0  0  0  0
 82 85  1  0  0  0  0
 85 86  3  0  0  0  0
 13  2  1  0  0  0  0
 28 19  1  0  0  0  0
 55 29  1  0  0  0  0
 68 59  1  0  0  0  0
 81 70  1  0  0  0  0
 12  5  1  0  0  0  0
 28 23  1  0  0  0  0
 54 31  1  0  0  0  0
 68 63  1  0  0  0  0
 80 73  1  0  0  0  0
 41 33  1  0  0  0  0
 58 42  1  0  0  0  0
 53 45  1  0  0  0  0
  1 87  1  0  0  0  0
  6 88  1  0  0  0  0
  8 89  1  0  0  0  0
  8 90  1  0  0  0  0
  8 91  1  0  0  0  0
 11 92  1  0  0  0  0
 20 93  1  0  0  0  0
 21 94  1  0  0  0  0
 25 95  1  0  0  0  0
 26 96  1  0  0  0  0
 30 97  1  0  0  0  0
 34 98  1  0  0  0  0
 35 99  1  0  0  0  0
 36100  1  0  0  0  0
 39101  1  0  0  0  0
 39102  1  0  0  0  0
 40103  1  0  0  0  0
 40104  1  0  0  0  0
 40105  1  0  0  0  0
 41106  1  0  0  0  0
 46107  1  0  0  0  0
 47108  1  0  0  0  0
 48109  1  0  0  0  0
 51110  1  0  0  0  0
 51111  1  0  0  0  0
 52112  1  0  0  0  0
 52113  1  0  0  0  0
 52114  1  0  0  0  0
 53115  1  0  0  0  0
 56116  1  0  0  0  0
 60117  1  0  0  0  0
 61118  1  0  0  0  0
 65119  1  0  0  0  0
 66120  1  0  0  0  0
 69121  1  0  0  0  0
 74122  1  0  0  0  0
 76123  1  0  0  0  0
 76124  1  0  0  0  0
 76125  1  0  0  0  0
 79126  1  0  0  0  0
M  END
