
  xtb     02052211143D
 energy: -432.564186636539 gnorm: 0.000275615805 xtb: 6.4.1 (unknown)
258279  0     0  0            999 V2000
    2.1250    8.3003    4.2382 C   0  0  0  0  0  0  0  0  0  0  0  0
    3.2506    9.0977    4.2290 C   0  0  0  0  0  0  0  0  0  0  0  0
    4.6081    8.6743    3.8911 C   0  0  0  0  0  0  0  0  0  0  0  0
    4.9933    7.5582    3.5775 O   0  0  0  0  0  0  0  0  0  0  0  0
    5.4640    9.8622    4.0673 C   0  0  0  0  0  0  0  0  0  0  0  0
    6.8165    9.9940    3.8261 C   0  0  0  0  0  0  0  0  0  0  0  0
    7.4356   11.2172    4.0612 C   0  0  0  0  0  0  0  0  0  0  0  0
    8.8953   11.4296    3.8248 C   0  0  0  0  0  0  0  0  0  0  0  0
    6.6395   12.2594    4.5367 C   0  0  0  0  0  0  0  0  0  0  0  0
    7.2291   13.4478    4.7713 F   0  0  0  0  0  0  0  0  0  0  0  0
    5.2776   12.1550    4.7762 C   0  0  0  0  0  0  0  0  0  0  0  0
    4.6792   10.9299    4.5340 C   0  0  0  0  0  0  0  0  0  0  0  0
    3.2900   10.4814    4.6392 C   0  0  0  0  0  0  0  0  0  0  0  0
    2.2354   11.2684    5.0357 C   0  0  0  0  0  0  0  0  0  0  0  0
    0.8793   10.8894    5.0374 C   0  0  0  0  0  0  0  0  0  0  0  0
   -0.2503   10.6729    5.0400 N   0  0  0  0  0  0  0  0  0  0  0  0
    2.3728   12.5990    5.4806 C   0  0  0  0  0  0  0  0  0  0  0  0
    2.4194   13.6794    5.8669 N   0  0  0  0  0  0  0  0  0  0  0  0
    1.9434    6.9989    3.7805 C   0  0  0  0  0  0  0  0  0  0  0  0
    0.6971    6.3244    3.8272 C   0  0  0  0  0  0  0  0  0  0  0  0
   -0.3978    6.7232    4.5448 N   0  0  0  0  0  0  0  0  0  0  0  0
   -0.2961    7.3334    5.8072 C   0  0  0  0  0  0  0  0  0  0  0  0
   -1.2663    8.2465    6.2207 C   0  0  0  0  0  0  0  0  0  0  0  0
   -1.1786    8.8314    7.4641 C   0  0  0  0  0  0  0  0  0  0  0  0
   -0.1197    8.5290    8.3177 C   0  0  0  0  0  0  0  0  0  0  0  0
   -0.1086    9.3463    9.8799 S   0  0  0  0  0  0  0  0  0  0  0  0
    1.5064    8.9133   10.5889 C   0  0  0  0  0  0  0  0  0  0  0  0
    0.8419    7.6112    7.9119 C   0  0  0  0  0  0  0  0  0  0  0  0
    0.7505    7.0168    6.6701 C   0  0  0  0  0  0  0  0  0  0  0  0
   -1.6718    6.3848    4.0497 C   0  0  0  0  0  0  0  0  0  0  0  0
   -2.6406    5.8223    4.8794 C   0  0  0  0  0  0  0  0  0  0  0  0
   -3.8700    5.4756    4.3671 C   0  0  0  0  0  0  0  0  0  0  0  0
   -4.1609    5.6827    3.0186 C   0  0  0  0  0  0  0  0  0  0  0  0
   -5.7562    5.1874    2.4646 S   0  0  0  0  0  0  0  0  0  0  0  0
   -5.8804    5.9220    0.8117 C   0  0  0  0  0  0  0  0  0  0  0  0
   -3.2001    6.2524    2.1927 C   0  0  0  0  0  0  0  0  0  0  0  0
   -1.9688    6.6029    2.7076 C   0  0  0  0  0  0  0  0  0  0  0  0
    0.7347    5.1543    3.0480 C   0  0  0  0  0  0  0  0  0  0  0  0
   -0.4423    3.9635    2.6210 S   0  0  0  0  0  0  0  0  0  0  0  0
    0.7853    3.0332    1.7621 C   0  0  0  0  0  0  0  0  0  0  0  0
    2.0251    3.6527    1.7628 C   0  0  0  0  0  0  0  0  0  0  0  0
    3.1671    3.2138    1.1269 N   0  0  0  0  0  0  0  0  0  0  0  0
    4.4131    3.7892    1.4735 C   0  0  0  0  0  0  0  0  0  0  0  0
    5.2144    4.3571    0.4842 C   0  0  0  0  0  0  0  0  0  0  0  0
    6.3981    4.9739    0.8222 C   0  0  0  0  0  0  0  0  0  0  0  0
    6.8069    5.0325    2.1524 C   0  0  0  0  0  0  0  0  0  0  0  0
    8.3009    5.8974    2.5089 S   0  0  0  0  0  0  0  0  0  0  0  0
    8.0767    6.3453    4.2563 C   0  0  0  0  0  0  0  0  0  0  0  0
    6.0421    4.4169    3.1313 C   0  0  0  0  0  0  0  0  0  0  0  0
    4.8506    3.8050    2.7925 C   0  0  0  0  0  0  0  0  0  0  0  0
    3.1625    2.3644    0.0134 C   0  0  0  0  0  0  0  0  0  0  0  0
    4.2156    1.4657   -0.1421 C   0  0  0  0  0  0  0  0  0  0  0  0
    4.2770    0.6254   -1.2349 C   0  0  0  0  0  0  0  0  0  0  0  0
    3.2652    0.6519   -2.1852 C   0  0  0  0  0  0  0  0  0  0  0  0
    3.2076   -0.4343   -3.5781 S   0  0  0  0  0  0  0  0  0  0  0  0
    4.8392   -1.2286   -3.5843 C   0  0  0  0  0  0  0  0  0  0  0  0
    2.2200    1.5629   -2.0489 C   0  0  0  0  0  0  0  0  0  0  0  0
    2.1781    2.4234   -0.9724 C   0  0  0  0  0  0  0  0  0  0  0  0
    1.9799    4.8660    2.5064 C   0  0  0  0  0  0  0  0  0  0  0  0
    3.1584    6.0638    2.9107 S   0  0  0  0  0  0  0  0  0  0  0  0
    0.3362    1.8066    1.1548 C   0  0  0  0  0  0  0  0  0  0  0  0
    0.7055    0.5058    1.4434 C   0  0  0  0  0  0  0  0  0  0  0  0
    1.6501    0.1569    2.3990 N   0  0  0  0  0  0  0  0  0  0  0  0
    1.6822    0.9023    3.5869 C   0  0  0  0  0  0  0  0  0  0  0  0
    0.4873    1.2982    4.1829 C   0  0  0  0  0  0  0  0  0  0  0  0
    0.4818    2.1078    5.3006 C   0  0  0  0  0  0  0  0  0  0  0  0
    1.6818    2.5208    5.8601 C   0  0  0  0  0  0  0  0  0  0  0  0
    1.8006    3.6080    7.2470 S   0  0  0  0  0  0  0  0  0  0  0  0
    0.0756    3.8667    7.7449 C   0  0  0  0  0  0  0  0  0  0  0  0
    2.8812    2.0786    5.3054 C   0  0  0  0  0  0  0  0  0  0  0  0
    2.8853    1.2843    4.1786 C   0  0  0  0  0  0  0  0  0  0  0  0
    2.5405   -0.8923    2.1536 C   0  0  0  0  0  0  0  0  0  0  0  0
    3.1358   -1.5935    3.2004 C   0  0  0  0  0  0  0  0  0  0  0  0
    4.0257   -2.6211    2.9537 C   0  0  0  0  0  0  0  0  0  0  0  0
    4.3166   -2.9944    1.6490 C   0  0  0  0  0  0  0  0  0  0  0  0
    5.4276   -4.2916    1.1992 S   0  0  0  0  0  0  0  0  0  0  0  0
    6.0262   -4.9359    2.7817 C   0  0  0  0  0  0  0  0  0  0  0  0
    3.7043   -2.3152    0.6003 C   0  0  0  0  0  0  0  0  0  0  0  0
    2.8407   -1.2725    0.8448 C   0  0  0  0  0  0  0  0  0  0  0  0
   -0.0315   -0.4137    0.6560 C   0  0  0  0  0  0  0  0  0  0  0  0
   -0.0604   -2.1299    0.4691 S   0  0  0  0  0  0  0  0  0  0  0  0
   -1.2370   -2.0264   -0.8516 C   0  0  0  0  0  0  0  0  0  0  0  0
   -1.5780   -0.7070   -1.1109 C   0  0  0  0  0  0  0  0  0  0  0  0
   -2.4051   -0.1759   -2.1152 N   0  0  0  0  0  0  0  0  0  0  0  0
   -1.9115   -0.0790   -3.4184 C   0  0  0  0  0  0  0  0  0  0  0  0
   -2.7300    0.3244   -4.4770 C   0  0  0  0  0  0  0  0  0  0  0  0
   -2.2559    0.3407   -5.7684 C   0  0  0  0  0  0  0  0  0  0  0  0
   -0.9428   -0.0236   -6.0503 C   0  0  0  0  0  0  0  0  0  0  0  0
   -0.4656   -0.0102   -7.7496 S   0  0  0  0  0  0  0  0  0  0  0  0
    1.2865   -0.4729   -7.7143 C   0  0  0  0  0  0  0  0  0  0  0  0
   -0.1079   -0.3792   -5.0037 C   0  0  0  0  0  0  0  0  0  0  0  0
   -0.5885   -0.4063   -3.7079 C   0  0  0  0  0  0  0  0  0  0  0  0
   -3.4601    0.6138   -1.6296 C   0  0  0  0  0  0  0  0  0  0  0  0
   -4.1818    0.1514   -0.5304 C   0  0  0  0  0  0  0  0  0  0  0  0
   -5.2795    0.8386   -0.0542 C   0  0  0  0  0  0  0  0  0  0  0  0
   -5.6806    2.0138   -0.6719 C   0  0  0  0  0  0  0  0  0  0  0  0
   -7.1377    2.9129   -0.2403 S   0  0  0  0  0  0  0  0  0  0  0  0
   -7.7656    2.0588    1.2281 C   0  0  0  0  0  0  0  0  0  0  0  0
   -4.9120    2.5284   -1.7136 C   0  0  0  0  0  0  0  0  0  0  0  0
   -3.8057    1.8505   -2.1757 C   0  0  0  0  0  0  0  0  0  0  0  0
   -0.9263    0.1769   -0.2163 C   0  0  0  0  0  0  0  0  0  0  0  0
   -0.9632    1.8904   -0.0328 S   0  0  0  0  0  0  0  0  0  0  0  0
   -1.5472   -3.2877   -1.4434 C   0  0  0  0  0  0  0  0  0  0  0  0
   -2.2064   -3.6820   -2.5982 C   0  0  0  0  0  0  0  0  0  0  0  0
   -2.9813   -2.9141   -3.4793 N   0  0  0  0  0  0  0  0  0  0  0  0
   -4.2226   -2.4495   -3.0394 C   0  0  0  0  0  0  0  0  0  0  0  0
   -4.7243   -2.8396   -1.7942 C   0  0  0  0  0  0  0  0  0  0  0  0
   -5.9133   -2.3340   -1.3187 C   0  0  0  0  0  0  0  0  0  0  0  0
   -6.6464   -1.4198   -2.0679 C   0  0  0  0  0  0  0  0  0  0  0  0
   -8.1261   -0.7915   -1.3366 S   0  0  0  0  0  0  0  0  0  0  0  0
   -8.6640    0.5033   -2.4872 C   0  0  0  0  0  0  0  0  0  0  0  0
   -6.1837   -1.0618   -3.3241 C   0  0  0  0  0  0  0  0  0  0  0  0
   -4.9954   -1.5771   -3.8041 C   0  0  0  0  0  0  0  0  0  0  0  0
   -2.6256   -3.0909   -4.8289 C   0  0  0  0  0  0  0  0  0  0  0  0
   -1.2649   -3.1935   -5.1309 C   0  0  0  0  0  0  0  0  0  0  0  0
   -0.8422   -3.4187   -6.4204 C   0  0  0  0  0  0  0  0  0  0  0  0
   -1.7671   -3.5205   -7.4497 C   0  0  0  0  0  0  0  0  0  0  0  0
   -1.1606   -3.7809   -9.0923 S   0  0  0  0  0  0  0  0  0  0  0  0
   -2.3007   -2.7518  -10.0653 C   0  0  0  0  0  0  0  0  0  0  0  0
   -3.1202   -3.4528   -7.1582 C   0  0  0  0  0  0  0  0  0  0  0  0
   -3.5465   -3.2563   -5.8597 C   0  0  0  0  0  0  0  0  0  0  0  0
   -2.0108   -5.0611   -2.8593 C   0  0  0  0  0  0  0  0  0  0  0  0
   -2.3852   -6.0255   -4.2291 S   0  0  0  0  0  0  0  0  0  0  0  0
   -1.5631   -7.4103   -3.4991 C   0  0  0  0  0  0  0  0  0  0  0  0
   -1.1103   -7.1175   -2.1854 C   0  0  0  0  0  0  0  0  0  0  0  0
   -0.5213   -7.9973   -1.3154 N   0  0  0  0  0  0  0  0  0  0  0  0
    0.2425   -7.4741   -0.2482 C   0  0  0  0  0  0  0  0  0  0  0  0
    1.3324   -6.6442   -0.4975 C   0  0  0  0  0  0  0  0  0  0  0  0
    2.0274   -6.0780    0.5555 C   0  0  0  0  0  0  0  0  0  0  0  0
    1.6299   -6.3413    1.8552 C   0  0  0  0  0  0  0  0  0  0  0  0
    2.4196   -5.5186    3.2250 S   0  0  0  0  0  0  0  0  0  0  0  0
    1.0868   -4.3396    3.5931 C   0  0  0  0  0  0  0  0  0  0  0  0
    0.5832   -7.2141    2.1122 C   0  0  0  0  0  0  0  0  0  0  0  0
   -0.1102   -7.7800    1.0645 C   0  0  0  0  0  0  0  0  0  0  0  0
   -0.9158   -9.3442   -1.1905 C   0  0  0  0  0  0  0  0  0  0  0  0
   -2.2374   -9.7427   -1.3678 C   0  0  0  0  0  0  0  0  0  0  0  0
   -2.5999  -11.0582   -1.1680 C   0  0  0  0  0  0  0  0  0  0  0  0
   -1.6462  -11.9978   -0.7908 C   0  0  0  0  0  0  0  0  0  0  0  0
   -2.0213  -13.6911   -0.5013 S   0  0  0  0  0  0  0  0  0  0  0  0
   -3.5129  -13.9448   -1.5057 C   0  0  0  0  0  0  0  0  0  0  0  0
   -0.3256  -11.5967   -0.6022 C   0  0  0  0  0  0  0  0  0  0  0  0
    0.0378  -10.2841   -0.8003 C   0  0  0  0  0  0  0  0  0  0  0  0
   -1.3002   -5.7537   -1.8916 C   0  0  0  0  0  0  0  0  0  0  0  0
   -0.8432   -4.6797   -0.6069 S   0  0  0  0  0  0  0  0  0  0  0  0
   -1.2666   -8.5754   -4.2160 C   0  0  0  0  0  0  0  0  0  0  0  0
   -1.2728   -8.7680   -5.5803 C   0  0  0  0  0  0  0  0  0  0  0  0
   -1.5742   -7.7695   -6.6183 C   0  0  0  0  0  0  0  0  0  0  0  0
   -2.2845   -6.7853   -6.5331 O   0  0  0  0  0  0  0  0  0  0  0  0
   -0.8770   -8.2316   -7.8326 C   0  0  0  0  0  0  0  0  0  0  0  0
   -0.7080   -7.5710   -9.0314 C   0  0  0  0  0  0  0  0  0  0  0  0
    0.0086   -8.1896  -10.0517 C   0  0  0  0  0  0  0  0  0  0  0  0
    0.2349   -7.5193  -11.3671 C   0  0  0  0  0  0  0  0  0  0  0  0
    0.5068   -9.4699   -9.8072 C   0  0  0  0  0  0  0  0  0  0  0  0
    1.2022  -10.0781  -10.7882 F   0  0  0  0  0  0  0  0  0  0  0  0
    0.3439  -10.1565   -8.6128 C   0  0  0  0  0  0  0  0  0  0  0  0
   -0.3563   -9.5166   -7.6046 C   0  0  0  0  0  0  0  0  0  0  0  0
   -0.7119   -9.9231   -6.2472 C   0  0  0  0  0  0  0  0  0  0  0  0
   -0.6351  -11.1999   -5.7511 C   0  0  0  0  0  0  0  0  0  0  0  0
   -0.0305  -12.2740   -6.4338 C   0  0  0  0  0  0  0  0  0  0  0  0
    0.4685  -13.1775   -6.9366 N   0  0  0  0  0  0  0  0  0  0  0  0
   -1.2836  -11.6189   -4.5768 C   0  0  0  0  0  0  0  0  0  0  0  0
   -1.8785  -12.0485   -3.6925 N   0  0  0  0  0  0  0  0  0  0  0  0
    1.2263    8.7593    4.6292 H   0  0  0  0  0  0  0  0  0  0  0  0
    7.3813    9.1573    3.4447 H   0  0  0  0  0  0  0  0  0  0  0  0
    9.0538   12.3102    3.2041 H   0  0  0  0  0  0  0  0  0  0  0  0
    9.4063   11.6045    4.7716 H   0  0  0  0  0  0  0  0  0  0  0  0
    9.3372   10.5644    3.3391 H   0  0  0  0  0  0  0  0  0  0  0  0
    4.7386   13.0163    5.1345 H   0  0  0  0  0  0  0  0  0  0  0  0
   -2.0768    8.5054    5.5586 H   0  0  0  0  0  0  0  0  0  0  0  0
   -1.9212    9.5464    7.7801 H   0  0  0  0  0  0  0  0  0  0  0  0
    2.2984    9.2023    9.9043 H   0  0  0  0  0  0  0  0  0  0  0  0
    1.5476    7.8520   10.8165 H   0  0  0  0  0  0  0  0  0  0  0  0
    1.5843    9.4879   11.5066 H   0  0  0  0  0  0  0  0  0  0  0  0
    1.6636    7.3389    8.5544 H   0  0  0  0  0  0  0  0  0  0  0  0
    1.5013    6.3009    6.3710 H   0  0  0  0  0  0  0  0  0  0  0  0
   -2.4244    5.6625    5.9256 H   0  0  0  0  0  0  0  0  0  0  0  0
   -4.6220    5.0358    5.0039 H   0  0  0  0  0  0  0  0  0  0  0  0
   -5.6761    6.9868    0.8707 H   0  0  0  0  0  0  0  0  0  0  0  0
   -5.2021    5.4189    0.1289 H   0  0  0  0  0  0  0  0  0  0  0  0
   -6.9036    5.7538    0.4917 H   0  0  0  0  0  0  0  0  0  0  0  0
   -3.3955    6.4267    1.1475 H   0  0  0  0  0  0  0  0  0  0  0  0
   -1.2266    7.0547    2.0660 H   0  0  0  0  0  0  0  0  0  0  0  0
    4.8884    4.3332   -0.5453 H   0  0  0  0  0  0  0  0  0  0  0  0
    7.0070    5.4397    0.0627 H   0  0  0  0  0  0  0  0  0  0  0  0
    8.2659    5.4877    4.8957 H   0  0  0  0  0  0  0  0  0  0  0  0
    8.8069    7.1209    4.4672 H   0  0  0  0  0  0  0  0  0  0  0  0
    7.0663    6.7232    4.3845 H   0  0  0  0  0  0  0  0  0  0  0  0
    6.3522    4.4178    4.1631 H   0  0  0  0  0  0  0  0  0  0  0  0
    4.2424    3.3518    3.5583 H   0  0  0  0  0  0  0  0  0  0  0  0
    4.9950    1.4258    0.6037 H   0  0  0  0  0  0  0  0  0  0  0  0
    5.1052   -0.0589   -1.3159 H   0  0  0  0  0  0  0  0  0  0  0  0
    4.8734   -1.8210   -4.4936 H   0  0  0  0  0  0  0  0  0  0  0  0
    4.9483   -1.8778   -2.7202 H   0  0  0  0  0  0  0  0  0  0  0  0
    5.6155   -0.4696   -3.6079 H   0  0  0  0  0  0  0  0  0  0  0  0
    1.4492    1.6002   -2.8044 H   0  0  0  0  0  0  0  0  0  0  0  0
    1.3962    3.1638   -0.9096 H   0  0  0  0  0  0  0  0  0  0  0  0
   -0.4526    0.9835    3.7538 H   0  0  0  0  0  0  0  0  0  0  0  0
   -0.4660    2.4102    5.7150 H   0  0  0  0  0  0  0  0  0  0  0  0
   -0.3711    2.9198    8.0341 H   0  0  0  0  0  0  0  0  0  0  0  0
    0.1124    4.5361    8.5987 H   0  0  0  0  0  0  0  0  0  0  0  0
   -0.4780    4.3370    6.9373 H   0  0  0  0  0  0  0  0  0  0  0  0
    3.8106    2.3811    5.7648 H   0  0  0  0  0  0  0  0  0  0  0  0
    3.8193    0.9665    3.7398 H   0  0  0  0  0  0  0  0  0  0  0  0
    2.8990   -1.3348    4.2219 H   0  0  0  0  0  0  0  0  0  0  0  0
    4.4681   -3.1370    3.7900 H   0  0  0  0  0  0  0  0  0  0  0  0
    6.7122   -5.7384    2.5290 H   0  0  0  0  0  0  0  0  0  0  0  0
    5.1901   -5.3276    3.3536 H   0  0  0  0  0  0  0  0  0  0  0  0
    6.5534   -4.1547    3.3218 H   0  0  0  0  0  0  0  0  0  0  0  0
    3.9190   -2.6125   -0.4149 H   0  0  0  0  0  0  0  0  0  0  0  0
    2.4055   -0.7390    0.0163 H   0  0  0  0  0  0  0  0  0  0  0  0
   -3.7480    0.6180   -4.2868 H   0  0  0  0  0  0  0  0  0  0  0  0
   -2.9047    0.6381   -6.5787 H   0  0  0  0  0  0  0  0  0  0  0  0
    1.3937   -1.4759   -7.3133 H   0  0  0  0  0  0  0  0  0  0  0  0
    1.8478    0.2486   -7.1278 H   0  0  0  0  0  0  0  0  0  0  0  0
    1.6167   -0.4513   -8.7482 H   0  0  0  0  0  0  0  0  0  0  0  0
    0.9237   -0.6404   -5.1704 H   0  0  0  0  0  0  0  0  0  0  0  0
    0.0877   -0.6929   -2.9161 H   0  0  0  0  0  0  0  0  0  0  0  0
   -3.8897   -0.7725   -0.0549 H   0  0  0  0  0  0  0  0  0  0  0  0
   -5.8247    0.4336    0.7821 H   0  0  0  0  0  0  0  0  0  0  0  0
   -8.6469    2.6142    1.5337 H   0  0  0  0  0  0  0  0  0  0  0  0
   -7.0182    2.0950    2.0150 H   0  0  0  0  0  0  0  0  0  0  0  0
   -8.0384    1.0386    0.9729 H   0  0  0  0  0  0  0  0  0  0  0  0
   -5.1943    3.4713   -2.1586 H   0  0  0  0  0  0  0  0  0  0  0  0
   -3.2004    2.2891   -2.9533 H   0  0  0  0  0  0  0  0  0  0  0  0
   -4.1806   -3.5490   -1.1890 H   0  0  0  0  0  0  0  0  0  0  0  0
   -6.2857   -2.6430   -0.3537 H   0  0  0  0  0  0  0  0  0  0  0  0
   -8.9683    0.0605   -3.4313 H   0  0  0  0  0  0  0  0  0  0  0  0
   -7.8649    1.2260   -2.6237 H   0  0  0  0  0  0  0  0  0  0  0  0
   -9.5156    0.9825   -2.0144 H   0  0  0  0  0  0  0  0  0  0  0  0
   -6.7377   -0.3785   -3.9479 H   0  0  0  0  0  0  0  0  0  0  0  0
   -4.6617   -1.2852   -4.7848 H   0  0  0  0  0  0  0  0  0  0  0  0
   -0.5360   -3.1065   -4.3397 H   0  0  0  0  0  0  0  0  0  0  0  0
    0.2100   -3.5204   -6.6399 H   0  0  0  0  0  0  0  0  0  0  0  0
   -3.2599   -3.2482  -10.1788 H   0  0  0  0  0  0  0  0  0  0  0  0
   -2.4086   -1.7918   -9.5700 H   0  0  0  0  0  0  0  0  0  0  0  0
   -1.8373   -2.6206  -11.0379 H   0  0  0  0  0  0  0  0  0  0  0  0
   -3.8550   -3.5865   -7.9365 H   0  0  0  0  0  0  0  0  0  0  0  0
   -4.6035   -3.2805   -5.6472 H   0  0  0  0  0  0  0  0  0  0  0  0
    1.6194   -6.4329   -1.5169 H   0  0  0  0  0  0  0  0  0  0  0  0
    2.8656   -5.4239    0.3726 H   0  0  0  0  0  0  0  0  0  0  0  0
    0.1739   -4.8832    3.8169 H   0  0  0  0  0  0  0  0  0  0  0  0
    1.4055   -3.7645    4.4555 H   0  0  0  0  0  0  0  0  0  0  0  0
    0.9468   -3.6867    2.7358 H   0  0  0  0  0  0  0  0  0  0  0  0
    0.3044   -7.4348    3.1316 H   0  0  0  0  0  0  0  0  0  0  0  0
   -0.9398   -8.4446    1.2537 H   0  0  0  0  0  0  0  0  0  0  0  0
   -2.9831   -9.0154   -1.6536 H   0  0  0  0  0  0  0  0  0  0  0  0
   -3.6305  -11.3423   -1.3010 H   0  0  0  0  0  0  0  0  0  0  0  0
   -3.3582  -13.4720   -2.4700 H   0  0  0  0  0  0  0  0  0  0  0  0
   -3.6142  -15.0191   -1.6231 H   0  0  0  0  0  0  0  0  0  0  0  0
   -4.3866  -13.5473   -0.9969 H   0  0  0  0  0  0  0  0  0  0  0  0
    0.4103  -12.3289   -0.3085 H   0  0  0  0  0  0  0  0  0  0  0  0
    1.0627   -9.9739   -0.6586 H   0  0  0  0  0  0  0  0  0  0  0  0
   -0.8532   -9.3855   -3.6234 H   0  0  0  0  0  0  0  0  0  0  0  0
   -1.1109   -6.5785   -9.1646 H   0  0  0  0  0  0  0  0  0  0  0  0
    0.0611   -6.4503  -11.2815 H   0  0  0  0  0  0  0  0  0  0  0  0
    1.2495   -7.6974  -11.7180 H   0  0  0  0  0  0  0  0  0  0  0  0
   -0.4467   -7.9262  -12.1145 H   0  0  0  0  0  0  0  0  0  0  0  0
    0.7687  -11.1409   -8.5035 H   0  0  0  0  0  0  0  0  0  0  0  0
  1  2  2  0  0  0  0
  2  3  1  0  0  0  0
  3  4  2  0  0  0  0
  3  5  1  0  0  0  0
  5  6  2  0  0  0  0
  6  7  1  0  0  0  0
  7  8  1  0  0  0  0
  7  9  2  0  0  0  0
  9 10  1  0  0  0  0
  9 11  1  0  0  0  0
 11 12  2  0  0  0  0
 12 13  1  0  0  0  0
 13 14  2  0  0  0  0
 14 15  1  0  0  0  0
 15 16  3  0  0  0  0
 14 17  1  0  0  0  0
 17 18  3  0  0  0  0
  1 19  1  0  0  0  0
 19 20  2  0  0  0  0
 20 21  1  0  0  0  0
 21 22  1  0  0  0  0
 22 23  2  0  0  0  0
 23 24  1  0  0  0  0
 24 25  2  0  0  0  0
 25 26  1  0  0  0  0
 26 27  1  0  0  0  0
 25 28  1  0  0  0  0
 28 29  2  0  0  0  0
 21 30  1  0  0  0  0
 30 31  2  0  0  0  0
 31 32  1  0  0  0  0
 32 33  2  0  0  0  0
 33 34  1  0  0  0  0
 34 35  1  0  0  0  0
 33 36  1  0  0  0  0
 36 37  2  0  0  0  0
 20 38  1  0  0  0  0
 38 39  1  0  0  0  0
 39 40  1  0  0  0  0
 40 41  2  0  0  0  0
 41 42  1  0  0  0  0
 42 43  1  0  0  0  0
 43 44  2  0  0  0  0
 44 45  1  0  0  0  0
 45 46  2  0  0  0  0
 46 47  1  0  0  0  0
 47 48  1  0  0  0  0
 46 49  1  0  0  0  0
 49 50  2  0  0  0  0
 42 51  1  0  0  0  0
 51 52  2  0  0  0  0
 52 53  1  0  0  0  0
 53 54  2  0  0  0  0
 54 55  1  0  0  0  0
 55 56  1  0  0  0  0
 54 57  1  0  0  0  0
 57 58  2  0  0  0  0
 41 59  1  0  0  0  0
 59 60  1  0  0  0  0
 40 61  1  0  0  0  0
 61 62  2  0  0  0  0
 62 63  1  0  0  0  0
 63 64  1  0  0  0  0
 64 65  2  0  0  0  0
 65 66  1  0  0  0  0
 66 67  2  0  0  0  0
 67 68  1  0  0  0  0
 68 69  1  0  0  0  0
 67 70  1  0  0  0  0
 70 71  2  0  0  0  0
 63 72  1  0  0  0  0
 72 73  2  0  0  0  0
 73 74  1  0  0  0  0
 74 75  2  0  0  0  0
 75 76  1  0  0  0  0
 76 77  1  0  0  0  0
 75 78  1  0  0  0  0
 78 79  2  0  0  0  0
 62 80  1  0  0  0  0
 80 81  1  0  0  0  0
 81 82  1  0  0  0  0
 82 83  2  0  0  0  0
 83 84  1  0  0  0  0
 84 85  1  0  0  0  0
 85 86  2  0  0  0  0
 86 87  1  0  0  0  0
 87 88  2  0  0  0  0
 88 89  1  0  0  0  0
 89 90  1  0  0  0  0
 88 91  1  0  0  0  0
 91 92  2  0  0  0  0
 84 93  1  0  0  0  0
 93 94  2  0  0  0  0
 94 95  1  0  0  0  0
 95 96  2  0  0  0  0
 96 97  1  0  0  0  0
 97 98  1  0  0  0  0
 96 99  1  0  0  0  0
 99100  2  0  0  0  0
 83101  1  0  0  0  0
101102  1  0  0  0  0
 82103  1  0  0  0  0
103104  2  0  0  0  0
104105  1  0  0  0  0
105106  1  0  0  0  0
106107  2  0  0  0  0
107108  1  0  0  0  0
108109  2  0  0  0  0
109110  1  0  0  0  0
110111  1  0  0  0  0
109112  1  0  0  0  0
112113  2  0  0  0  0
105114  1  0  0  0  0
114115  2  0  0  0  0
115116  1  0  0  0  0
116117  2  0  0  0  0
117118  1  0  0  0  0
118119  1  0  0  0  0
117120  1  0  0  0  0
120121  2  0  0  0  0
104122  1  0  0  0  0
122123  1  0  0  0  0
123124  1  0  0  0  0
124125  2  0  0  0  0
125126  1  0  0  0  0
126127  1  0  0  0  0
127128  2  0  0  0  0
128129  1  0  0  0  0
129130  2  0  0  0  0
130131  1  0  0  0  0
131132  1  0  0  0  0
130133  1  0  0  0  0
133134  2  0  0  0  0
126135  1  0  0  0  0
135136  2  0  0  0  0
136137  1  0  0  0  0
137138  2  0  0  0  0
138139  1  0  0  0  0
139140  1  0  0  0  0
138141  1  0  0  0  0
141142  2  0  0  0  0
125143  1  0  0  0  0
143144  1  0  0  0  0
124145  1  0  0  0  0
145146  2  0  0  0  0
146147  1  0  0  0  0
147148  2  0  0  0  0
147149  1  0  0  0  0
149150  2  0  0  0  0
150151  1  0  0  0  0
151152  1  0  0  0  0
151153  2  0  0  0  0
153154  1  0  0  0  0
153155  1  0  0  0  0
155156  2  0  0  0  0
156157  1  0  0  0  0
157158  2  0  0  0  0
158159  1  0  0  0  0
159160  3  0  0  0  0
158161  1  0  0  0  0
161162  3  0  0  0  0
 13  2  1  0  0  0  0
 60 19  1  0  0  0  0
102 61  1  0  0  0  0
144103  1  0  0  0  0
157146  1  0  0  0  0
 12  5  1  0  0  0  0
 29 22  1  0  0  0  0
 37 30  1  0  0  0  0
 59 38  2  0  0  0  0
 71 64  1  0  0  0  0
 79 72  1  0  0  0  0
101 80  2  0  0  0  0
113106  1  0  0  0  0
121114  1  0  0  0  0
143122  2  0  0  0  0
156149  1  0  0  0  0
 50 43  1  0  0  0  0
 58 51  1  0  0  0  0
 92 85  1  0  0  0  0
100 93  1  0  0  0  0
134127  1  0  0  0  0
142135  1  0  0  0  0
  1163  1  0  0  0  0
  6164  1  0  0  0  0
  8165  1  0  0  0  0
  8166  1  0  0  0  0
  8167  1  0  0  0  0
 11168  1  0  0  0  0
 23169  1  0  0  0  0
 24170  1  0  0  0  0
 27171  1  0  0  0  0
 27172  1  0  0  0  0
 27173  1  0  0  0  0
 28174  1  0  0  0  0
 29175  1  0  0  0  0
 31176  1  0  0  0  0
 32177  1  0  0  0  0
 35178  1  0  0  0  0
 35179  1  0  0  0  0
 35180  1  0  0  0  0
 36181  1  0  0  0  0
 37182  1  0  0  0  0
 44183  1  0  0  0  0
 45184  1  0  0  0  0
 48185  1  0  0  0  0
 48186  1  0  0  0  0
 48187  1  0  0  0  0
 49188  1  0  0  0  0
 50189  1  0  0  0  0
 52190  1  0  0  0  0
 53191  1  0  0  0  0
 56192  1  0  0  0  0
 56193  1  0  0  0  0
 56194  1  0  0  0  0
 57195  1  0  0  0  0
 58196  1  0  0  0  0
 65197  1  0  0  0  0
 66198  1  0  0  0  0
 69199  1  0  0  0  0
 69200  1  0  0  0  0
 69201  1  0  0  0  0
 70202  1  0  0  0  0
 71203  1  0  0  0  0
 73204  1  0  0  0  0
 74205  1  0  0  0  0
 77206  1  0  0  0  0
 77207  1  0  0  0  0
 77208  1  0  0  0  0
 78209  1  0  0  0  0
 79210  1  0  0  0  0
 86211  1  0  0  0  0
 87212  1  0  0  0  0
 90213  1  0  0  0  0
 90214  1  0  0  0  0
 90215  1  0  0  0  0
 91216  1  0  0  0  0
 92217  1  0  0  0  0
 94218  1  0  0  0  0
 95219  1  0  0  0  0
 98220  1  0  0  0  0
 98221  1  0  0  0  0
 98222  1  0  0  0  0
 99223  1  0  0  0  0
100224  1  0  0  0  0
107225  1  0  0  0  0
108226  1  0  0  0  0
111227  1  0  0  0  0
111228  1  0  0  0  0
111229  1  0  0  0  0
112230  1  0  0  0  0
113231  1  0  0  0  0
115232  1  0  0  0  0
116233  1  0  0  0  0
119234  1  0  0  0  0
119235  1  0  0  0  0
119236  1  0  0  0  0
120237  1  0  0  0  0
121238  1  0  0  0  0
128239  1  0  0  0  0
129240  1  0  0  0  0
132241  1  0  0  0  0
132242  1  0  0  0  0
132243  1  0  0  0  0
133244  1  0  0  0  0
134245  1  0  0  0  0
136246  1  0  0  0  0
137247  1  0  0  0  0
140248  1  0  0  0  0
140249  1  0  0  0  0
140250  1  0  0  0  0
141251  1  0  0  0  0
142252  1  0  0  0  0
145253  1  0  0  0  0
150254  1  0  0  0  0
152255  1  0  0  0  0
152256  1  0  0  0  0
152257  1  0  0  0  0
155258  1  0  0  0  0
M  END
