
  xtb     02112200353D
 energy: -263.461480688932 gnorm: 0.000584684203 xtb: 6.4.1 (unknown)
139154  0     0  0            999 V2000
    7.0649   -0.7074    1.8917 C   0  0  0  0  0  0  0  0  0  0  0  0
    7.3066   -2.0120    2.2409 C   0  0  0  0  0  0  0  0  0  0  0  0
    6.4227   -3.1483    1.9063 C   0  0  0  0  0  0  0  0  0  0  0  0
    5.3421   -3.1313    1.3490 O   0  0  0  0  0  0  0  0  0  0  0  0
    7.1966   -4.3611    2.2512 C   0  0  0  0  0  0  0  0  0  0  0  0
    6.8247   -5.6842    2.1193 C   0  0  0  0  0  0  0  0  0  0  0  0
    7.7155   -6.6869    2.4867 C   0  0  0  0  0  0  0  0  0  0  0  0
    7.3760   -8.1382    2.3804 C   0  0  0  0  0  0  0  0  0  0  0  0
    8.9652   -6.2938    2.9673 C   0  0  0  0  0  0  0  0  0  0  0  0
    9.8379   -7.2590    3.3173 F   0  0  0  0  0  0  0  0  0  0  0  0
    9.3667   -4.9746    3.1041 C   0  0  0  0  0  0  0  0  0  0  0  0
    8.4609   -3.9923    2.7391 C   0  0  0  0  0  0  0  0  0  0  0  0
    8.5453   -2.5345    2.7650 C   0  0  0  0  0  0  0  0  0  0  0  0
    9.5753   -1.7972    3.2927 C   0  0  0  0  0  0  0  0  0  0  0  0
   10.7632   -2.3564    3.8037 C   0  0  0  0  0  0  0  0  0  0  0  0
   11.7537   -2.7596    4.2221 N   0  0  0  0  0  0  0  0  0  0  0  0
    9.5605   -0.3943    3.4336 C   0  0  0  0  0  0  0  0  0  0  0  0
    9.6087    0.7385    3.6182 N   0  0  0  0  0  0  0  0  0  0  0  0
    5.7926   -0.1686    1.6028 C   0  0  0  0  0  0  0  0  0  0  0  0
    5.6310    0.8770    0.6630 C   0  0  0  0  0  0  0  0  0  0  0  0
    4.3374    1.3808    0.2447 C   0  0  0  0  0  0  0  0  0  0  0  0
    4.4535    2.2446   -0.7636 N   0  0  0  0  0  0  0  0  0  0  0  0
    6.0096    2.4420   -1.1193 S   0  0  0  0  0  4  0  0  0  0  0  0
    6.6223    1.4229   -0.0380 N   0  0  0  0  0  0  0  0  0  0  0  0
    3.1287    0.9157    0.8166 C   0  0  0  0  0  0  0  0  0  0  0  0
    3.3109   -0.0780    1.8132 C   0  0  0  0  0  0  0  0  0  0  0  0
    2.3160   -0.6315    2.5072 N   0  0  0  0  0  0  0  0  0  0  0  0
    2.9270   -1.6827    3.5617 S   0  0  0  0  0  0  0  0  0  0  0  0
    4.4748   -1.4864    3.1990 N   0  0  0  0  0  0  0  0  0  0  0  0
    4.5920   -0.6052    2.2048 C   0  0  0  0  0  0  0  0  0  0  0  0
    1.8180    1.2427    0.4079 C   0  0  0  0  0  0  0  0  0  0  0  0
    1.3145    2.2436   -0.4528 C   0  0  0  0  0  0  0  0  0  0  0  0
    1.9278    3.4151   -0.8110 N   0  0  0  0  0  0  0  0  0  0  0  0
    2.8209    4.0959    0.0123 C   0  0  0  0  0  0  0  0  0  0  0  0
    3.7598    4.9715   -0.5459 C   0  0  0  0  0  0  0  0  0  0  0  0
    4.6733    5.6162    0.2521 C   0  0  0  0  0  0  0  0  0  0  0  0
    4.6805    5.4140    1.6336 C   0  0  0  0  0  0  0  0  0  0  0  0
    5.9227    6.2591    2.5473 S   0  0  0  0  0  0  0  0  0  0  0  0
    5.8435    5.5040    4.1957 C   0  0  0  0  0  0  0  0  0  0  0  0
    3.7177    4.5860    2.1992 C   0  0  0  0  0  0  0  0  0  0  0  0
    2.7946    3.9451    1.3986 C   0  0  0  0  0  0  0  0  0  0  0  0
    1.5846    3.9613   -2.0653 C   0  0  0  0  0  0  0  0  0  0  0  0
    1.6436    3.1603   -3.2051 C   0  0  0  0  0  0  0  0  0  0  0  0
    1.2818    3.6745   -4.4287 C   0  0  0  0  0  0  0  0  0  0  0  0
    0.8513    4.9970   -4.5400 C   0  0  0  0  0  0  0  0  0  0  0  0
    0.3979    5.5344   -6.1532 S   0  0  0  0  0  0  0  0  0  0  0  0
   -0.1995    7.2305   -5.9038 C   0  0  0  0  0  0  0  0  0  0  0  0
    0.8073    5.8004   -3.4067 C   0  0  0  0  0  0  0  0  0  0  0  0
    1.1719    5.2840   -2.1789 C   0  0  0  0  0  0  0  0  0  0  0  0
   -0.0036    1.9270   -0.8612 C   0  0  0  0  0  0  0  0  0  0  0  0
   -1.1676    2.6702   -1.9210 S   0  0  0  0  0  0  0  0  0  0  0  0
   -2.3006    1.3703   -1.6095 C   0  0  0  0  0  0  0  0  0  0  0  0
   -1.8492    0.4849   -0.6256 C   0  0  0  0  0  0  0  0  0  0  0  0
   -2.5972   -0.4862    0.0001 N   0  0  0  0  0  0  0  0  0  0  0  0
   -3.9747   -0.3653    0.1926 C   0  0  0  0  0  0  0  0  0  0  0  0
   -4.7784   -1.5033    0.2645 C   0  0  0  0  0  0  0  0  0  0  0  0
   -6.1474   -1.3872    0.3734 C   0  0  0  0  0  0  0  0  0  0  0  0
   -6.7494   -0.1305    0.3778 C   0  0  0  0  0  0  0  0  0  0  0  0
   -8.5106   -0.0731    0.3714 S   0  0  0  0  0  0  0  0  0  0  0  0
   -8.8875    1.6597   -0.0225 C   0  0  0  0  0  0  0  0  0  0  0  0
   -5.9493    1.0063    0.3892 C   0  0  0  0  0  0  0  0  0  0  0  0
   -4.5782    0.8870    0.3211 C   0  0  0  0  0  0  0  0  0  0  0  0
   -1.8743   -1.5461    0.5816 C   0  0  0  0  0  0  0  0  0  0  0  0
   -2.0140   -1.8530    1.9344 C   0  0  0  0  0  0  0  0  0  0  0  0
   -1.1396   -2.7347    2.5284 C   0  0  0  0  0  0  0  0  0  0  0  0
   -0.1212   -3.3308    1.7848 C   0  0  0  0  0  0  0  0  0  0  0  0
    1.0415   -4.3088    2.6779 S   0  0  0  0  0  0  0  0  0  0  0  0
    2.4051   -4.5519    1.5057 C   0  0  0  0  0  0  0  0  0  0  0  0
   -0.0561   -3.1157    0.4140 C   0  0  0  0  0  0  0  0  0  0  0  0
   -0.9275   -2.2250   -0.1809 C   0  0  0  0  0  0  0  0  0  0  0  0
   -0.5265    0.7974   -0.2499 C   0  0  0  0  0  0  0  0  0  0  0  0
    0.5688    0.1015    0.8900 S   0  0  0  0  0  0  0  0  0  0  0  0
   -3.5339    1.2685   -2.3047 C   0  0  0  0  0  0  0  0  0  0  0  0
   -4.3630    2.3721   -2.5814 C   0  0  0  0  0  0  0  0  0  0  0  0
   -5.7495    2.1996   -2.9637 C   0  0  0  0  0  0  0  0  0  0  0  0
   -6.3911    3.3673   -3.0001 N   0  0  0  0  0  0  0  0  0  0  0  0
   -5.3633    4.5506   -2.6442 S   0  0  0  0  0  4  0  0  0  0  0  0
   -4.0568    3.6540   -2.3775 N   0  0  0  0  0  0  0  0  0  0  0  0
   -6.3385    0.9289   -3.1748 C   0  0  0  0  0  0  0  0  0  0  0  0
   -5.4110   -0.1344   -3.1953 C   0  0  0  0  0  0  0  0  0  0  0  0
   -5.6210   -1.3642   -3.6603 N   0  0  0  0  0  0  0  0  0  0  0  0
   -4.3148   -2.2522   -3.4126 S   0  0  0  0  0  0  0  0  0  0  0  0
   -3.3803   -1.1268   -2.7455 N   0  0  0  0  0  0  0  0  0  0  0  0
   -4.0636    0.0195   -2.6934 C   0  0  0  0  0  0  0  0  0  0  0  0
   -7.7458    0.8475   -3.3244 C   0  0  0  0  0  0  0  0  0  0  0  0
   -8.5986   -0.1849   -3.0571 C   0  0  0  0  0  0  0  0  0  0  0  0
   -8.2925   -1.4827   -2.3905 C   0  0  0  0  0  0  0  0  0  0  0  0
   -7.2279   -1.9003   -1.9807 O   0  0  0  0  0  0  0  0  0  0  0  0
   -9.5920   -2.1362   -2.2783 C   0  0  0  0  0  0  0  0  0  0  0  0
  -10.1701   -3.6097   -1.6378 S   0  0  0  0  0  0  0  0  0  0  0  0
  -11.8059   -3.1690   -2.0600 C   0  0  0  0  0  0  0  0  0  0  0  0
  -12.9225   -4.1001   -1.7604 C   0  0  0  0  0  0  0  0  0  0  0  0
  -11.8802   -1.9425   -2.6559 C   0  0  0  0  0  0  0  0  0  0  0  0
  -10.6111   -1.3431   -2.7805 C   0  0  0  0  0  0  0  0  0  0  0  0
  -10.0377   -0.1128   -3.2820 C   0  0  0  0  0  0  0  0  0  0  0  0
  -10.7623    0.8928   -3.8678 C   0  0  0  0  0  0  0  0  0  0  0  0
  -12.1637    0.8049   -4.0057 C   0  0  0  0  0  0  0  0  0  0  0  0
  -13.3047    0.7640   -4.1243 N   0  0  0  0  0  0  0  0  0  0  0  0
  -10.2659    2.1002   -4.3984 C   0  0  0  0  0  0  0  0  0  0  0  0
   -9.9628    3.1078   -4.8600 N   0  0  0  0  0  0  0  0  0  0  0  0
    7.8990   -0.0292    1.7600 H   0  0  0  0  0  0  0  0  0  0  0  0
    5.8476   -5.9331    1.7332 H   0  0  0  0  0  0  0  0  0  0  0  0
    7.4588   -8.6158    3.3563 H   0  0  0  0  0  0  0  0  0  0  0  0
    6.3668   -8.2731    2.0019 H   0  0  0  0  0  0  0  0  0  0  0  0
    8.0771   -8.6401    1.7142 H   0  0  0  0  0  0  0  0  0  0  0  0
   10.3540   -4.7571    3.4771 H   0  0  0  0  0  0  0  0  0  0  0  0
    3.7932    5.1042   -1.6157 H   0  0  0  0  0  0  0  0  0  0  0  0
    5.4100    6.2733   -0.1833 H   0  0  0  0  0  0  0  0  0  0  0  0
    6.6904    5.9075    4.7423 H   0  0  0  0  0  0  0  0  0  0  0  0
    4.9191    5.7817    4.6947 H   0  0  0  0  0  0  0  0  0  0  0  0
    5.9415    4.4259    4.1091 H   0  0  0  0  0  0  0  0  0  0  0  0
    3.6706    4.4378    3.2661 H   0  0  0  0  0  0  0  0  0  0  0  0
    2.0447    3.3209    1.8601 H   0  0  0  0  0  0  0  0  0  0  0  0
    1.9819    2.1392   -3.1164 H   0  0  0  0  0  0  0  0  0  0  0  0
    1.3271    3.0619   -5.3157 H   0  0  0  0  0  0  0  0  0  0  0  0
    0.6120    7.8667   -5.5628 H   0  0  0  0  0  0  0  0  0  0  0  0
   -1.0278    7.2304   -5.2016 H   0  0  0  0  0  0  0  0  0  0  0  0
   -0.5425    7.5640   -6.8782 H   0  0  0  0  0  0  0  0  0  0  0  0
    0.4841    6.8267   -3.4635 H   0  0  0  0  0  0  0  0  0  0  0  0
    1.1274    5.9070   -1.2980 H   0  0  0  0  0  0  0  0  0  0  0  0
   -4.3220   -2.4799    0.2081 H   0  0  0  0  0  0  0  0  0  0  0  0
   -6.7635   -2.2699    0.4218 H   0  0  0  0  0  0  0  0  0  0  0  0
   -8.6490    2.2992    0.8224 H   0  0  0  0  0  0  0  0  0  0  0  0
   -9.9564    1.6915   -0.2114 H   0  0  0  0  0  0  0  0  0  0  0  0
   -8.3447    1.9608   -0.9147 H   0  0  0  0  0  0  0  0  0  0  0  0
   -6.3830    1.9910    0.4641 H   0  0  0  0  0  0  0  0  0  0  0  0
   -3.9691    1.7779    0.3582 H   0  0  0  0  0  0  0  0  0  0  0  0
   -2.7752   -1.3588    2.5192 H   0  0  0  0  0  0  0  0  0  0  0  0
   -1.2072   -2.9425    3.5849 H   0  0  0  0  0  0  0  0  0  0  0  0
    2.1099   -5.2440    0.7221 H   0  0  0  0  0  0  0  0  0  0  0  0
    2.7248   -3.5997    1.0943 H   0  0  0  0  0  0  0  0  0  0  0  0
    3.2171   -4.9776    2.0869 H   0  0  0  0  0  0  0  0  0  0  0  0
    0.6824   -3.6139   -0.1926 H   0  0  0  0  0  0  0  0  0  0  0  0
   -0.8656   -2.0225   -1.2398 H   0  0  0  0  0  0  0  0  0  0  0  0
   -8.1896    1.7912   -3.6227 H   0  0  0  0  0  0  0  0  0  0  0  0
  -12.7670   -5.0575   -2.2567 H   0  0  0  0  0  0  0  0  0  0  0  0
  -12.9873   -4.2889   -0.6892 H   0  0  0  0  0  0  0  0  0  0  0  0
  -13.8633   -3.6752   -2.1007 H   0  0  0  0  0  0  0  0  0  0  0  0
  -12.8040   -1.5025   -2.9830 H   0  0  0  0  0  0  0  0  0  0  0  0
  1  2  2  0  0  0  0
  2  3  1  0  0  0  0
  3  4  2  0  0  0  0
  3  5  1  0  0  0  0
  5  6  2  0  0  0  0
  6  7  1  0  0  0  0
  7  8  1  0  0  0  0
  7  9  2  0  0  0  0
  9 10  1  0  0  0  0
  9 11  1  0  0  0  0
 11 12  2  0  0  0  0
 12 13  1  0  0  0  0
 13 14  2  0  0  0  0
 14 15  1  0  0  0  0
 15 16  3  0  0  0  0
 14 17  1  0  0  0  0
 17 18  3  0  0  0  0
  1 19  1  0  0  0  0
 19 20  2  0  0  0  0
 20 21  1  0  0  0  0
 21 22  1  0  0  0  0
 22 23  2  0  0  0  0
 23 24  2  0  0  0  0
 21 25  2  0  0  0  0
 25 26  1  0  0  0  0
 26 27  2  0  0  0  0
 27 28  1  0  0  0  0
 28 29  1  0  0  0  0
 29 30  2  0  0  0  0
 25 31  1  0  0  0  0
 31 32  2  0  0  0  0
 32 33  1  0  0  0  0
 33 34  1  0  0  0  0
 34 35  2  0  0  0  0
 35 36  1  0  0  0  0
 36 37  2  0  0  0  0
 37 38  1  0  0  0  0
 38 39  1  0  0  0  0
 37 40  1  0  0  0  0
 40 41  2  0  0  0  0
 33 42  1  0  0  0  0
 42 43  2  0  0  0  0
 43 44  1  0  0  0  0
 44 45  2  0  0  0  0
 45 46  1  0  0  0  0
 46 47  1  0  0  0  0
 45 48  1  0  0  0  0
 48 49  2  0  0  0  0
 32 50  1  0  0  0  0
 50 51  1  0  0  0  0
 51 52  1  0  0  0  0
 52 53  2  0  0  0  0
 53 54  1  0  0  0  0
 54 55  1  0  0  0  0
 55 56  2  0  0  0  0
 56 57  1  0  0  0  0
 57 58  2  0  0  0  0
 58 59  1  0  0  0  0
 59 60  1  0  0  0  0
 58 61  1  0  0  0  0
 61 62  2  0  0  0  0
 54 63  1  0  0  0  0
 63 64  2  0  0  0  0
 64 65  1  0  0  0  0
 65 66  2  0  0  0  0
 66 67  1  0  0  0  0
 67 68  1  0  0  0  0
 66 69  1  0  0  0  0
 69 70  2  0  0  0  0
 53 71  1  0  0  0  0
 71 72  1  0  0  0  0
 52 73  1  0  0  0  0
 73 74  2  0  0  0  0
 74 75  1  0  0  0  0
 75 76  1  0  0  0  0
 76 77  2  0  0  0  0
 77 78  2  0  0  0  0
 75 79  2  0  0  0  0
 79 80  1  0  0  0  0
 80 81  2  0  0  0  0
 81 82  1  0  0  0  0
 82 83  1  0  0  0  0
 83 84  2  0  0  0  0
 79 85  1  0  0  0  0
 85 86  2  0  0  0  0
 86 87  1  0  0  0  0
 87 88  2  0  0  0  0
 87 89  1  0  0  0  0
 89 90  1  0  0  0  0
 90 91  1  0  0  0  0
 91 92  1  0  0  0  0
 91 93  2  0  0  0  0
 93 94  1  0  0  0  0
 94 95  1  0  0  0  0
 95 96  2  0  0  0  0
 96 97  1  0  0  0  0
 97 98  3  0  0  0  0
 96 99  1  0  0  0  0
 99100  3  0  0  0  0
 13  2  1  0  0  0  0
 30 19  1  0  0  0  0
 72 31  1  0  0  0  0
 84 73  1  0  0  0  0
 95 86  1  0  0  0  0
 12  5  1  0  0  0  0
 24 20  1  0  0  0  0
 30 26  1  0  0  0  0
 41 34  1  0  0  0  0
 49 42  1  0  0  0  0
 71 50  2  0  0  0  0
 78 74  1  0  0  0  0
 84 80  1  0  0  0  0
 94 89  2  0  0  0  0
 62 55  1  0  0  0  0
 70 63  1  0  0  0  0
  1101  1  0  0  0  0
  6102  1  0  0  0  0
  8103  1  0  0  0  0
  8104  1  0  0  0  0
  8105  1  0  0  0  0
 11106  1  0  0  0  0
 35107  1  0  0  0  0
 36108  1  0  0  0  0
 39109  1  0  0  0  0
 39110  1  0  0  0  0
 39111  1  0  0  0  0
 40112  1  0  0  0  0
 41113  1  0  0  0  0
 43114  1  0  0  0  0
 44115  1  0  0  0  0
 47116  1  0  0  0  0
 47117  1  0  0  0  0
 47118  1  0  0  0  0
 48119  1  0  0  0  0
 49120  1  0  0  0  0
 56121  1  0  0  0  0
 57122  1  0  0  0  0
 60123  1  0  0  0  0
 60124  1  0  0  0  0
 60125  1  0  0  0  0
 61126  1  0  0  0  0
 62127  1  0  0  0  0
 64128  1  0  0  0  0
 65129  1  0  0  0  0
 68130  1  0  0  0  0
 68131  1  0  0  0  0
 68132  1  0  0  0  0
 69133  1  0  0  0  0
 70134  1  0  0  0  0
 85135  1  0  0  0  0
 92136  1  0  0  0  0
 92137  1  0  0  0  0
 92138  1  0  0  0  0
 93139  1  0  0  0  0
M  END
