
  xtb     02102220093D
 energy: -316.137329641937 gnorm: 0.000676456638 xtb: 6.4.1 (unknown)
169186  0     0  0            999 V2000
    7.7436   -6.3049   -2.2279 C   0  0  0  0  0  0  0  0  0  0  0  0
    7.8318   -7.5203   -1.6030 C   0  0  0  0  0  0  0  0  0  0  0  0
    7.0320   -7.9190   -0.4228 C   0  0  0  0  0  0  0  0  0  0  0  0
    6.1624   -7.2909    0.1456 O   0  0  0  0  0  0  0  0  0  0  0  0
    7.6257   -9.1928    0.0402 C   0  0  0  0  0  0  0  0  0  0  0  0
    7.2503   -9.9730    1.1155 C   0  0  0  0  0  0  0  0  0  0  0  0
    7.9660  -11.1295    1.4057 C   0  0  0  0  0  0  0  0  0  0  0  0
    7.6135  -12.0235    2.5499 C   0  0  0  0  0  0  0  0  0  0  0  0
    9.0499  -11.4396    0.5832 C   0  0  0  0  0  0  0  0  0  0  0  0
    9.7546  -12.5542    0.8622 F   0  0  0  0  0  0  0  0  0  0  0  0
    9.4505  -10.6727   -0.4989 C   0  0  0  0  0  0  0  0  0  0  0  0
    8.7207   -9.5273   -0.7730 C   0  0  0  0  0  0  0  0  0  0  0  0
    8.8583   -8.5143   -1.8160 C   0  0  0  0  0  0  0  0  0  0  0  0
    9.7444   -8.5559   -2.8623 C   0  0  0  0  0  0  0  0  0  0  0  0
    9.7772   -7.6288   -3.9247 C   0  0  0  0  0  0  0  0  0  0  0  0
    9.8507   -6.9399   -4.8408 N   0  0  0  0  0  0  0  0  0  0  0  0
   10.7206   -9.5586   -3.0285 C   0  0  0  0  0  0  0  0  0  0  0  0
   11.5386  -10.3438   -3.2102 N   0  0  0  0  0  0  0  0  0  0  0  0
    6.6340   -5.4285   -2.1782 C   0  0  0  0  0  0  0  0  0  0  0  0
    6.8124   -4.0284   -2.2222 C   0  0  0  0  0  0  0  0  0  0  0  0
    5.7095   -3.1069   -2.1057 C   0  0  0  0  0  0  0  0  0  0  0  0
    6.1226   -1.8404   -2.0826 N   0  0  0  0  0  0  0  0  0  0  0  0
    7.7280   -1.8045   -2.2013 S   0  0  0  0  0  4  0  0  0  0  0  0
    7.9819   -3.3890   -2.2756 N   0  0  0  0  0  0  0  0  0  0  0  0
    4.3545   -3.5126   -2.0251 C   0  0  0  0  0  0  0  0  0  0  0  0
    4.1748   -4.9157   -2.0059 C   0  0  0  0  0  0  0  0  0  0  0  0
    3.0125   -5.5555   -1.8681 N   0  0  0  0  0  0  0  0  0  0  0  0
    3.2787   -7.1401   -1.9082 S   0  0  0  0  0  0  0  0  0  0  0  0
    4.8685   -7.1077   -2.1032 N   0  0  0  0  0  0  0  0  0  0  0  0
    5.2860   -5.8440   -2.0960 C   0  0  0  0  0  0  0  0  0  0  0  0
    3.3429   -2.5390   -1.8700 C   0  0  0  0  0  0  0  0  0  0  0  0
    1.9414   -2.6311   -1.9829 C   0  0  0  0  0  0  0  0  0  0  0  0
    1.2359   -3.5762   -2.6765 N   0  0  0  0  0  0  0  0  0  0  0  0
    1.7651   -4.2463   -3.7821 C   0  0  0  0  0  0  0  0  0  0  0  0
    2.7336   -3.6581   -4.5990 C   0  0  0  0  0  0  0  0  0  0  0  0
    3.2728   -4.3585   -5.6521 C   0  0  0  0  0  0  0  0  0  0  0  0
    2.8530   -5.6601   -5.9324 C   0  0  0  0  0  0  0  0  0  0  0  0
    3.6469   -6.4624   -7.2794 S   0  0  0  0  0  0  0  0  0  0  0  0
    2.9706   -8.1463   -7.2514 C   0  0  0  0  0  0  0  0  0  0  0  0
    1.8485   -6.2284   -5.1565 C   0  0  0  0  0  0  0  0  0  0  0  0
    1.3091   -5.5255   -4.0997 C   0  0  0  0  0  0  0  0  0  0  0  0
   -0.1181   -3.7764   -2.3456 C   0  0  0  0  0  0  0  0  0  0  0  0
   -1.0992   -3.7307   -3.3366 C   0  0  0  0  0  0  0  0  0  0  0  0
   -2.4259   -3.8594   -2.9980 C   0  0  0  0  0  0  0  0  0  0  0  0
   -2.8039   -4.0404   -1.6664 C   0  0  0  0  0  0  0  0  0  0  0  0
   -4.5308   -4.1552   -1.3550 S   0  0  0  0  0  0  0  0  0  0  0  0
   -4.6569   -4.0391    0.4509 C   0  0  0  0  0  0  0  0  0  0  0  0
   -1.8249   -4.1272   -0.6839 C   0  0  0  0  0  0  0  0  0  0  0  0
   -0.4924   -3.9938   -1.0232 C   0  0  0  0  0  0  0  0  0  0  0  0
    1.3283   -1.4954   -1.3988 C   0  0  0  0  0  0  0  0  0  0  0  0
   -0.3155   -1.0288   -1.1221 S   0  0  0  0  0  0  0  0  0  0  0  0
    0.2169    0.4896   -0.4155 C   0  0  0  0  0  0  0  0  0  0  0  0
    1.5952    0.6624   -0.4892 C   0  0  0  0  0  0  0  0  0  0  0  0
    2.2776    1.8267   -0.2067 N   0  0  0  0  0  0  0  0  0  0  0  0
    3.6454    1.7426    0.1078 C   0  0  0  0  0  0  0  0  0  0  0  0
    4.5701    2.5691   -0.5286 C   0  0  0  0  0  0  0  0  0  0  0  0
    5.9170    2.3914   -0.3083 C   0  0  0  0  0  0  0  0  0  0  0  0
    6.3664    1.3910    0.5520 C   0  0  0  0  0  0  0  0  0  0  0  0
    8.1125    1.1765    0.6866 S   0  0  0  0  0  0  0  0  0  0  0  0
    8.2683   -0.4960    1.3785 C   0  0  0  0  0  0  0  0  0  0  0  0
    5.4453    0.6222    1.2493 C   0  0  0  0  0  0  0  0  0  0  0  0
    4.0936    0.7985    1.0265 C   0  0  0  0  0  0  0  0  0  0  0  0
    1.6647    3.0779   -0.3616 C   0  0  0  0  0  0  0  0  0  0  0  0
    0.7131    3.2953   -1.3561 C   0  0  0  0  0  0  0  0  0  0  0  0
   -0.0433    4.4497   -1.3680 C   0  0  0  0  0  0  0  0  0  0  0  0
    0.1631    5.4246   -0.4007 C   0  0  0  0  0  0  0  0  0  0  0  0
   -0.8580    6.8516   -0.2145 S   0  0  0  0  0  0  0  0  0  0  0  0
   -2.3141    6.4604   -1.2258 C   0  0  0  0  0  0  0  0  0  0  0  0
    1.2192    5.2780    0.4974 C   0  0  0  0  0  0  0  0  0  0  0  0
    1.9586    4.1155    0.5241 C   0  0  0  0  0  0  0  0  0  0  0  0
    2.2134   -0.5059   -1.0017 C   0  0  0  0  0  0  0  0  0  0  0  0
    3.8575   -0.9487   -1.3148 S   0  0  0  0  0  0  0  0  0  0  0  0
   -0.7901    1.3629    0.0910 C   0  0  0  0  0  0  0  0  0  0  0  0
   -2.0290    1.5456   -0.4518 C   0  0  0  0  0  0  0  0  0  0  0  0
   -2.8004    2.5211    0.2141 C   0  0  0  0  0  0  0  0  0  0  0  0
   -4.0950    2.9564   -0.1278 C   0  0  0  0  0  0  0  0  0  0  0  0
   -4.8564    2.2630   -1.1499 C   0  0  0  0  0  0  0  0  0  0  0  0
   -5.6458    3.1104   -2.4473 S   0  0  0  0  0  0  0  0  0  0  0  0
   -6.2381    1.6434   -3.1494 C   0  0  0  0  0  0  0  0  0  0  0  0
   -7.1026    1.6697   -4.3604 C   0  0  0  0  0  0  0  0  0  0  0  0
   -8.5493    2.0045   -3.9895 C   0  0  0  0  0  0  0  0  0  0  0  0
   -5.8508    0.5684   -2.4054 C   0  0  0  0  0  0  0  0  0  0  0  0
   -6.2485   -1.0605   -2.7797 Cl  0  0  0  0  0  0  0  0  0  0  0  0
   -5.0644    0.9157   -1.2753 C   0  0  0  0  0  0  0  0  0  0  0  0
   -4.5160   -0.2569   -0.1519 Cl  0  0  0  0  0  0  0  0  0  0  0  0
   -4.5812    4.0575    0.5611 C   0  0  0  0  0  0  0  0  0  0  0  0
   -3.8715    4.6728    1.6314 C   0  0  0  0  0  0  0  0  0  0  0  0
   -2.6226    4.1520    2.0602 C   0  0  0  0  0  0  0  0  0  0  0  0
   -1.9384    4.6679    3.2205 C   0  0  0  0  0  0  0  0  0  0  0  0
   -0.5878    4.7658    3.4385 C   0  0  0  0  0  0  0  0  0  0  0  0
   -0.2654    5.2828    4.7031 C   0  0  0  0  0  0  0  0  0  0  0  0
   -1.3580    5.5644    5.4709 C   0  0  0  0  0  0  0  0  0  0  0  0
   -1.4011    6.0868    6.8645 C   0  0  0  0  0  0  0  0  0  0  0  0
   -1.8230    4.9983    7.8539 C   0  0  0  0  0  0  0  0  0  0  0  0
   -2.8189    5.2020    4.6278 S   0  0  0  0  0  0  0  0  0  0  0  0
   -2.1057    3.1073    1.3014 C   0  0  0  0  0  0  0  0  0  0  0  0
   -0.5580    2.3350    1.5287 S   0  0  0  0  0  0  0  0  0  0  0  0
   -4.5422    5.8054    2.1216 C   0  0  0  0  0  0  0  0  0  0  0  0
   -5.7491    6.0537    1.5074 C   0  0  0  0  0  0  0  0  0  0  0  0
   -6.0885    4.8565    0.2531 S   0  0  0  0  0  0  0  0  0  0  0  0
   -6.7141    7.0651    1.6775 C   0  0  0  0  0  0  0  0  0  0  0  0
   -6.8159    8.0901    2.5823 C   0  0  0  0  0  0  0  0  0  0  0  0
   -5.9603    8.3820    3.7529 C   0  0  0  0  0  0  0  0  0  0  0  0
   -4.9128    7.8729    4.0903 O   0  0  0  0  0  0  0  0  0  0  0  0
   -6.6511    9.4644    4.4888 C   0  0  0  0  0  0  0  0  0  0  0  0
   -6.2729   10.0537    5.6790 C   0  0  0  0  0  0  0  0  0  0  0  0
   -7.0863   11.0522    6.1882 C   0  0  0  0  0  0  0  0  0  0  0  0
   -6.7610   11.6507    7.3406 F   0  0  0  0  0  0  0  0  0  0  0  0
   -8.2436   11.4384    5.5110 C   0  0  0  0  0  0  0  0  0  0  0  0
   -9.0138   12.4022    6.0277 F   0  0  0  0  0  0  0  0  0  0  0  0
   -8.6201   10.8485    4.3137 C   0  0  0  0  0  0  0  0  0  0  0  0
   -7.8100    9.8482    3.7975 C   0  0  0  0  0  0  0  0  0  0  0  0
   -7.9131    9.0458    2.5793 C   0  0  0  0  0  0  0  0  0  0  0  0
   -8.8566    9.2309    1.6033 C   0  0  0  0  0  0  0  0  0  0  0  0
   -9.8934   10.1865    1.6802 C   0  0  0  0  0  0  0  0  0  0  0  0
  -10.7637   10.9345    1.6788 N   0  0  0  0  0  0  0  0  0  0  0  0
   -8.9360    8.5453    0.3712 C   0  0  0  0  0  0  0  0  0  0  0  0
   -9.0726    8.0623   -0.6617 N   0  0  0  0  0  0  0  0  0  0  0  0
    8.6029   -5.9242   -2.7669 H   0  0  0  0  0  0  0  0  0  0  0  0
    6.4049   -9.6819    1.7205 H   0  0  0  0  0  0  0  0  0  0  0  0
    8.4636  -12.1238    3.2239 H   0  0  0  0  0  0  0  0  0  0  0  0
    7.3692  -13.0212    2.1865 H   0  0  0  0  0  0  0  0  0  0  0  0
    6.7656  -11.6284    3.1019 H   0  0  0  0  0  0  0  0  0  0  0  0
   10.3053  -10.9804   -1.0783 H   0  0  0  0  0  0  0  0  0  0  0  0
    3.0622   -2.6480   -4.4091 H   0  0  0  0  0  0  0  0  0  0  0  0
    4.0284   -3.9069   -6.2762 H   0  0  0  0  0  0  0  0  0  0  0  0
    1.9053   -8.1264   -7.4620 H   0  0  0  0  0  0  0  0  0  0  0  0
    3.1785   -8.6114   -6.2923 H   0  0  0  0  0  0  0  0  0  0  0  0
    3.4907   -8.6806   -8.0404 H   0  0  0  0  0  0  0  0  0  0  0  0
    1.4849   -7.2226   -5.3587 H   0  0  0  0  0  0  0  0  0  0  0  0
    0.5509   -5.9851   -3.4846 H   0  0  0  0  0  0  0  0  0  0  0  0
   -0.8114   -3.5713   -4.3650 H   0  0  0  0  0  0  0  0  0  0  0  0
   -3.1920   -3.8038   -3.7558 H   0  0  0  0  0  0  0  0  0  0  0  0
   -4.1434   -3.1462    0.7944 H   0  0  0  0  0  0  0  0  0  0  0  0
   -5.7183   -3.9596    0.6648 H   0  0  0  0  0  0  0  0  0  0  0  0
   -4.2548   -4.9342    0.9166 H   0  0  0  0  0  0  0  0  0  0  0  0
   -2.0863   -4.2975    0.3477 H   0  0  0  0  0  0  0  0  0  0  0  0
    0.2710   -4.0621   -0.2628 H   0  0  0  0  0  0  0  0  0  0  0  0
    4.2245    3.3246   -1.2183 H   0  0  0  0  0  0  0  0  0  0  0  0
    6.6403    3.0058   -0.8214 H   0  0  0  0  0  0  0  0  0  0  0  0
    8.0315   -0.4920    2.4386 H   0  0  0  0  0  0  0  0  0  0  0  0
    7.6189   -1.1736    0.8324 H   0  0  0  0  0  0  0  0  0  0  0  0
    9.3065   -0.7801    1.2375 H   0  0  0  0  0  0  0  0  0  0  0  0
    5.7653   -0.1217    1.9606 H   0  0  0  0  0  0  0  0  0  0  0  0
    3.3762    0.1902    1.5576 H   0  0  0  0  0  0  0  0  0  0  0  0
    0.5405    2.5406   -2.1086 H   0  0  0  0  0  0  0  0  0  0  0  0
   -0.7955    4.5723   -2.1305 H   0  0  0  0  0  0  0  0  0  0  0  0
   -2.0731    6.5342   -2.2824 H   0  0  0  0  0  0  0  0  0  0  0  0
   -3.0598    7.2062   -0.9684 H   0  0  0  0  0  0  0  0  0  0  0  0
   -2.6795    5.4691   -0.9739 H   0  0  0  0  0  0  0  0  0  0  0  0
    1.4227    6.0728    1.1985 H   0  0  0  0  0  0  0  0  0  0  0  0
    2.7381    3.9824    1.2591 H   0  0  0  0  0  0  0  0  0  0  0  0
   -2.3418    1.0440   -1.3496 H   0  0  0  0  0  0  0  0  0  0  0  0
   -6.7265    2.4185   -5.0600 H   0  0  0  0  0  0  0  0  0  0  0  0
   -7.0622    0.6900   -4.8394 H   0  0  0  0  0  0  0  0  0  0  0  0
   -8.9452    1.2586   -3.3049 H   0  0  0  0  0  0  0  0  0  0  0  0
   -8.6000    2.9792   -3.5102 H   0  0  0  0  0  0  0  0  0  0  0  0
   -9.1682    2.0216   -4.8823 H   0  0  0  0  0  0  0  0  0  0  0  0
    0.1494    4.5202    2.6969 H   0  0  0  0  0  0  0  0  0  0  0  0
    0.7445    5.4448    5.0358 H   0  0  0  0  0  0  0  0  0  0  0  0
   -0.4113    6.4633    7.1306 H   0  0  0  0  0  0  0  0  0  0  0  0
   -2.1113    6.9151    6.9206 H   0  0  0  0  0  0  0  0  0  0  0  0
   -2.8141    4.6264    7.6040 H   0  0  0  0  0  0  0  0  0  0  0  0
   -1.1231    4.1663    7.8227 H   0  0  0  0  0  0  0  0  0  0  0  0
   -1.8452    5.3967    8.8649 H   0  0  0  0  0  0  0  0  0  0  0  0
   -4.1570    6.4510    2.8876 H   0  0  0  0  0  0  0  0  0  0  0  0
   -7.5268    6.9867    0.9648 H   0  0  0  0  0  0  0  0  0  0  0  0
   -5.3771    9.7500    6.1966 H   0  0  0  0  0  0  0  0  0  0  0  0
   -9.5242   11.1839    3.8335 H   0  0  0  0  0  0  0  0  0  0  0  0
  1  2  2  0  0  0  0
  2  3  1  0  0  0  0
  3  4  2  0  0  0  0
  3  5  1  0  0  0  0
  5  6  2  0  0  0  0
  6  7  1  0  0  0  0
  7  8  1  0  0  0  0
  7  9  2  0  0  0  0
  9 10  1  0  0  0  0
  9 11  1  0  0  0  0
 11 12  2  0  0  0  0
 12 13  1  0  0  0  0
 13 14  2  0  0  0  0
 14 15  1  0  0  0  0
 15 16  3  0  0  0  0
 14 17  1  0  0  0  0
 17 18  3  0  0  0  0
  1 19  1  0  0  0  0
 19 20  2  0  0  0  0
 20 21  1  0  0  0  0
 21 22  1  0  0  0  0
 22 23  2  0  0  0  0
 23 24  2  0  0  0  0
 21 25  2  0  0  0  0
 25 26  1  0  0  0  0
 26 27  2  0  0  0  0
 27 28  1  0  0  0  0
 28 29  1  0  0  0  0
 29 30  2  0  0  0  0
 25 31  1  0  0  0  0
 31 32  2  0  0  0  0
 32 33  1  0  0  0  0
 33 34  1  0  0  0  0
 34 35  2  0  0  0  0
 35 36  1  0  0  0  0
 36 37  2  0  0  0  0
 37 38  1  0  0  0  0
 38 39  1  0  0  0  0
 37 40  1  0  0  0  0
 40 41  2  0  0  0  0
 33 42  1  0  0  0  0
 42 43  2  0  0  0  0
 43 44  1  0  0  0  0
 44 45  2  0  0  0  0
 45 46  1  0  0  0  0
 46 47  1  0  0  0  0
 45 48  1  0  0  0  0
 48 49  2  0  0  0  0
 32 50  1  0  0  0  0
 50 51  1  0  0  0  0
 51 52  1  0  0  0  0
 52 53  2  0  0  0  0
 53 54  1  0  0  0  0
 54 55  1  0  0  0  0
 55 56  2  0  0  0  0
 56 57  1  0  0  0  0
 57 58  2  0  0  0  0
 58 59  1  0  0  0  0
 59 60  1  0  0  0  0
 58 61  1  0  0  0  0
 61 62  2  0  0  0  0
 54 63  1  0  0  0  0
 63 64  2  0  0  0  0
 64 65  1  0  0  0  0
 65 66  2  0  0  0  0
 66 67  1  0  0  0  0
 67 68  1  0  0  0  0
 66 69  1  0  0  0  0
 69 70  2  0  0  0  0
 53 71  1  0  0  0  0
 71 72  1  0  0  0  0
 52 73  1  0  0  0  0
 73 74  2  0  0  0  0
 74 75  1  0  0  0  0
 75 76  2  0  0  0  0
 76 77  1  0  0  0  0
 77 78  1  0  0  0  0
 78 79  1  0  0  0  0
 79 80  1  0  0  0  0
 80 81  1  0  0  0  0
 79 82  2  0  0  0  0
 82 83  1  0  0  0  0
 82 84  1  0  0  0  0
 84 85  1  0  0  0  0
 76 86  1  0  0  0  0
 86 87  2  0  0  0  0
 87 88  1  0  0  0  0
 88 89  1  0  0  0  0
 89 90  2  0  0  0  0
 90 91  1  0  0  0  0
 91 92  2  0  0  0  0
 92 93  1  0  0  0  0
 93 94  1  0  0  0  0
 92 95  1  0  0  0  0
 88 96  2  0  0  0  0
 96 97  1  0  0  0  0
 87 98  1  0  0  0  0
 98 99  2  0  0  0  0
 99100  1  0  0  0  0
 99101  1  0  0  0  0
101102  2  0  0  0  0
102103  1  0  0  0  0
103104  2  0  0  0  0
103105  1  0  0  0  0
105106  2  0  0  0  0
106107  1  0  0  0  0
107108  1  0  0  0  0
107109  2  0  0  0  0
109110  1  0  0  0  0
109111  1  0  0  0  0
111112  2  0  0  0  0
112113  1  0  0  0  0
113114  2  0  0  0  0
114115  1  0  0  0  0
115116  3  0  0  0  0
114117  1  0  0  0  0
117118  3  0  0  0  0
 13  2  1  0  0  0  0
 30 19  1  0  0  0  0
 72 31  1  0  0  0  0
 97 73  1  0  0  0  0
113102  1  0  0  0  0
 12  5  1  0  0  0  0
 24 20  1  0  0  0  0
 30 26  1  0  0  0  0
 41 34  1  0  0  0  0
 49 42  1  0  0  0  0
 71 50  2  0  0  0  0
 96 75  1  0  0  0  0
112105  1  0  0  0  0
 62 55  1  0  0  0  0
 70 63  1  0  0  0  0
 84 77  2  0  0  0  0
100 86  1  0  0  0  0
 95 89  1  0  0  0  0
  1119  1  0  0  0  0
  6120  1  0  0  0  0
  8121  1  0  0  0  0
  8122  1  0  0  0  0
  8123  1  0  0  0  0
 11124  1  0  0  0  0
 35125  1  0  0  0  0
 36126  1  0  0  0  0
 39127  1  0  0  0  0
 39128  1  0  0  0  0
 39129  1  0  0  0  0
 40130  1  0  0  0  0
 41131  1  0  0  0  0
 43132  1  0  0  0  0
 44133  1  0  0  0  0
 47134  1  0  0  0  0
 47135  1  0  0  0  0
 47136  1  0  0  0  0
 48137  1  0  0  0  0
 49138  1  0  0  0  0
 56139  1  0  0  0  0
 57140  1  0  0  0  0
 60141  1  0  0  0  0
 60142  1  0  0  0  0
 60143  1  0  0  0  0
 61144  1  0  0  0  0
 62145  1  0  0  0  0
 64146  1  0  0  0  0
 65147  1  0  0  0  0
 68148  1  0  0  0  0
 68149  1  0  0  0  0
 68150  1  0  0  0  0
 69151  1  0  0  0  0
 70152  1  0  0  0  0
 74153  1  0  0  0  0
 80154  1  0  0  0  0
 80155  1  0  0  0  0
 81156  1  0  0  0  0
 81157  1  0  0  0  0
 81158  1  0  0  0  0
 90159  1  0  0  0  0
 91160  1  0  0  0  0
 93161  1  0  0  0  0
 93162  1  0  0  0  0
 94163  1  0  0  0  0
 94164  1  0  0  0  0
 94165  1  0  0  0  0
 98166  1  0  0  0  0
101167  1  0  0  0  0
106168  1  0  0  0  0
111169  1  0  0  0  0
M  END
