
  xtb     02102220233D
 energy: -273.876026490617 gnorm: 0.000665809192 xtb: 6.4.1 (unknown)
147162  0     0  0            999 V2000
   -6.8100   -7.3976   -2.4019 C   0  0  0  0  0  0  0  0  0  0  0  0
   -6.7576   -8.5325   -1.6593 C   0  0  0  0  0  0  0  0  0  0  0  0
   -5.5875   -9.0228   -0.8744 C   0  0  0  0  0  0  0  0  0  0  0  0
   -4.5244   -8.4743   -0.6919 O   0  0  0  0  0  0  0  0  0  0  0  0
   -5.9544  -10.3814   -0.4312 C   0  0  0  0  0  0  0  0  0  0  0  0
   -5.2014  -11.2620    0.3221 C   0  0  0  0  0  0  0  0  0  0  0  0
   -5.7250  -12.5087    0.6419 C   0  0  0  0  0  0  0  0  0  0  0  0
   -4.9753  -13.5076    1.4595 C   0  0  0  0  0  0  0  0  0  0  0  0
   -7.0049  -12.8107    0.1680 C   0  0  0  0  0  0  0  0  0  0  0  0
   -7.5175  -14.0173    0.4676 F   0  0  0  0  0  0  0  0  0  0  0  0
   -7.7782  -11.9487   -0.5910 C   0  0  0  0  0  0  0  0  0  0  0  0
   -7.2401  -10.7065   -0.8943 C   0  0  0  0  0  0  0  0  0  0  0  0
   -7.7740   -9.5785   -1.6477 C   0  0  0  0  0  0  0  0  0  0  0  0
   -9.0305   -9.5066   -2.1846 C   0  0  0  0  0  0  0  0  0  0  0  0
   -9.5763   -8.3942   -2.8615 C   0  0  0  0  0  0  0  0  0  0  0  0
  -10.1038   -7.5362   -3.4130 N   0  0  0  0  0  0  0  0  0  0  0  0
   -9.9778  -10.5522   -2.1203 C   0  0  0  0  0  0  0  0  0  0  0  0
  -10.7892  -11.3633   -2.1087 N   0  0  0  0  0  0  0  0  0  0  0  0
   -5.9084   -6.2739   -2.3877 C   0  0  0  0  0  0  0  0  0  0  0  0
   -5.2458   -5.8469   -1.2235 C   0  0  0  0  0  0  0  0  0  0  0  0
   -4.4324   -4.7429   -1.2962 C   0  0  0  0  0  0  0  0  0  0  0  0
   -3.6359   -4.0977   -0.2199 C   0  0  0  0  0  0  0  0  0  0  0  0
   -3.5398   -4.4332    0.9377 O   0  0  0  0  0  0  0  0  0  0  0  0
   -2.9694   -2.9530   -0.8925 C   0  0  0  0  0  0  0  0  0  0  0  0
   -3.3404   -2.9231   -2.2510 C   0  0  0  0  0  0  0  0  0  0  0  0
   -4.2479   -4.0327   -2.5022 C   0  0  0  0  0  0  0  0  0  0  0  0
   -4.9168   -4.4339   -3.6450 C   0  0  0  0  0  0  0  0  0  0  0  0
   -5.7501   -5.5373   -3.5707 C   0  0  0  0  0  0  0  0  0  0  0  0
   -2.8510   -1.9190   -3.0669 C   0  0  0  0  0  0  0  0  0  0  0  0
   -1.9845   -0.9820   -2.5259 C   0  0  0  0  0  0  0  0  0  0  0  0
   -1.5858   -1.0244   -1.1842 C   0  0  0  0  0  0  0  0  0  0  0  0
   -2.1157   -2.0222   -0.3534 C   0  0  0  0  0  0  0  0  0  0  0  0
   -0.6462   -0.0349   -0.6929 C   0  0  0  0  0  0  0  0  0  0  0  0
    0.4361   -0.1651    0.1612 C   0  0  0  0  0  0  0  0  0  0  0  0
    0.8858   -1.3338    0.7822 N   0  0  0  0  0  0  0  0  0  0  0  0
    0.1203   -1.9345    1.7883 C   0  0  0  0  0  0  0  0  0  0  0  0
    0.0897   -3.3228    1.9183 C   0  0  0  0  0  0  0  0  0  0  0  0
   -0.7391   -3.9200    2.8443 C   0  0  0  0  0  0  0  0  0  0  0  0
   -1.5529   -3.1403    3.6589 C   0  0  0  0  0  0  0  0  0  0  0  0
   -2.6687   -3.8275    4.8383 S   0  0  0  0  0  0  0  0  0  0  0  0
   -3.0429   -5.4541    4.1222 C   0  0  0  0  0  0  0  0  0  0  0  0
   -1.4906   -1.7524    3.5648 C   0  0  0  0  0  0  0  0  0  0  0  0
   -0.6630   -1.1531    2.6397 C   0  0  0  0  0  0  0  0  0  0  0  0
    2.2151   -1.7014    0.5609 C   0  0  0  0  0  0  0  0  0  0  0  0
    2.9827   -2.2913    1.5621 C   0  0  0  0  0  0  0  0  0  0  0  0
    4.2954   -2.6494    1.3275 C   0  0  0  0  0  0  0  0  0  0  0  0
    4.8733   -2.4121    0.0876 C   0  0  0  0  0  0  0  0  0  0  0  0
    6.5374   -2.8222   -0.3327 S   0  0  0  0  0  0  0  0  0  0  0  0
    7.2183   -3.5258    1.1955 C   0  0  0  0  0  0  0  0  0  0  0  0
    4.1123   -1.8134   -0.9152 C   0  0  0  0  0  0  0  0  0  0  0  0
    2.8012   -1.4666   -0.6855 C   0  0  0  0  0  0  0  0  0  0  0  0
    1.1564    1.0512    0.2670 C   0  0  0  0  0  0  0  0  0  0  0  0
    2.5256    1.5367    1.2052 S   0  0  0  0  0  0  0  0  0  0  0  0
    2.4112    3.1556    0.5455 C   0  0  0  0  0  0  0  0  0  0  0  0
    1.3011    3.3280   -0.2857 C   0  0  0  0  0  0  0  0  0  0  0  0
    0.8190    4.5408   -0.7235 N   0  0  0  0  0  0  0  0  0  0  0  0
    1.0473    5.6971    0.0388 C   0  0  0  0  0  0  0  0  0  0  0  0
    1.4000    6.9007   -0.5718 C   0  0  0  0  0  0  0  0  0  0  0  0
    1.8028    7.9724    0.1935 C   0  0  0  0  0  0  0  0  0  0  0  0
    1.8505    7.8758    1.5844 C   0  0  0  0  0  0  0  0  0  0  0  0
    2.5169    9.2473    2.4603 S   0  0  0  0  0  0  0  0  0  0  0  0
    2.6596    8.6412    4.1635 C   0  0  0  0  0  0  0  0  0  0  0  0
    1.3849    6.7167    2.1965 C   0  0  0  0  0  0  0  0  0  0  0  0
    0.9854    5.6426    1.4294 C   0  0  0  0  0  0  0  0  0  0  0  0
    0.1359    4.6130   -1.9404 C   0  0  0  0  0  0  0  0  0  0  0  0
    0.5367    3.8258   -3.0218 C   0  0  0  0  0  0  0  0  0  0  0  0
   -0.1577    3.8771   -4.2081 C   0  0  0  0  0  0  0  0  0  0  0  0
   -1.2617    4.7182   -4.3478 C   0  0  0  0  0  0  0  0  0  0  0  0
   -2.0789    4.6802   -5.9088 S   0  0  0  0  0  0  0  0  0  0  0  0
   -3.3992    5.9150   -5.7495 C   0  0  0  0  0  0  0  0  0  0  0  0
   -1.6482    5.5199   -3.2808 C   0  0  0  0  0  0  0  0  0  0  0  0
   -0.9553    5.4652   -2.0880 C   0  0  0  0  0  0  0  0  0  0  0  0
    0.6212    2.0993   -0.4626 C   0  0  0  0  0  0  0  0  0  0  0  0
   -0.7889    1.5988   -1.3267 S   0  0  0  0  0  0  0  0  0  0  0  0
    3.3684    4.1459    0.9133 C   0  0  0  0  0  0  0  0  0  0  0  0
    3.8683    5.0976    0.0026 C   0  0  0  0  0  0  0  0  0  0  0  0
    4.7351    6.1858    0.4022 C   0  0  0  0  0  0  0  0  0  0  0  0
    5.0223    6.9802   -0.6280 N   0  0  0  0  0  0  0  0  0  0  0  0
    4.3628    6.3811   -1.9580 S   0  0  0  0  0  4  0  0  0  0  0  0
    3.6219    5.1149   -1.3108 N   0  0  0  0  0  0  0  0  0  0  0  0
    5.1434    6.3758    1.7408 C   0  0  0  0  0  0  0  0  0  0  0  0
    4.6234    5.4289    2.6530 C   0  0  0  0  0  0  0  0  0  0  0  0
    4.8196    5.4317    3.9717 N   0  0  0  0  0  0  0  0  0  0  0  0
    4.0748    4.1609    4.6203 S   0  0  0  0  0  0  0  0  0  0  0  0
    3.4582    3.5397    3.2750 N   0  0  0  0  0  0  0  0  0  0  0  0
    3.8145    4.3025    2.2397 C   0  0  0  0  0  0  0  0  0  0  0  0
    5.9532    7.4449    2.1936 C   0  0  0  0  0  0  0  0  0  0  0  0
    6.9398    8.0617    1.4702 C   0  0  0  0  0  0  0  0  0  0  0  0
    7.6220    7.4600    0.3030 C   0  0  0  0  0  0  0  0  0  0  0  0
    7.4797    6.3514   -0.1656 O   0  0  0  0  0  0  0  0  0  0  0  0
    8.6612    8.4403   -0.0909 C   0  0  0  0  0  0  0  0  0  0  0  0
    9.5541    8.3667   -1.1388 C   0  0  0  0  0  0  0  0  0  0  0  0
   10.4628    9.4054   -1.3085 C   0  0  0  0  0  0  0  0  0  0  0  0
   11.5837    9.3543   -2.6107 Cl  0  0  0  0  0  0  0  0  0  0  0  0
   10.4594   10.4818   -0.4194 C   0  0  0  0  0  0  0  0  0  0  0  0
   11.7001   11.8916   -0.6461 Br  0  0  0  0  0  0  0  0  0  0  0  0
    9.5660   10.5502    0.6429 C   0  0  0  0  0  0  0  0  0  0  0  0
    8.6564    9.5189    0.8086 C   0  0  0  0  0  0  0  0  0  0  0  0
    7.6097    9.2974    1.8061 C   0  0  0  0  0  0  0  0  0  0  0  0
    7.3075   10.1524    2.8356 C   0  0  0  0  0  0  0  0  0  0  0  0
    6.2909    9.9615    3.7917 C   0  0  0  0  0  0  0  0  0  0  0  0
    5.4948    9.9010    4.6179 N   0  0  0  0  0  0  0  0  0  0  0  0
    7.9930   11.3590    3.0886 C   0  0  0  0  0  0  0  0  0  0  0  0
    8.5102   12.3508    3.3477 N   0  0  0  0  0  0  0  0  0  0  0  0
   -7.6150   -7.3092   -3.1220 H   0  0  0  0  0  0  0  0  0  0  0  0
   -4.2173  -10.9726    0.6581 H   0  0  0  0  0  0  0  0  0  0  0  0
   -4.8654  -14.4396    0.9062 H   0  0  0  0  0  0  0  0  0  0  0  0
   -3.9919  -13.1311    1.7247 H   0  0  0  0  0  0  0  0  0  0  0  0
   -5.5277  -13.7369    2.3704 H   0  0  0  0  0  0  0  0  0  0  0  0
   -8.7543  -12.2660   -0.9183 H   0  0  0  0  0  0  0  0  0  0  0  0
   -5.3914   -6.3480   -0.2813 H   0  0  0  0  0  0  0  0  0  0  0  0
   -4.8029   -3.8978   -4.5749 H   0  0  0  0  0  0  0  0  0  0  0  0
   -6.2824   -5.8579   -4.4549 H   0  0  0  0  0  0  0  0  0  0  0  0
   -3.1285   -1.8602   -4.1083 H   0  0  0  0  0  0  0  0  0  0  0  0
   -1.5921   -0.1994   -3.1592 H   0  0  0  0  0  0  0  0  0  0  0  0
   -1.8937   -2.0506    0.6978 H   0  0  0  0  0  0  0  0  0  0  0  0
    0.7009   -3.9296    1.2672 H   0  0  0  0  0  0  0  0  0  0  0  0
   -0.7592   -4.9951    2.9141 H   0  0  0  0  0  0  0  0  0  0  0  0
   -3.2281   -5.3333    3.0595 H   0  0  0  0  0  0  0  0  0  0  0  0
   -2.2288   -6.1482    4.3115 H   0  0  0  0  0  0  0  0  0  0  0  0
   -3.9412   -5.7991    4.6248 H   0  0  0  0  0  0  0  0  0  0  0  0
   -2.1064   -1.1523    4.2166 H   0  0  0  0  0  0  0  0  0  0  0  0
   -0.6312   -0.0768    2.5550 H   0  0  0  0  0  0  0  0  0  0  0  0
    2.5515   -2.4614    2.5371 H   0  0  0  0  0  0  0  0  0  0  0  0
    4.8583   -3.1025    2.1274 H   0  0  0  0  0  0  0  0  0  0  0  0
    7.1824   -2.7882    1.9917 H   0  0  0  0  0  0  0  0  0  0  0  0
    6.6761   -4.4275    1.4651 H   0  0  0  0  0  0  0  0  0  0  0  0
    8.2508   -3.7719    0.9678 H   0  0  0  0  0  0  0  0  0  0  0  0
    4.5639   -1.6318   -1.8783 H   0  0  0  0  0  0  0  0  0  0  0  0
    2.2180   -1.0159   -1.4748 H   0  0  0  0  0  0  0  0  0  0  0  0
    1.3998    6.9699   -1.6495 H   0  0  0  0  0  0  0  0  0  0  0  0
    2.1197    8.8902   -0.2771 H   0  0  0  0  0  0  0  0  0  0  0  0
    3.2030    7.7011    4.1737 H   0  0  0  0  0  0  0  0  0  0  0  0
    1.6744    8.5410    4.6098 H   0  0  0  0  0  0  0  0  0  0  0  0
    3.2371    9.3952    4.6896 H   0  0  0  0  0  0  0  0  0  0  0  0
    1.3350    6.6377    3.2704 H   0  0  0  0  0  0  0  0  0  0  0  0
    0.6476    4.7387    1.9151 H   0  0  0  0  0  0  0  0  0  0  0  0
    1.4078    3.1964   -2.9255 H   0  0  0  0  0  0  0  0  0  0  0  0
    0.1497    3.2733   -5.0479 H   0  0  0  0  0  0  0  0  0  0  0  0
   -4.0946    5.6190   -4.9696 H   0  0  0  0  0  0  0  0  0  0  0  0
   -3.9059    5.9247   -6.7095 H   0  0  0  0  0  0  0  0  0  0  0  0
   -2.9710    6.8928   -5.5497 H   0  0  0  0  0  0  0  0  0  0  0  0
   -2.4929    6.1845   -3.3599 H   0  0  0  0  0  0  0  0  0  0  0  0
   -1.2668    6.0814   -1.2576 H   0  0  0  0  0  0  0  0  0  0  0  0
    5.7818    7.7497    3.2186 H   0  0  0  0  0  0  0  0  0  0  0  0
    9.5435    7.5239   -1.8115 H   0  0  0  0  0  0  0  0  0  0  0  0
    9.6041   11.3964    1.3097 H   0  0  0  0  0  0  0  0  0  0  0  0
  1  2  2  0  0  0  0
  2  3  1  0  0  0  0
  3  4  2  0  0  0  0
  3  5  1  0  0  0  0
  5  6  2  0  0  0  0
  6  7  1  0  0  0  0
  7  8  1  0  0  0  0
  7  9  2  0  0  0  0
  9 10  1  0  0  0  0
  9 11  1  0  0  0  0
 11 12  2  0  0  0  0
 12 13  1  0  0  0  0
 13 14  2  0  0  0  0
 14 15  1  0  0  0  0
 15 16  3  0  0  0  0
 14 17  1  0  0  0  0
 17 18  3  0  0  0  0
  1 19  1  0  0  0  0
 19 20  2  0  0  0  0
 20 21  1  0  0  0  0
 21 22  1  0  0  0  0
 22 23  2  0  0  0  0
 22 24  1  0  0  0  0
 24 25  2  0  0  0  0
 25 26  1  0  0  0  0
 26 27  1  0  0  0  0
 27 28  2  0  0  0  0
 25 29  1  0  0  0  0
 29 30  2  0  0  0  0
 30 31  1  0  0  0  0
 31 32  2  0  0  0  0
 31 33  1  0  0  0  0
 33 34  2  0  0  0  0
 34 35  1  0  0  0  0
 35 36  1  0  0  0  0
 36 37  2  0  0  0  0
 37 38  1  0  0  0  0
 38 39  2  0  0  0  0
 39 40  1  0  0  0  0
 40 41  1  0  0  0  0
 39 42  1  0  0  0  0
 42 43  2  0  0  0  0
 35 44  1  0  0  0  0
 44 45  2  0  0  0  0
 45 46  1  0  0  0  0
 46 47  2  0  0  0  0
 47 48  1  0  0  0  0
 48 49  1  0  0  0  0
 47 50  1  0  0  0  0
 50 51  2  0  0  0  0
 34 52  1  0  0  0  0
 52 53  1  0  0  0  0
 53 54  1  0  0  0  0
 54 55  2  0  0  0  0
 55 56  1  0  0  0  0
 56 57  1  0  0  0  0
 57 58  2  0  0  0  0
 58 59  1  0  0  0  0
 59 60  2  0  0  0  0
 60 61  1  0  0  0  0
 61 62  1  0  0  0  0
 60 63  1  0  0  0  0
 63 64  2  0  0  0  0
 56 65  1  0  0  0  0
 65 66  2  0  0  0  0
 66 67  1  0  0  0  0
 67 68  2  0  0  0  0
 68 69  1  0  0  0  0
 69 70  1  0  0  0  0
 68 71  1  0  0  0  0
 71 72  2  0  0  0  0
 55 73  1  0  0  0  0
 73 74  1  0  0  0  0
 54 75  1  0  0  0  0
 75 76  2  0  0  0  0
 76 77  1  0  0  0  0
 77 78  1  0  0  0  0
 78 79  2  0  0  0  0
 79 80  2  0  0  0  0
 77 81  2  0  0  0  0
 81 82  1  0  0  0  0
 82 83  2  0  0  0  0
 83 84  1  0  0  0  0
 84 85  1  0  0  0  0
 85 86  2  0  0  0  0
 81 87  1  0  0  0  0
 87 88  2  0  0  0  0
 88 89  1  0  0  0  0
 89 90  2  0  0  0  0
 89 91  1  0  0  0  0
 91 92  2  0  0  0  0
 92 93  1  0  0  0  0
 93 94  1  0  0  0  0
 93 95  2  0  0  0  0
 95 96  1  0  0  0  0
 95 97  1  0  0  0  0
 97 98  2  0  0  0  0
 98 99  1  0  0  0  0
 99100  2  0  0  0  0
100101  1  0  0  0  0
101102  3  0  0  0  0
100103  1  0  0  0  0
103104  3  0  0  0  0
 13  2  1  0  0  0  0
 28 19  1  0  0  0  0
 74 33  1  0  0  0  0
 86 75  1  0  0  0  0
 99 88  1  0  0  0  0
 12  5  1  0  0  0  0
 26 21  2  0  0  0  0
 43 36  1  0  0  0  0
 51 44  1  0  0  0  0
 73 52  2  0  0  0  0
 80 76  1  0  0  0  0
 86 82  1  0  0  0  0
 98 91  1  0  0  0  0
 32 24  1  0  0  0  0
 64 57  1  0  0  0  0
 72 65  1  0  0  0  0
  1105  1  0  0  0  0
  6106  1  0  0  0  0
  8107  1  0  0  0  0
  8108  1  0  0  0  0
  8109  1  0  0  0  0
 11110  1  0  0  0  0
 20111  1  0  0  0  0
 27112  1  0  0  0  0
 28113  1  0  0  0  0
 29114  1  0  0  0  0
 30115  1  0  0  0  0
 32116  1  0  0  0  0
 37117  1  0  0  0  0
 38118  1  0  0  0  0
 41119  1  0  0  0  0
 41120  1  0  0  0  0
 41121  1  0  0  0  0
 42122  1  0  0  0  0
 43123  1  0  0  0  0
 45124  1  0  0  0  0
 46125  1  0  0  0  0
 49126  1  0  0  0  0
 49127  1  0  0  0  0
 49128  1  0  0  0  0
 50129  1  0  0  0  0
 51130  1  0  0  0  0
 58131  1  0  0  0  0
 59132  1  0  0  0  0
 62133  1  0  0  0  0
 62134  1  0  0  0  0
 62135  1  0  0  0  0
 63136  1  0  0  0  0
 64137  1  0  0  0  0
 66138  1  0  0  0  0
 67139  1  0  0  0  0
 70140  1  0  0  0  0
 70141  1  0  0  0  0
 70142  1  0  0  0  0
 71143  1  0  0  0  0
 72144  1  0  0  0  0
 87145  1  0  0  0  0
 92146  1  0  0  0  0
 97147  1  0  0  0  0
M  END
