147

C         -6.06450        5.46670        3.11630
C         -5.72550        6.61190        3.78660
C         -6.80510        7.38140        4.45730
O         -8.00010        7.23960        4.32150
C         -6.10730        8.32120        5.36210
C         -6.64520        9.19510        6.28500
C         -5.79760        9.98320        7.05700
C         -6.31170       10.95000        8.07410
C         -4.42520        9.84560        6.84970
F         -3.59370       10.59780        7.59980
C         -3.85940        8.98380        5.92350
C         -4.72010        8.20620        5.16750
C         -4.47120        7.23960        4.09810
C         -3.29070        7.12240        3.40180
C         -2.07800        7.69690        3.82030
N         -1.05080        8.09100        4.15390
C         -3.17100        6.44900        2.17160
N         -3.03580        5.94040        1.15010
C         -5.28970        4.36020        2.70980
C         -4.00890        4.00320        3.18310
C         -3.28160        2.88330        2.64220
N         -2.08120        2.75120        3.20660
S         -1.87840        3.90760        4.30040
N         -3.31080        4.61730        4.14420
C         -3.76210        2.03500        1.61470
C         -5.06560        2.36250        1.17040
N         -5.72820        1.78160        0.17170
S         -7.14390        2.52020       -0.02490
N         -6.98720        3.62570        1.13130
C         -5.80920        3.47400        1.72960
C         -2.87760        1.10690        1.02380
C         -3.07760        0.11350        0.04260
N         -4.26270       -0.50530       -0.26040
C         -4.46350       -0.92650       -1.58580
C         -4.95870       -2.19960       -1.86810
C         -5.13750       -2.59460       -3.17360
C         -4.82560       -1.73220       -4.22580
S         -5.10540       -2.35300       -5.84930
C         -4.53170       -1.01970       -6.93900
C         -4.33300       -0.46360       -3.94610
C         -4.15420       -0.06730       -2.63580
C         -5.23040       -0.76160        0.71040
C         -6.57450       -0.87650        0.35390
C         -7.54270       -1.12250        1.30460
C         -7.18860       -1.26590        2.64110
S         -8.32770       -1.56980        3.94730
C         -9.94260       -1.63400        3.12120
C         -5.84330       -1.17350        3.00030
C         -4.87780       -0.93070        2.05170
C         -1.84400       -0.25550       -0.54780
S         -1.35840       -1.34410       -1.81100
C          0.32460       -0.89120       -1.58930
C          0.49850        0.00180       -0.54400
N          1.69980        0.50260       -0.06360
C          1.63530        1.76940        0.54620
C          0.95000        2.80210       -0.09820
C          0.65140        3.96390        0.57560
C          1.04300        4.12220        1.90400
S          0.39110        5.54000        2.72710
C          1.31640        5.63070        4.28540
C          1.83470        3.15120        2.50480
C          2.13210        1.98360        1.82810
C          2.85970       -0.27580       -0.04060
C          4.10390        0.31200       -0.27210
C          5.22660       -0.47420       -0.40640
C          5.13740       -1.86230       -0.31340
S          6.60870       -2.78020       -0.64130
C          6.12180       -4.50600       -0.38390
C          3.91670       -2.44340        0.00510
C          2.79450       -1.65470        0.14940
C         -0.74460        0.35560        0.03020
S         -1.17320        1.35630        1.37020
C          1.38800       -1.49020       -2.36800
C          1.43520       -2.87690       -2.56460
C          2.59100       -3.42690       -3.06680
C          2.95310       -4.86020       -3.22950
O          2.25650       -5.82830       -3.04280
C          4.38140       -4.83150       -3.65350
C          4.80090       -3.49060       -3.78700
C          3.69370       -2.62320       -3.42220
C          3.60140       -1.24610       -3.34300
C          2.45010       -0.69280       -2.81060
C          6.09600       -3.20650       -4.18240
C          6.95650       -4.26170       -4.43240
C          6.56520       -5.59480       -4.24970
C          5.24160       -5.87920       -3.86910
C          7.51560       -6.64400       -4.51670
C          7.63530       -7.81780       -3.84360
C          7.05800       -8.09520       -2.50020
O          6.34980       -7.38210       -1.82590
C          7.62940       -9.39600       -2.09150
C          7.41050      -10.09120       -0.91960
C          8.05820      -11.30770       -0.74010
Cl         7.80340      -12.20710        0.70010
C          8.91440      -11.79160       -1.73490
Br         9.80130      -13.44250       -1.48720
C          9.13770      -11.08930       -2.91210
C          8.48690       -9.87890       -3.09510
C          8.50400       -8.93000       -4.20280
C          9.16460       -9.10080       -5.38890
C          9.11940       -8.20970       -6.48340
N          9.12330       -7.54580       -7.41990
C          9.97750      -10.21640       -5.68680
N         10.65510      -11.09390       -5.98200
H         -7.12440        5.37140        2.89790
H         -7.71620        9.26190        6.40100
H         -5.86210       10.75020        9.04600
H         -7.39230       10.88180        8.15900
H         -6.04120       11.96790        7.79450
H         -2.78720        8.93800        5.82780
H         -5.19050       -2.87480       -1.05830
H         -5.51390       -3.58020       -3.39970
H         -5.13980       -0.13150       -6.79510
H         -4.66260       -1.39400       -7.94950
H         -3.48100       -0.81690       -6.75430
H         -4.09230        0.22810       -4.73670
H         -3.78710        0.92410       -2.41620
H         -6.86410       -0.74070       -0.67640
H         -8.57170       -1.19040        0.99100
H        -10.66390       -1.82700        3.90920
H         -9.95960       -2.44550        2.39990
H        -10.15780       -0.67920        2.65120
H         -5.56770       -1.30340        4.03550
H         -3.84170       -0.88010        2.34930
H          0.60740        2.66030       -1.11280
H          0.07520        4.74320        0.10170
H          1.07820        4.78160        4.91960
H          2.38010        5.68430        4.07590
H          0.97910        6.55160        4.75220
H          2.18810        3.27320        3.51590
H          2.70500        1.20740        2.31340
H          4.17420        1.38490       -0.37370
H          6.18570       -0.02470       -0.61230
H          7.00060       -5.10120       -0.60920
H          5.32400       -4.78210       -1.06590
H          5.83060       -4.65770        0.65120
H          3.82340       -3.50930        0.13440
H          1.84900       -2.11600        0.39210
H          0.60720       -3.50260       -2.26600
H          4.41810       -0.61300       -3.65280
H          2.37030        0.37960       -2.71690
H          6.43350       -2.18790       -4.29250
H          7.97150       -4.05720       -4.74110
H          4.89440       -6.89560       -3.77620
H          8.20660       -6.44280       -5.32640
H          6.74740       -9.69880       -0.16490
H          9.80920      -11.49710       -3.65030
