199

C         -4.45400      -10.54260       -2.84140
C         -4.44400      -11.79550       -2.29180
C         -3.69070      -12.27530       -1.10970
O         -3.05130      -11.63690       -0.29860
C         -3.83540      -13.74440       -1.11570
C         -3.27750      -14.65840       -0.24300
C         -3.52550      -16.01400       -0.42310
C         -2.95640      -17.06000        0.47830
C         -4.33880      -16.38190       -1.49730
F         -4.57910      -17.69320       -1.68430
C         -4.91290      -15.48550       -2.38350
C         -4.65480      -14.13790       -2.18510
C         -5.08990      -12.94610       -2.90670
C         -5.99390      -12.93920       -3.93550
C         -6.58370      -14.10430       -4.47200
N         -7.09540      -15.00880       -4.95930
C         -6.50190      -11.79830       -4.59430
N         -6.98740      -10.93470       -5.17520
C         -3.90340       -9.32590       -2.38560
C         -3.39220       -8.93860       -1.16990
C         -2.93110       -7.61040       -1.14360
C         -2.33900       -6.93320       -0.05100
C         -2.11320       -7.59700        1.21470
C         -1.65160       -8.86220        1.45190
C         -1.54470       -9.16600        2.82270
C         -1.93540       -8.14960        3.63970
C         -1.92320       -8.09030        5.12750
C         -0.76600       -7.22510        5.63270
S         -2.43230       -6.77030        2.71860
C         -1.99960       -5.60530       -0.26600
C         -2.18690       -4.94170       -1.50550
C         -2.79660       -5.60510       -2.59220
C         -3.12700       -4.93070       -3.83000
C         -4.24150       -5.11870       -4.60340
C         -4.31980       -4.24410       -5.70350
C         -3.26180       -3.39350       -5.79890
C         -3.03710       -2.27960       -6.76160
C         -3.31200       -0.92510       -6.10100
S         -2.13530       -3.67120       -4.51440
C         -3.14970       -6.93430       -2.37450
S         -3.88270       -7.99310       -3.53830
C         -1.77090       -3.59480       -1.43230
C         -1.31460       -3.21550       -0.20420
S         -1.29470       -4.54440        0.92860
C         -1.01670       -1.87120        0.17530
C         -1.70260       -0.74390       -0.25700
N         -2.85950       -0.72600       -1.02090
C         -3.80850       -1.75000       -0.91520
C         -4.48750       -2.21010       -2.04450
C         -5.27890       -3.33360       -1.96780
C         -5.39100       -4.04050       -0.77310
S         -6.25690       -5.57680       -0.84000
C         -5.90610       -6.33580        0.77030
C         -4.80610       -3.52630        0.37640
C         -4.03650       -2.38270        0.30500
C         -2.98990        0.28370       -1.98560
C         -4.22230        0.89020       -2.22590
C         -4.31760        1.92810       -3.12600
C         -3.18720        2.38810       -3.79740
S         -3.39140        3.76000       -4.89110
C         -1.72030        4.47450       -4.95330
C         -1.96760        1.75770       -3.59660
C         -1.87390        0.71100       -2.70170
C         -1.07500        0.43200        0.22420
S         -1.33350        2.11870       -0.04320
C          0.05930        2.50510        0.95260
C          0.70640        1.37840        1.43580
N          1.90730        1.36960        2.12600
C          2.91390        2.29220        1.80610
C          3.13070        2.67950        0.48610
C          4.02980        3.68200        0.17970
C          4.74140        4.31160        1.19230
S          5.83250        5.67750        0.94340
C          5.77330        5.96920       -0.84270
C          4.58830        3.86910        2.50470
C          3.68940        2.87190        2.80950
C          2.10020        0.40660        3.12370
C          1.03320        0.00630        3.92990
C          1.21050       -0.96900        4.88440
C          2.45880       -1.55960        5.06890
S          2.55870       -2.80240        6.31860
C          4.28350       -3.36310        6.24580
C          3.52870       -1.14860        4.28500
C          3.34780       -0.17890        3.31840
C          0.02690        0.20080        1.03030
S          0.31550       -1.48960        1.25210
C          0.52030        3.85800        1.02700
C          1.04230        4.52270        2.09480
C          1.65960        5.75240        1.75720
C          2.38550        6.62990        2.59070
C          2.43050        6.52800        4.03450
C          2.48320        7.57340        4.91850
C          2.53540        7.17260        6.26630
C          2.52630        5.82190        6.43030
C          2.61420        5.03240        7.69010
C          3.97510        4.34500        7.81940
S          2.44180        5.01740        4.89920
C          3.08980        7.64150        1.94100
C          3.03310        7.86870        0.53890
C          2.18650        7.07750       -0.27360
C          2.02160        7.28380       -1.69640
C          0.87250        7.12690       -2.42680
C          1.04650        7.37290       -3.80070
C          2.32670        7.69870       -4.13640
C          2.89110        8.01690       -5.47820
C          3.64500        9.34650       -5.47420
S          3.34600        7.72420       -2.74130
C          1.55030        6.02430        0.36920
S          0.64320        4.78570       -0.45300
C          3.90960        8.88660        0.12880
C          4.67020        9.41150        1.14730
S          4.22790        8.71340        2.69850
C          5.66360       10.41100        1.12650
C          6.42870       10.83740        0.07360
C          6.61070       10.16600       -1.22740
O          5.99310        9.23700       -1.70070
C          7.80580       10.80110       -1.83280
C          8.45130       10.45980       -3.00810
Cl         7.82010        9.27380       -4.05940
C          9.65120       11.11320       -3.32010
Cl        10.46680       10.75150       -4.77920
C         10.20190       12.02620       -2.42190
Cl        11.71760       12.73520       -2.77510
C          9.54400       12.36490       -1.22770
Cl        10.36460       13.36160       -0.09920
C          8.30200       11.79860       -0.97000
C          7.34910       11.96210        0.12380
C          7.16920       13.07200        0.90500
C          7.80630       14.32160        0.74430
N          8.18810       15.39880        0.64170
C          6.16030       13.18110        1.89020
N          5.36770       13.35220        2.70230
H         -4.92910      -10.45120       -3.81140
H         -2.65530      -14.31360        0.56890
H         -3.75820      -17.63970        0.93440
H         -2.34130      -17.75390       -0.09380
H         -2.35230      -16.60970        1.26040
H         -5.52580      -15.85880       -3.18690
H         -3.36750       -9.59220       -0.31990
H         -1.36180       -9.54470        0.67410
H         -1.19170      -10.11330        3.18950
H         -2.86640       -7.67220        5.48790
H         -1.82490       -9.10460        5.52020
H         -0.76720       -7.19020        6.71910
H          0.18510       -7.63300        5.29810
H         -0.85840       -6.21050        5.25180
H         -5.01560       -5.82470       -4.36360
H         -5.14030       -4.24350       -6.39880
H         -2.00490       -2.30000       -7.11950
H         -3.70120       -2.41250       -7.61790
H         -2.64750       -0.77230       -5.25270
H         -4.33930       -0.87630       -5.74620
H         -3.15560       -0.11770       -6.81160
H         -1.80300       -2.90890       -2.25550
H         -4.35850       -1.70820       -2.99160
H         -5.78380       -3.70270       -2.84640
H         -6.26860       -7.35670        0.69880
H         -4.83540       -6.33530        0.95070
H         -6.43870       -5.81070        1.55800
H         -4.92810       -4.01200        1.33110
H         -3.57290       -2.00000        1.20200
H         -5.09510        0.55470       -1.68650
H         -5.26620        2.41120       -3.30250
H         -1.84200        5.46670       -5.37630
H         -1.07490        3.88160       -5.59510
H         -1.31800        4.54250       -3.94690
H         -1.08600        2.06950       -4.13300
H         -0.92380        0.21800       -2.55320
H          2.57490        2.20430       -0.30910
H          4.15910        3.96430       -0.85270
H          6.27800        5.16320       -1.36780
H          4.74170        6.06580       -1.16270
H          6.28500        6.91090       -1.01620
H          5.16590        4.33890        3.28580
H          3.56000        2.55290        3.83210
H          0.06540        0.46900        3.80480
H          0.38450       -1.28320        5.50370
H          4.95300       -2.54380        6.49150
H          4.49940       -3.77080        5.26260
H          4.36790       -4.14400        6.99520
H          4.50810       -1.58230        4.40590
H          4.18070        0.12400        2.70140
H          1.00880        4.11860        3.08850
H          2.44420        8.60460        4.61800
H          2.57490        7.86650        7.08690
H          2.45880        5.70460        8.53640
H          1.82780        4.27340        7.70570
H          4.02730        3.78360        8.74870
H          4.77380        5.08330        7.81240
H          4.13090        3.65930        6.98920
H         -0.07880        6.88860       -1.98600
H          0.24700        7.31170       -4.51770
H          2.07440        8.04970       -6.20290
H          3.57840        7.22070       -5.78150
H          2.98050       10.15840       -5.18650
H          4.04330        9.55770       -6.46340
H          4.47140        9.30900       -4.76740
H          3.98260        9.23980       -0.88030
H          5.87740       10.84640        2.09570
