
  xtb     02032222053D
 energy: -353.021766664590 gnorm: 0.000335028779 xtb: 6.4.1 (unknown)
199218  0     0  0            999 V2000
   -4.4540  -10.5426   -2.8414 C   0  0  0  0  0  0  0  0  0  0  0  0
   -4.4440  -11.7955   -2.2918 C   0  0  0  0  0  0  0  0  0  0  0  0
   -3.6907  -12.2753   -1.1097 C   0  0  0  0  0  0  0  0  0  0  0  0
   -3.0513  -11.6369   -0.2986 O   0  0  0  0  0  0  0  0  0  0  0  0
   -3.8354  -13.7444   -1.1157 C   0  0  0  0  0  0  0  0  0  0  0  0
   -3.2775  -14.6584   -0.2430 C   0  0  0  0  0  0  0  0  0  0  0  0
   -3.5255  -16.0140   -0.4231 C   0  0  0  0  0  0  0  0  0  0  0  0
   -2.9564  -17.0600    0.4783 C   0  0  0  0  0  0  0  0  0  0  0  0
   -4.3388  -16.3819   -1.4973 C   0  0  0  0  0  0  0  0  0  0  0  0
   -4.5791  -17.6932   -1.6843 F   0  0  0  0  0  0  0  0  0  0  0  0
   -4.9129  -15.4855   -2.3835 C   0  0  0  0  0  0  0  0  0  0  0  0
   -4.6548  -14.1379   -2.1851 C   0  0  0  0  0  0  0  0  0  0  0  0
   -5.0899  -12.9461   -2.9067 C   0  0  0  0  0  0  0  0  0  0  0  0
   -5.9939  -12.9392   -3.9355 C   0  0  0  0  0  0  0  0  0  0  0  0
   -6.5837  -14.1043   -4.4720 C   0  0  0  0  0  0  0  0  0  0  0  0
   -7.0954  -15.0088   -4.9593 N   0  0  0  0  0  0  0  0  0  0  0  0
   -6.5019  -11.7983   -4.5943 C   0  0  0  0  0  0  0  0  0  0  0  0
   -6.9874  -10.9347   -5.1752 N   0  0  0  0  0  0  0  0  0  0  0  0
   -3.9034   -9.3259   -2.3856 C   0  0  0  0  0  0  0  0  0  0  0  0
   -3.3922   -8.9386   -1.1699 C   0  0  0  0  0  0  0  0  0  0  0  0
   -2.9311   -7.6104   -1.1436 C   0  0  0  0  0  0  0  0  0  0  0  0
   -2.3390   -6.9332   -0.0510 C   0  0  0  0  0  0  0  0  0  0  0  0
   -2.1132   -7.5970    1.2147 C   0  0  0  0  0  0  0  0  0  0  0  0
   -1.6516   -8.8622    1.4519 C   0  0  0  0  0  0  0  0  0  0  0  0
   -1.5447   -9.1660    2.8227 C   0  0  0  0  0  0  0  0  0  0  0  0
   -1.9354   -8.1496    3.6397 C   0  0  0  0  0  0  0  0  0  0  0  0
   -1.9232   -8.0903    5.1275 C   0  0  0  0  0  0  0  0  0  0  0  0
   -0.7660   -7.2251    5.6327 C   0  0  0  0  0  0  0  0  0  0  0  0
   -2.4323   -6.7703    2.7186 S   0  0  0  0  0  0  0  0  0  0  0  0
   -1.9996   -5.6053   -0.2660 C   0  0  0  0  0  0  0  0  0  0  0  0
   -2.1869   -4.9417   -1.5055 C   0  0  0  0  0  0  0  0  0  0  0  0
   -2.7966   -5.6051   -2.5922 C   0  0  0  0  0  0  0  0  0  0  0  0
   -3.1270   -4.9307   -3.8300 C   0  0  0  0  0  0  0  0  0  0  0  0
   -4.2415   -5.1187   -4.6034 C   0  0  0  0  0  0  0  0  0  0  0  0
   -4.3198   -4.2441   -5.7035 C   0  0  0  0  0  0  0  0  0  0  0  0
   -3.2618   -3.3935   -5.7989 C   0  0  0  0  0  0  0  0  0  0  0  0
   -3.0371   -2.2796   -6.7616 C   0  0  0  0  0  0  0  0  0  0  0  0
   -3.3120   -0.9251   -6.1010 C   0  0  0  0  0  0  0  0  0  0  0  0
   -2.1353   -3.6712   -4.5144 S   0  0  0  0  0  0  0  0  0  0  0  0
   -3.1497   -6.9343   -2.3745 C   0  0  0  0  0  0  0  0  0  0  0  0
   -3.8827   -7.9931   -3.5383 S   0  0  0  0  0  0  0  0  0  0  0  0
   -1.7709   -3.5948   -1.4323 C   0  0  0  0  0  0  0  0  0  0  0  0
   -1.3146   -3.2155   -0.2042 C   0  0  0  0  0  0  0  0  0  0  0  0
   -1.2947   -4.5444    0.9286 S   0  0  0  0  0  0  0  0  0  0  0  0
   -1.0167   -1.8712    0.1753 C   0  0  0  0  0  0  0  0  0  0  0  0
   -1.7026   -0.7439   -0.2570 C   0  0  0  0  0  0  0  0  0  0  0  0
   -2.8595   -0.7260   -1.0209 N   0  0  0  0  0  0  0  0  0  0  0  0
   -3.8085   -1.7500   -0.9152 C   0  0  0  0  0  0  0  0  0  0  0  0
   -4.4875   -2.2101   -2.0445 C   0  0  0  0  0  0  0  0  0  0  0  0
   -5.2789   -3.3336   -1.9678 C   0  0  0  0  0  0  0  0  0  0  0  0
   -5.3910   -4.0405   -0.7731 C   0  0  0  0  0  0  0  0  0  0  0  0
   -6.2569   -5.5768   -0.8400 S   0  0  0  0  0  0  0  0  0  0  0  0
   -5.9061   -6.3358    0.7703 C   0  0  0  0  0  0  0  0  0  0  0  0
   -4.8061   -3.5263    0.3764 C   0  0  0  0  0  0  0  0  0  0  0  0
   -4.0365   -2.3827    0.3050 C   0  0  0  0  0  0  0  0  0  0  0  0
   -2.9899    0.2837   -1.9856 C   0  0  0  0  0  0  0  0  0  0  0  0
   -4.2223    0.8902   -2.2259 C   0  0  0  0  0  0  0  0  0  0  0  0
   -4.3176    1.9281   -3.1260 C   0  0  0  0  0  0  0  0  0  0  0  0
   -3.1872    2.3881   -3.7974 C   0  0  0  0  0  0  0  0  0  0  0  0
   -3.3914    3.7600   -4.8911 S   0  0  0  0  0  0  0  0  0  0  0  0
   -1.7203    4.4745   -4.9533 C   0  0  0  0  0  0  0  0  0  0  0  0
   -1.9676    1.7577   -3.5966 C   0  0  0  0  0  0  0  0  0  0  0  0
   -1.8739    0.7110   -2.7017 C   0  0  0  0  0  0  0  0  0  0  0  0
   -1.0750    0.4320    0.2242 C   0  0  0  0  0  0  0  0  0  0  0  0
   -1.3335    2.1187   -0.0432 S   0  0  0  0  0  0  0  0  0  0  0  0
    0.0593    2.5051    0.9526 C   0  0  0  0  0  0  0  0  0  0  0  0
    0.7064    1.3784    1.4358 C   0  0  0  0  0  0  0  0  0  0  0  0
    1.9073    1.3696    2.1260 N   0  0  0  0  0  0  0  0  0  0  0  0
    2.9139    2.2922    1.8061 C   0  0  0  0  0  0  0  0  0  0  0  0
    3.1307    2.6795    0.4861 C   0  0  0  0  0  0  0  0  0  0  0  0
    4.0298    3.6820    0.1797 C   0  0  0  0  0  0  0  0  0  0  0  0
    4.7414    4.3116    1.1923 C   0  0  0  0  0  0  0  0  0  0  0  0
    5.8325    5.6775    0.9434 S   0  0  0  0  0  0  0  0  0  0  0  0
    5.7733    5.9692   -0.8427 C   0  0  0  0  0  0  0  0  0  0  0  0
    4.5883    3.8691    2.5047 C   0  0  0  0  0  0  0  0  0  0  0  0
    3.6894    2.8719    2.8095 C   0  0  0  0  0  0  0  0  0  0  0  0
    2.1002    0.4066    3.1237 C   0  0  0  0  0  0  0  0  0  0  0  0
    1.0332    0.0063    3.9299 C   0  0  0  0  0  0  0  0  0  0  0  0
    1.2105   -0.9690    4.8844 C   0  0  0  0  0  0  0  0  0  0  0  0
    2.4588   -1.5596    5.0689 C   0  0  0  0  0  0  0  0  0  0  0  0
    2.5587   -2.8024    6.3186 S   0  0  0  0  0  0  0  0  0  0  0  0
    4.2835   -3.3631    6.2458 C   0  0  0  0  0  0  0  0  0  0  0  0
    3.5287   -1.1486    4.2850 C   0  0  0  0  0  0  0  0  0  0  0  0
    3.3478   -0.1789    3.3184 C   0  0  0  0  0  0  0  0  0  0  0  0
    0.0269    0.2008    1.0303 C   0  0  0  0  0  0  0  0  0  0  0  0
    0.3155   -1.4896    1.2521 S   0  0  0  0  0  0  0  0  0  0  0  0
    0.5203    3.8580    1.0270 C   0  0  0  0  0  0  0  0  0  0  0  0
    1.0423    4.5227    2.0948 C   0  0  0  0  0  0  0  0  0  0  0  0
    1.6596    5.7524    1.7572 C   0  0  0  0  0  0  0  0  0  0  0  0
    2.3855    6.6299    2.5907 C   0  0  0  0  0  0  0  0  0  0  0  0
    2.4305    6.5280    4.0345 C   0  0  0  0  0  0  0  0  0  0  0  0
    2.4832    7.5734    4.9185 C   0  0  0  0  0  0  0  0  0  0  0  0
    2.5354    7.1726    6.2663 C   0  0  0  0  0  0  0  0  0  0  0  0
    2.5263    5.8219    6.4303 C   0  0  0  0  0  0  0  0  0  0  0  0
    2.6142    5.0324    7.6901 C   0  0  0  0  0  0  0  0  0  0  0  0
    3.9751    4.3450    7.8194 C   0  0  0  0  0  0  0  0  0  0  0  0
    2.4418    5.0174    4.8992 S   0  0  0  0  0  0  0  0  0  0  0  0
    3.0898    7.6415    1.9410 C   0  0  0  0  0  0  0  0  0  0  0  0
    3.0331    7.8687    0.5389 C   0  0  0  0  0  0  0  0  0  0  0  0
    2.1865    7.0775   -0.2736 C   0  0  0  0  0  0  0  0  0  0  0  0
    2.0216    7.2838   -1.6964 C   0  0  0  0  0  0  0  0  0  0  0  0
    0.8725    7.1269   -2.4268 C   0  0  0  0  0  0  0  0  0  0  0  0
    1.0465    7.3729   -3.8007 C   0  0  0  0  0  0  0  0  0  0  0  0
    2.3267    7.6987   -4.1364 C   0  0  0  0  0  0  0  0  0  0  0  0
    2.8911    8.0169   -5.4782 C   0  0  0  0  0  0  0  0  0  0  0  0
    3.6450    9.3465   -5.4742 C   0  0  0  0  0  0  0  0  0  0  0  0
    3.3460    7.7242   -2.7413 S   0  0  0  0  0  0  0  0  0  0  0  0
    1.5503    6.0243    0.3692 C   0  0  0  0  0  0  0  0  0  0  0  0
    0.6432    4.7857   -0.4530 S   0  0  0  0  0  0  0  0  0  0  0  0
    3.9096    8.8866    0.1288 C   0  0  0  0  0  0  0  0  0  0  0  0
    4.6702    9.4115    1.1473 C   0  0  0  0  0  0  0  0  0  0  0  0
    4.2279    8.7134    2.6985 S   0  0  0  0  0  0  0  0  0  0  0  0
    5.6636   10.4110    1.1265 C   0  0  0  0  0  0  0  0  0  0  0  0
    6.4287   10.8374    0.0736 C   0  0  0  0  0  0  0  0  0  0  0  0
    6.6107   10.1660   -1.2274 C   0  0  0  0  0  0  0  0  0  0  0  0
    5.9931    9.2370   -1.7007 O   0  0  0  0  0  0  0  0  0  0  0  0
    7.8058   10.8011   -1.8328 C   0  0  0  0  0  0  0  0  0  0  0  0
    8.4513   10.4598   -3.0081 C   0  0  0  0  0  0  0  0  0  0  0  0
    7.8201    9.2738   -4.0594 Cl  0  0  0  0  0  0  0  0  0  0  0  0
    9.6512   11.1132   -3.3201 C   0  0  0  0  0  0  0  0  0  0  0  0
   10.4668   10.7515   -4.7792 Cl  0  0  0  0  0  0  0  0  0  0  0  0
   10.2019   12.0262   -2.4219 C   0  0  0  0  0  0  0  0  0  0  0  0
   11.7176   12.7352   -2.7751 Cl  0  0  0  0  0  0  0  0  0  0  0  0
    9.5440   12.3649   -1.2277 C   0  0  0  0  0  0  0  0  0  0  0  0
   10.3646   13.3616   -0.0992 Cl  0  0  0  0  0  0  0  0  0  0  0  0
    8.3020   11.7986   -0.9700 C   0  0  0  0  0  0  0  0  0  0  0  0
    7.3491   11.9621    0.1238 C   0  0  0  0  0  0  0  0  0  0  0  0
    7.1692   13.0720    0.9050 C   0  0  0  0  0  0  0  0  0  0  0  0
    7.8063   14.3216    0.7443 C   0  0  0  0  0  0  0  0  0  0  0  0
    8.1881   15.3988    0.6417 N   0  0  0  0  0  0  0  0  0  0  0  0
    6.1603   13.1811    1.8902 C   0  0  0  0  0  0  0  0  0  0  0  0
    5.3677   13.3522    2.7023 N   0  0  0  0  0  0  0  0  0  0  0  0
   -4.9291  -10.4512   -3.8114 H   0  0  0  0  0  0  0  0  0  0  0  0
   -2.6553  -14.3136    0.5689 H   0  0  0  0  0  0  0  0  0  0  0  0
   -3.7582  -17.6397    0.9344 H   0  0  0  0  0  0  0  0  0  0  0  0
   -2.3413  -17.7539   -0.0938 H   0  0  0  0  0  0  0  0  0  0  0  0
   -2.3523  -16.6097    1.2604 H   0  0  0  0  0  0  0  0  0  0  0  0
   -5.5258  -15.8588   -3.1869 H   0  0  0  0  0  0  0  0  0  0  0  0
   -3.3675   -9.5922   -0.3199 H   0  0  0  0  0  0  0  0  0  0  0  0
   -1.3618   -9.5447    0.6741 H   0  0  0  0  0  0  0  0  0  0  0  0
   -1.1917  -10.1133    3.1895 H   0  0  0  0  0  0  0  0  0  0  0  0
   -2.8664   -7.6722    5.4879 H   0  0  0  0  0  0  0  0  0  0  0  0
   -1.8249   -9.1046    5.5202 H   0  0  0  0  0  0  0  0  0  0  0  0
   -0.7672   -7.1902    6.7191 H   0  0  0  0  0  0  0  0  0  0  0  0
    0.1851   -7.6330    5.2981 H   0  0  0  0  0  0  0  0  0  0  0  0
   -0.8584   -6.2105    5.2518 H   0  0  0  0  0  0  0  0  0  0  0  0
   -5.0156   -5.8247   -4.3636 H   0  0  0  0  0  0  0  0  0  0  0  0
   -5.1403   -4.2435   -6.3988 H   0  0  0  0  0  0  0  0  0  0  0  0
   -2.0049   -2.3000   -7.1195 H   0  0  0  0  0  0  0  0  0  0  0  0
   -3.7012   -2.4125   -7.6179 H   0  0  0  0  0  0  0  0  0  0  0  0
   -2.6475   -0.7723   -5.2527 H   0  0  0  0  0  0  0  0  0  0  0  0
   -4.3393   -0.8763   -5.7462 H   0  0  0  0  0  0  0  0  0  0  0  0
   -3.1556   -0.1177   -6.8116 H   0  0  0  0  0  0  0  0  0  0  0  0
   -1.8030   -2.9089   -2.2555 H   0  0  0  0  0  0  0  0  0  0  0  0
   -4.3585   -1.7082   -2.9916 H   0  0  0  0  0  0  0  0  0  0  0  0
   -5.7838   -3.7027   -2.8464 H   0  0  0  0  0  0  0  0  0  0  0  0
   -6.2686   -7.3567    0.6988 H   0  0  0  0  0  0  0  0  0  0  0  0
   -4.8354   -6.3353    0.9507 H   0  0  0  0  0  0  0  0  0  0  0  0
   -6.4387   -5.8107    1.5580 H   0  0  0  0  0  0  0  0  0  0  0  0
   -4.9281   -4.0120    1.3311 H   0  0  0  0  0  0  0  0  0  0  0  0
   -3.5729   -2.0000    1.2020 H   0  0  0  0  0  0  0  0  0  0  0  0
   -5.0951    0.5547   -1.6865 H   0  0  0  0  0  0  0  0  0  0  0  0
   -5.2662    2.4112   -3.3025 H   0  0  0  0  0  0  0  0  0  0  0  0
   -1.8420    5.4667   -5.3763 H   0  0  0  0  0  0  0  0  0  0  0  0
   -1.0749    3.8816   -5.5951 H   0  0  0  0  0  0  0  0  0  0  0  0
   -1.3180    4.5425   -3.9469 H   0  0  0  0  0  0  0  0  0  0  0  0
   -1.0860    2.0695   -4.1330 H   0  0  0  0  0  0  0  0  0  0  0  0
   -0.9238    0.2180   -2.5532 H   0  0  0  0  0  0  0  0  0  0  0  0
    2.5749    2.2043   -0.3091 H   0  0  0  0  0  0  0  0  0  0  0  0
    4.1591    3.9643   -0.8527 H   0  0  0  0  0  0  0  0  0  0  0  0
    6.2780    5.1632   -1.3678 H   0  0  0  0  0  0  0  0  0  0  0  0
    4.7417    6.0658   -1.1627 H   0  0  0  0  0  0  0  0  0  0  0  0
    6.2850    6.9109   -1.0162 H   0  0  0  0  0  0  0  0  0  0  0  0
    5.1659    4.3389    3.2858 H   0  0  0  0  0  0  0  0  0  0  0  0
    3.5600    2.5529    3.8321 H   0  0  0  0  0  0  0  0  0  0  0  0
    0.0654    0.4690    3.8048 H   0  0  0  0  0  0  0  0  0  0  0  0
    0.3845   -1.2832    5.5037 H   0  0  0  0  0  0  0  0  0  0  0  0
    4.9530   -2.5438    6.4915 H   0  0  0  0  0  0  0  0  0  0  0  0
    4.4994   -3.7708    5.2626 H   0  0  0  0  0  0  0  0  0  0  0  0
    4.3679   -4.1440    6.9952 H   0  0  0  0  0  0  0  0  0  0  0  0
    4.5081   -1.5823    4.4059 H   0  0  0  0  0  0  0  0  0  0  0  0
    4.1807    0.1240    2.7014 H   0  0  0  0  0  0  0  0  0  0  0  0
    1.0088    4.1186    3.0885 H   0  0  0  0  0  0  0  0  0  0  0  0
    2.4442    8.6046    4.6180 H   0  0  0  0  0  0  0  0  0  0  0  0
    2.5749    7.8665    7.0869 H   0  0  0  0  0  0  0  0  0  0  0  0
    2.4588    5.7046    8.5364 H   0  0  0  0  0  0  0  0  0  0  0  0
    1.8278    4.2734    7.7057 H   0  0  0  0  0  0  0  0  0  0  0  0
    4.0273    3.7836    8.7487 H   0  0  0  0  0  0  0  0  0  0  0  0
    4.7738    5.0833    7.8124 H   0  0  0  0  0  0  0  0  0  0  0  0
    4.1309    3.6593    6.9892 H   0  0  0  0  0  0  0  0  0  0  0  0
   -0.0788    6.8886   -1.9860 H   0  0  0  0  0  0  0  0  0  0  0  0
    0.2470    7.3117   -4.5177 H   0  0  0  0  0  0  0  0  0  0  0  0
    2.0744    8.0497   -6.2029 H   0  0  0  0  0  0  0  0  0  0  0  0
    3.5784    7.2207   -5.7815 H   0  0  0  0  0  0  0  0  0  0  0  0
    2.9805   10.1584   -5.1865 H   0  0  0  0  0  0  0  0  0  0  0  0
    4.0433    9.5577   -6.4634 H   0  0  0  0  0  0  0  0  0  0  0  0
    4.4714    9.3090   -4.7674 H   0  0  0  0  0  0  0  0  0  0  0  0
    3.9826    9.2398   -0.8803 H   0  0  0  0  0  0  0  0  0  0  0  0
    5.8774   10.8464    2.0957 H   0  0  0  0  0  0  0  0  0  0  0  0
  1  2  2  0  0  0  0
  2  3  1  0  0  0  0
  3  4  2  0  0  0  0
  3  5  1  0  0  0  0
  5  6  2  0  0  0  0
  6  7  1  0  0  0  0
  7  8  1  0  0  0  0
  7  9  2  0  0  0  0
  9 10  1  0  0  0  0
  9 11  1  0  0  0  0
 11 12  2  0  0  0  0
 12 13  1  0  0  0  0
 13 14  2  0  0  0  0
 14 15  1  0  0  0  0
 15 16  3  0  0  0  0
 14 17  1  0  0  0  0
 17 18  3  0  0  0  0
  1 19  1  0  0  0  0
 19 20  2  0  0  0  0
 20 21  1  0  0  0  0
 21 22  2  0  0  0  0
 22 23  1  0  0  0  0
 23 24  2  0  0  0  0
 24 25  1  0  0  0  0
 25 26  2  0  0  0  0
 26 27  1  0  0  0  0
 27 28  1  0  0  0  0
 26 29  1  0  0  0  0
 22 30  1  0  0  0  0
 30 31  2  0  0  0  0
 31 32  1  0  0  0  0
 32 33  1  0  0  0  0
 33 34  2  0  0  0  0
 34 35  1  0  0  0  0
 35 36  2  0  0  0  0
 36 37  1  0  0  0  0
 37 38  1  0  0  0  0
 36 39  1  0  0  0  0
 32 40  2  0  0  0  0
 40 41  1  0  0  0  0
 31 42  1  0  0  0  0
 42 43  2  0  0  0  0
 43 44  1  0  0  0  0
 43 45  1  0  0  0  0
 45 46  2  0  0  0  0
 46 47  1  0  0  0  0
 47 48  1  0  0  0  0
 48 49  2  0  0  0  0
 49 50  1  0  0  0  0
 50 51  2  0  0  0  0
 51 52  1  0  0  0  0
 52 53  1  0  0  0  0
 51 54  1  0  0  0  0
 54 55  2  0  0  0  0
 47 56  1  0  0  0  0
 56 57  2  0  0  0  0
 57 58  1  0  0  0  0
 58 59  2  0  0  0  0
 59 60  1  0  0  0  0
 60 61  1  0  0  0  0
 59 62  1  0  0  0  0
 62 63  2  0  0  0  0
 46 64  1  0  0  0  0
 64 65  1  0  0  0  0
 65 66  1  0  0  0  0
 66 67  2  0  0  0  0
 67 68  1  0  0  0  0
 68 69  1  0  0  0  0
 69 70  2  0  0  0  0
 70 71  1  0  0  0  0
 71 72  2  0  0  0  0
 72 73  1  0  0  0  0
 73 74  1  0  0  0  0
 72 75  1  0  0  0  0
 75 76  2  0  0  0  0
 68 77  1  0  0  0  0
 77 78  2  0  0  0  0
 78 79  1  0  0  0  0
 79 80  2  0  0  0  0
 80 81  1  0  0  0  0
 81 82  1  0  0  0  0
 80 83  1  0  0  0  0
 83 84  2  0  0  0  0
 67 85  1  0  0  0  0
 85 86  1  0  0  0  0
 66 87  1  0  0  0  0
 87 88  2  0  0  0  0
 88 89  1  0  0  0  0
 89 90  2  0  0  0  0
 90 91  1  0  0  0  0
 91 92  2  0  0  0  0
 92 93  1  0  0  0  0
 93 94  2  0  0  0  0
 94 95  1  0  0  0  0
 95 96  1  0  0  0  0
 94 97  1  0  0  0  0
 90 98  1  0  0  0  0
 98 99  2  0  0  0  0
 99100  1  0  0  0  0
100101  1  0  0  0  0
101102  2  0  0  0  0
102103  1  0  0  0  0
103104  2  0  0  0  0
104105  1  0  0  0  0
105106  1  0  0  0  0
104107  1  0  0  0  0
100108  2  0  0  0  0
108109  1  0  0  0  0
 99110  1  0  0  0  0
110111  2  0  0  0  0
111112  1  0  0  0  0
111113  1  0  0  0  0
113114  2  0  0  0  0
114115  1  0  0  0  0
115116  2  0  0  0  0
115117  1  0  0  0  0
117118  2  0  0  0  0
118119  1  0  0  0  0
118120  1  0  0  0  0
120121  1  0  0  0  0
120122  2  0  0  0  0
122123  1  0  0  0  0
122124  1  0  0  0  0
124125  1  0  0  0  0
124126  2  0  0  0  0
126127  1  0  0  0  0
127128  2  0  0  0  0
128129  1  0  0  0  0
129130  3  0  0  0  0
128131  1  0  0  0  0
131132  3  0  0  0  0
 13  2  1  0  0  0  0
 41 19  1  0  0  0  0
 86 45  1  0  0  0  0
109 87  1  0  0  0  0
127114  1  0  0  0  0
 12  5  1  0  0  0  0
 40 21  1  0  0  0  0
 55 48  1  0  0  0  0
 63 56  1  0  0  0  0
 85 64  2  0  0  0  0
108 89  1  0  0  0  0
126117  1  0  0  0  0
 29 23  1  0  0  0  0
 44 30  1  0  0  0  0
 76 69  1  0  0  0  0
 84 77  1  0  0  0  0
 97 91  1  0  0  0  0
112 98  1  0  0  0  0
 39 33  1  0  0  0  0
107101  1  0  0  0  0
  1133  1  0  0  0  0
  6134  1  0  0  0  0
  8135  1  0  0  0  0
  8136  1  0  0  0  0
  8137  1  0  0  0  0
 11138  1  0  0  0  0
 20139  1  0  0  0  0
 24140  1  0  0  0  0
 25141  1  0  0  0  0
 27142  1  0  0  0  0
 27143  1  0  0  0  0
 28144  1  0  0  0  0
 28145  1  0  0  0  0
 28146  1  0  0  0  0
 34147  1  0  0  0  0
 35148  1  0  0  0  0
 37149  1  0  0  0  0
 37150  1  0  0  0  0
 38151  1  0  0  0  0
 38152  1  0  0  0  0
 38153  1  0  0  0  0
 42154  1  0  0  0  0
 49155  1  0  0  0  0
 50156  1  0  0  0  0
 53157  1  0  0  0  0
 53158  1  0  0  0  0
 53159  1  0  0  0  0
 54160  1  0  0  0  0
 55161  1  0  0  0  0
 57162  1  0  0  0  0
 58163  1  0  0  0  0
 61164  1  0  0  0  0
 61165  1  0  0  0  0
 61166  1  0  0  0  0
 62167  1  0  0  0  0
 63168  1  0  0  0  0
 70169  1  0  0  0  0
 71170  1  0  0  0  0
 74171  1  0  0  0  0
 74172  1  0  0  0  0
 74173  1  0  0  0  0
 75174  1  0  0  0  0
 76175  1  0  0  0  0
 78176  1  0  0  0  0
 79177  1  0  0  0  0
 82178  1  0  0  0  0
 82179  1  0  0  0  0
 82180  1  0  0  0  0
 83181  1  0  0  0  0
 84182  1  0  0  0  0
 88183  1  0  0  0  0
 92184  1  0  0  0  0
 93185  1  0  0  0  0
 95186  1  0  0  0  0
 95187  1  0  0  0  0
 96188  1  0  0  0  0
 96189  1  0  0  0  0
 96190  1  0  0  0  0
102191  1  0  0  0  0
103192  1  0  0  0  0
105193  1  0  0  0  0
105194  1  0  0  0  0
106195  1  0  0  0  0
106196  1  0  0  0  0
106197  1  0  0  0  0
110198  1  0  0  0  0
113199  1  0  0  0  0
M  END
