
  xtb     02112201153D
 energy: -332.319113647226 gnorm: 0.000695503571 xtb: 6.4.1 (unknown)
175191  0     0  0            999 V2000
   -6.8810   -7.4252   -1.7065 C   0  0  0  0  0  0  0  0  0  0  0  0
   -7.5121   -8.3507   -2.4725 C   0  0  0  0  0  0  0  0  0  0  0  0
   -7.2342   -8.6432   -3.9082 C   0  0  0  0  0  0  0  0  0  0  0  0
   -6.5727   -8.0032   -4.6943 O   0  0  0  0  0  0  0  0  0  0  0  0
   -7.8847   -9.9415   -4.1730 C   0  0  0  0  0  0  0  0  0  0  0  0
   -7.8752  -10.6738   -5.3451 C   0  0  0  0  0  0  0  0  0  0  0  0
   -8.5569  -11.8833   -5.4009 C   0  0  0  0  0  0  0  0  0  0  0  0
   -8.5960  -12.7251   -6.6332 C   0  0  0  0  0  0  0  0  0  0  0  0
   -9.2223  -12.3026   -4.2452 C   0  0  0  0  0  0  0  0  0  0  0  0
   -9.8794  -13.4751   -4.2890 F   0  0  0  0  0  0  0  0  0  0  0  0
   -9.2471  -11.5894   -3.0587 C   0  0  0  0  0  0  0  0  0  0  0  0
   -8.5641  -10.3826   -3.0253 C   0  0  0  0  0  0  0  0  0  0  0  0
   -8.3966   -9.3946   -1.9678 C   0  0  0  0  0  0  0  0  0  0  0  0
   -9.0278   -9.4056   -0.7550 C   0  0  0  0  0  0  0  0  0  0  0  0
   -9.8914  -10.4367   -0.3249 C   0  0  0  0  0  0  0  0  0  0  0  0
  -10.5969  -11.2462    0.0792 N   0  0  0  0  0  0  0  0  0  0  0  0
   -8.9416   -8.3809    0.2133 C   0  0  0  0  0  0  0  0  0  0  0  0
   -8.9448   -7.5817    1.0370 N   0  0  0  0  0  0  0  0  0  0  0  0
   -6.0346   -6.3436   -2.1429 C   0  0  0  0  0  0  0  0  0  0  0  0
   -4.9527   -5.9729   -1.3215 C   0  0  0  0  0  0  0  0  0  0  0  0
   -4.1262   -4.9572   -1.7303 C   0  0  0  0  0  0  0  0  0  0  0  0
   -2.9160   -4.3961   -1.0668 C   0  0  0  0  0  0  0  0  0  0  0  0
   -2.3857   -4.7787   -0.0525 O   0  0  0  0  0  0  0  0  0  0  0  0
   -2.5027   -3.2716   -1.9491 C   0  0  0  0  0  0  0  0  0  0  0  0
   -3.3612   -3.2148   -3.0653 C   0  0  0  0  0  0  0  0  0  0  0  0
   -4.3654   -4.2579   -2.9315 C   0  0  0  0  0  0  0  0  0  0  0  0
   -5.4526   -4.5881   -3.7192 C   0  0  0  0  0  0  0  0  0  0  0  0
   -6.2779   -5.6271   -3.3197 C   0  0  0  0  0  0  0  0  0  0  0  0
   -3.1796   -2.2439   -4.0312 C   0  0  0  0  0  0  0  0  0  0  0  0
   -2.1962   -1.2891   -3.8324 C   0  0  0  0  0  0  0  0  0  0  0  0
   -1.3882   -1.2979   -2.6922 C   0  0  0  0  0  0  0  0  0  0  0  0
   -1.5098   -2.3394   -1.7619 C   0  0  0  0  0  0  0  0  0  0  0  0
   -0.4899   -0.1881   -2.4392 C   0  0  0  0  0  0  0  0  0  0  0  0
   -0.7930    1.1597   -2.5398 C   0  0  0  0  0  0  0  0  0  0  0  0
   -2.0588    1.6589   -2.8096 N   0  0  0  0  0  0  0  0  0  0  0  0
   -2.1995    2.8531   -3.5164 C   0  0  0  0  0  0  0  0  0  0  0  0
   -3.2556    3.7243   -3.2412 C   0  0  0  0  0  0  0  0  0  0  0  0
   -3.3685    4.9131   -3.9240 C   0  0  0  0  0  0  0  0  0  0  0  0
   -2.4293    5.2684   -4.8915 C   0  0  0  0  0  0  0  0  0  0  0  0
   -2.6598    6.8229   -5.6936 S   0  0  0  0  0  0  0  0  0  0  0  0
   -1.0428    7.1467   -6.4545 C   0  0  0  0  0  0  0  0  0  0  0  0
   -1.3909    4.3957   -5.1856 C   0  0  0  0  0  0  0  0  0  0  0  0
   -1.2816    3.1986   -4.5068 C   0  0  0  0  0  0  0  0  0  0  0  0
   -3.1726    0.9608   -2.3156 C   0  0  0  0  0  0  0  0  0  0  0  0
   -3.1243    0.3719   -1.0504 C   0  0  0  0  0  0  0  0  0  0  0  0
   -4.1351   -0.4610   -0.6340 C   0  0  0  0  0  0  0  0  0  0  0  0
   -5.2289   -0.7142   -1.4618 C   0  0  0  0  0  0  0  0  0  0  0  0
   -6.3907   -1.9022   -0.8695 S   0  0  0  0  0  0  0  0  0  0  0  0
   -7.5951   -2.0497   -2.2191 C   0  0  0  0  0  0  0  0  0  0  0  0
   -5.3286   -0.0523   -2.6774 C   0  0  0  0  0  0  0  0  0  0  0  0
   -4.3058    0.7758   -3.1011 C   0  0  0  0  0  0  0  0  0  0  0  0
    0.3237    1.9584   -2.1893 C   0  0  0  0  0  0  0  0  0  0  0  0
    0.5768    3.6620   -2.0681 S   0  0  0  0  0  0  0  0  0  0  0  0
    2.1598    3.3808   -1.3843 C   0  0  0  0  0  0  0  0  0  0  0  0
    2.5105    2.0352   -1.3472 C   0  0  0  0  0  0  0  0  0  0  0  0
    3.7542    1.5986   -0.9609 N   0  0  0  0  0  0  0  0  0  0  0  0
    3.9192    0.2625   -0.5033 C   0  0  0  0  0  0  0  0  0  0  0  0
    3.9528   -0.0190    0.8575 C   0  0  0  0  0  0  0  0  0  0  0  0
    4.0463   -1.3205    1.2973 C   0  0  0  0  0  0  0  0  0  0  0  0
    4.1012   -2.3699    0.3826 C   0  0  0  0  0  0  0  0  0  0  0  0
    4.1429   -3.9931    1.0660 S   0  0  0  0  0  0  0  0  0  0  0  0
    3.9287   -5.0765   -0.3723 C   0  0  0  0  0  0  0  0  0  0  0  0
    4.1223   -2.0896   -0.9770 C   0  0  0  0  0  0  0  0  0  0  0  0
    4.0382   -0.7792   -1.4134 C   0  0  0  0  0  0  0  0  0  0  0  0
    4.8635    2.4642   -1.0273 C   0  0  0  0  0  0  0  0  0  0  0  0
    5.0604    3.2276   -2.1817 C   0  0  0  0  0  0  0  0  0  0  0  0
    6.1150    4.1031   -2.2709 C   0  0  0  0  0  0  0  0  0  0  0  0
    7.0153    4.2400   -1.2125 C   0  0  0  0  0  0  0  0  0  0  0  0
    8.3067    5.4134   -1.4396 S   0  0  0  0  0  0  0  0  0  0  0  0
    9.3847    5.1846    0.0009 C   0  0  0  0  0  0  0  0  0  0  0  0
    6.8439    3.4605   -0.0775 C   0  0  0  0  0  0  0  0  0  0  0  0
    5.7830    2.5748    0.0083 C   0  0  0  0  0  0  0  0  0  0  0  0
    1.4411    1.2297   -1.8044 C   0  0  0  0  0  0  0  0  0  0  0  0
    1.1294   -0.4722   -1.8517 S   0  0  0  0  0  0  0  0  0  0  0  0
    2.8504    4.3762   -0.5914 C   0  0  0  0  0  0  0  0  0  0  0  0
    3.3842    5.5745   -1.0188 C   0  0  0  0  0  0  0  0  0  0  0  0
    3.2577    5.9429   -2.3020 F   0  0  0  0  0  0  0  0  0  0  0  0
    4.1160    6.3987   -0.1520 C   0  0  0  0  0  0  0  0  0  0  0  0
    4.6560    7.5193   -0.6465 F   0  0  0  0  0  0  0  0  0  0  0  0
    4.2853    6.1090    1.1936 C   0  0  0  0  0  0  0  0  0  0  0  0
    3.6774    4.9144    1.6833 C   0  0  0  0  0  0  0  0  0  0  0  0
    3.7657    4.5781    2.9746 N   0  0  0  0  0  0  0  0  0  0  0  0
    3.1095    3.5348    3.4368 C   0  0  0  0  0  0  0  0  0  0  0  0
    3.1478    3.3717    4.8736 C   0  0  0  0  0  0  0  0  0  0  0  0
    4.5596    3.8587    5.7578 S   0  0  0  0  0  0  0  0  0  0  0  0
    3.7973    3.5934    7.2853 C   0  0  0  0  0  0  0  0  0  0  0  0
    4.5174    3.7624    8.5776 C   0  0  0  0  0  0  0  0  0  0  0  0
    5.1828    2.4520    9.0076 C   0  0  0  0  0  0  0  0  0  0  0  0
    2.5152    3.1597    7.1000 C   0  0  0  0  0  0  0  0  0  0  0  0
    2.1396    3.0441    5.7431 C   0  0  0  0  0  0  0  0  0  0  0  0
    0.9065    2.6990    5.3606 F   0  0  0  0  0  0  0  0  0  0  0  0
    1.6823    2.8796    8.1087 F   0  0  0  0  0  0  0  0  0  0  0  0
    2.3952    2.6841    2.5384 C   0  0  0  0  0  0  0  0  0  0  0  0
    2.3748    2.9693    1.2556 N   0  0  0  0  0  0  0  0  0  0  0  0
    2.9717    4.0696    0.7953 C   0  0  0  0  0  0  0  0  0  0  0  0
    1.7652    1.4211    2.8602 C   0  0  0  0  0  0  0  0  0  0  0  0
    2.3206    0.3350    4.0952 S   0  0  0  0  0  0  0  0  0  0  0  0
    1.2849   -0.9422    3.5692 C   0  0  0  0  0  0  0  0  0  0  0  0
    1.2791   -2.2855    4.2107 C   0  0  0  0  0  0  0  0  0  0  0  0
    1.6029   -2.2201    5.6983 C   0  0  0  0  0  0  0  0  0  0  0  0
    0.5444   -0.5269    2.4999 C   0  0  0  0  0  0  0  0  0  0  0  0
   -0.3486   -1.3056    1.8739 F   0  0  0  0  0  0  0  0  0  0  0  0
    0.8192    0.7931    2.0855 C   0  0  0  0  0  0  0  0  0  0  0  0
    0.1847    1.3572    1.0577 F   0  0  0  0  0  0  0  0  0  0  0  0
    5.1049    6.8797    2.0866 C   0  0  0  0  0  0  0  0  0  0  0  0
    4.7733    7.0195    3.3986 C   0  0  0  0  0  0  0  0  0  0  0  0
    3.3720    6.8859    3.8935 C   0  0  0  0  0  0  0  0  0  0  0  0
    2.3520    6.8578    3.2445 O   0  0  0  0  0  0  0  0  0  0  0  0
    3.4717    6.9956    5.3666 C   0  0  0  0  0  0  0  0  0  0  0  0
    2.4717    6.8385    6.3052 C   0  0  0  0  0  0  0  0  0  0  0  0
    2.8158    6.9737    7.6405 C   0  0  0  0  0  0  0  0  0  0  0  0
    1.8896    6.7921    8.5892 F   0  0  0  0  0  0  0  0  0  0  0  0
    4.1252    7.2860    8.0074 C   0  0  0  0  0  0  0  0  0  0  0  0
    4.4302    7.4047    9.3059 F   0  0  0  0  0  0  0  0  0  0  0  0
    5.1255    7.4628    7.0646 C   0  0  0  0  0  0  0  0  0  0  0  0
    4.7947    7.3053    5.7264 C   0  0  0  0  0  0  0  0  0  0  0  0
    5.6229    7.3375    4.5241 C   0  0  0  0  0  0  0  0  0  0  0  0
    6.9875    7.4783    4.4987 C   0  0  0  0  0  0  0  0  0  0  0  0
    7.7804    7.3212    3.3456 C   0  0  0  0  0  0  0  0  0  0  0  0
    8.4953    7.1614    2.4610 N   0  0  0  0  0  0  0  0  0  0  0  0
    7.7804    7.7417    5.6341 C   0  0  0  0  0  0  0  0  0  0  0  0
    8.4734    7.9634    6.5221 N   0  0  0  0  0  0  0  0  0  0  0  0
   -6.9667   -7.5193   -0.6298 H   0  0  0  0  0  0  0  0  0  0  0  0
   -7.3422  -10.2994   -6.2059 H   0  0  0  0  0  0  0  0  0  0  0  0
   -8.1880  -13.7137   -6.4254 H   0  0  0  0  0  0  0  0  0  0  0  0
   -9.6259  -12.8637   -6.9607 H   0  0  0  0  0  0  0  0  0  0  0  0
   -8.0258  -12.2649   -7.4347 H   0  0  0  0  0  0  0  0  0  0  0  0
   -9.7815  -11.9885   -2.2125 H   0  0  0  0  0  0  0  0  0  0  0  0
   -4.7618   -6.4944   -0.3954 H   0  0  0  0  0  0  0  0  0  0  0  0
   -5.6602   -4.0525   -4.6337 H   0  0  0  0  0  0  0  0  0  0  0  0
   -7.1453   -5.8666   -3.9126 H   0  0  0  0  0  0  0  0  0  0  0  0
   -3.8016   -2.2083   -4.9126 H   0  0  0  0  0  0  0  0  0  0  0  0
   -2.0527   -0.5111   -4.5676 H   0  0  0  0  0  0  0  0  0  0  0  0
   -0.8790   -2.3711   -0.8862 H   0  0  0  0  0  0  0  0  0  0  0  0
   -3.9720    3.4678   -2.4757 H   0  0  0  0  0  0  0  0  0  0  0  0
   -4.1777    5.5926   -3.7050 H   0  0  0  0  0  0  0  0  0  0  0  0
   -0.8923    6.5002   -7.3145 H   0  0  0  0  0  0  0  0  0  0  0  0
   -0.2606    7.0093   -5.7142 H   0  0  0  0  0  0  0  0  0  0  0  0
   -1.0715    8.1827   -6.7772 H   0  0  0  0  0  0  0  0  0  0  0  0
   -0.6648    4.6309   -5.9467 H   0  0  0  0  0  0  0  0  0  0  0  0
   -0.4792    2.5193   -4.7543 H   0  0  0  0  0  0  0  0  0  0  0  0
   -2.2759    0.5535   -0.4088 H   0  0  0  0  0  0  0  0  0  0  0  0
   -4.0841   -0.9410    0.3309 H   0  0  0  0  0  0  0  0  0  0  0  0
   -8.1142   -1.1067   -2.3627 H   0  0  0  0  0  0  0  0  0  0  0  0
   -7.0926   -2.3715   -3.1263 H   0  0  0  0  0  0  0  0  0  0  0  0
   -8.2984   -2.8116   -1.8977 H   0  0  0  0  0  0  0  0  0  0  0  0
   -6.1835   -0.1915   -3.3190 H   0  0  0  0  0  0  0  0  0  0  0  0
   -4.3738    1.2598   -4.0643 H   0  0  0  0  0  0  0  0  0  0  0  0
    3.8911    0.7862    1.5700 H   0  0  0  0  0  0  0  0  0  0  0  0
    4.0695   -1.5408    2.3538 H   0  0  0  0  0  0  0  0  0  0  0  0
    3.0254   -4.7983   -0.9068 H   0  0  0  0  0  0  0  0  0  0  0  0
    4.8037   -5.0261   -1.0139 H   0  0  0  0  0  0  0  0  0  0  0  0
    3.8261   -6.0796    0.0299 H   0  0  0  0  0  0  0  0  0  0  0  0
    4.1988   -2.8785   -1.7072 H   0  0  0  0  0  0  0  0  0  0  0  0
    4.0551   -0.5651   -2.4714 H   0  0  0  0  0  0  0  0  0  0  0  0
    4.3704    3.1323   -3.0067 H   0  0  0  0  0  0  0  0  0  0  0  0
    6.2599    4.6942   -3.1619 H   0  0  0  0  0  0  0  0  0  0  0  0
   10.2567    5.8013   -0.1932 H   0  0  0  0  0  0  0  0  0  0  0  0
    8.8913    5.5348    0.9028 H   0  0  0  0  0  0  0  0  0  0  0  0
    9.6791    4.1422    0.0778 H   0  0  0  0  0  0  0  0  0  0  0  0
    7.5246    3.5368    0.7554 H   0  0  0  0  0  0  0  0  0  0  0  0
    5.6783    1.9707    0.8961 H   0  0  0  0  0  0  0  0  0  0  0  0
    5.2782    4.5372    8.4721 H   0  0  0  0  0  0  0  0  0  0  0  0
    3.8014    4.0716    9.3422 H   0  0  0  0  0  0  0  0  0  0  0  0
    4.4357    1.6737    9.1407 H   0  0  0  0  0  0  0  0  0  0  0  0
    5.7058    2.5967    9.9484 H   0  0  0  0  0  0  0  0  0  0  0  0
    5.8978    2.1269    8.2557 H   0  0  0  0  0  0  0  0  0  0  0  0
    2.0157   -2.9202    3.7050 H   0  0  0  0  0  0  0  0  0  0  0  0
    0.2973   -2.7373    4.0498 H   0  0  0  0  0  0  0  0  0  0  0  0
    2.5943   -1.7987    5.8521 H   0  0  0  0  0  0  0  0  0  0  0  0
    0.8789   -1.5989    6.2201 H   0  0  0  0  0  0  0  0  0  0  0  0
    1.5796   -3.2170    6.1292 H   0  0  0  0  0  0  0  0  0  0  0  0
    6.0310    7.2728    1.6894 H   0  0  0  0  0  0  0  0  0  0  0  0
    1.4590    6.6063    6.0158 H   0  0  0  0  0  0  0  0  0  0  0  0
    6.1191    7.7110    7.3999 H   0  0  0  0  0  0  0  0  0  0  0  0
  1  2  2  0  0  0  0
  2  3  1  0  0  0  0
  3  4  2  0  0  0  0
  3  5  1  0  0  0  0
  5  6  2  0  0  0  0
  6  7  1  0  0  0  0
  7  8  1  0  0  0  0
  7  9  2  0  0  0  0
  9 10  1  0  0  0  0
  9 11  1  0  0  0  0
 11 12  2  0  0  0  0
 12 13  1  0  0  0  0
 13 14  2  0  0  0  0
 14 15  1  0  0  0  0
 15 16  3  0  0  0  0
 14 17  1  0  0  0  0
 17 18  3  0  0  0  0
  1 19  1  0  0  0  0
 19 20  2  0  0  0  0
 20 21  1  0  0  0  0
 21 22  1  0  0  0  0
 22 23  2  0  0  0  0
 22 24  1  0  0  0  0
 24 25  2  0  0  0  0
 25 26  1  0  0  0  0
 26 27  1  0  0  0  0
 27 28  2  0  0  0  0
 25 29  1  0  0  0  0
 29 30  2  0  0  0  0
 30 31  1  0  0  0  0
 31 32  2  0  0  0  0
 31 33  1  0  0  0  0
 33 34  2  0  0  0  0
 34 35  1  0  0  0  0
 35 36  1  0  0  0  0
 36 37  2  0  0  0  0
 37 38  1  0  0  0  0
 38 39  2  0  0  0  0
 39 40  1  0  0  0  0
 40 41  1  0  0  0  0
 39 42  1  0  0  0  0
 42 43  2  0  0  0  0
 35 44  1  0  0  0  0
 44 45  2  0  0  0  0
 45 46  1  0  0  0  0
 46 47  2  0  0  0  0
 47 48  1  0  0  0  0
 48 49  1  0  0  0  0
 47 50  1  0  0  0  0
 50 51  2  0  0  0  0
 34 52  1  0  0  0  0
 52 53  1  0  0  0  0
 53 54  1  0  0  0  0
 54 55  2  0  0  0  0
 55 56  1  0  0  0  0
 56 57  1  0  0  0  0
 57 58  2  0  0  0  0
 58 59  1  0  0  0  0
 59 60  2  0  0  0  0
 60 61  1  0  0  0  0
 61 62  1  0  0  0  0
 60 63  1  0  0  0  0
 63 64  2  0  0  0  0
 56 65  1  0  0  0  0
 65 66  2  0  0  0  0
 66 67  1  0  0  0  0
 67 68  2  0  0  0  0
 68 69  1  0  0  0  0
 69 70  1  0  0  0  0
 68 71  1  0  0  0  0
 71 72  2  0  0  0  0
 55 73  1  0  0  0  0
 73 74  1  0  0  0  0
 54 75  1  0  0  0  0
 75 76  2  0  0  0  0
 76 77  1  0  0  0  0
 76 78  1  0  0  0  0
 78 79  1  0  0  0  0
 78 80  2  0  0  0  0
 80 81  1  0  0  0  0
 81 82  2  0  0  0  0
 82 83  1  0  0  0  0
 83 84  1  0  0  0  0
 84 85  1  0  0  0  0
 85 86  1  0  0  0  0
 86 87  1  0  0  0  0
 87 88  1  0  0  0  0
 86 89  2  0  0  0  0
 89 90  1  0  0  0  0
 90 91  1  0  0  0  0
 89 92  1  0  0  0  0
 83 93  2  0  0  0  0
 93 94  1  0  0  0  0
 94 95  2  0  0  0  0
 93 96  1  0  0  0  0
 96 97  1  0  0  0  0
 97 98  1  0  0  0  0
 98 99  1  0  0  0  0
 99100  1  0  0  0  0
 98101  2  0  0  0  0
101102  1  0  0  0  0
101103  1  0  0  0  0
103104  1  0  0  0  0
 80105  1  0  0  0  0
105106  2  0  0  0  0
106107  1  0  0  0  0
107108  2  0  0  0  0
107109  1  0  0  0  0
109110  2  0  0  0  0
110111  1  0  0  0  0
111112  1  0  0  0  0
111113  2  0  0  0  0
113114  1  0  0  0  0
113115  1  0  0  0  0
115116  2  0  0  0  0
116117  1  0  0  0  0
117118  2  0  0  0  0
118119  1  0  0  0  0
119120  3  0  0  0  0
118121  1  0  0  0  0
121122  3  0  0  0  0
 13  2  1  0  0  0  0
 28 19  1  0  0  0  0
 74 33  1  0  0  0  0
 95 75  1  0  0  0  0
103 96  2  0  0  0  0
117106  1  0  0  0  0
 12  5  1  0  0  0  0
 26 21  2  0  0  0  0
 43 36  1  0  0  0  0
 51 44  1  0  0  0  0
 73 52  2  0  0  0  0
 95 81  1  0  0  0  0
116109  1  0  0  0  0
 32 24  1  0  0  0  0
 64 57  1  0  0  0  0
 72 65  1  0  0  0  0
 90 84  2  0  0  0  0
  1123  1  0  0  0  0
  6124  1  0  0  0  0
  8125  1  0  0  0  0
  8126  1  0  0  0  0
  8127  1  0  0  0  0
 11128  1  0  0  0  0
 20129  1  0  0  0  0
 27130  1  0  0  0  0
 28131  1  0  0  0  0
 29132  1  0  0  0  0
 30133  1  0  0  0  0
 32134  1  0  0  0  0
 37135  1  0  0  0  0
 38136  1  0  0  0  0
 41137  1  0  0  0  0
 41138  1  0  0  0  0
 41139  1  0  0  0  0
 42140  1  0  0  0  0
 43141  1  0  0  0  0
 45142  1  0  0  0  0
 46143  1  0  0  0  0
 49144  1  0  0  0  0
 49145  1  0  0  0  0
 49146  1  0  0  0  0
 50147  1  0  0  0  0
 51148  1  0  0  0  0
 58149  1  0  0  0  0
 59150  1  0  0  0  0
 62151  1  0  0  0  0
 62152  1  0  0  0  0
 62153  1  0  0  0  0
 63154  1  0  0  0  0
 64155  1  0  0  0  0
 66156  1  0  0  0  0
 67157  1  0  0  0  0
 70158  1  0  0  0  0
 70159  1  0  0  0  0
 70160  1  0  0  0  0
 71161  1  0  0  0  0
 72162  1  0  0  0  0
 87163  1  0  0  0  0
 87164  1  0  0  0  0
 88165  1  0  0  0  0
 88166  1  0  0  0  0
 88167  1  0  0  0  0
 99168  1  0  0  0  0
 99169  1  0  0  0  0
100170  1  0  0  0  0
100171  1  0  0  0  0
100172  1  0  0  0  0
105173  1  0  0  0  0
110174  1  0  0  0  0
115175  1  0  0  0  0
M  END
