
  xtb     02112209323D
 energy: -342.104543884574 gnorm: 0.000711617197 xtb: 6.4.1 (unknown)
204222  0     0  0            999 V2000
  -12.7295   -0.2138   -1.1839 C   0  0  0  0  0  0  0  0  0  0  0  0
  -13.6385    0.7384   -0.8545 C   0  0  0  0  0  0  0  0  0  0  0  0
  -13.3679    2.1874   -0.6508 C   0  0  0  0  0  0  0  0  0  0  0  0
  -12.3999    2.8328   -0.9916 O   0  0  0  0  0  0  0  0  0  0  0  0
  -14.5203    2.6946    0.1173 C   0  0  0  0  0  0  0  0  0  0  0  0
  -14.7087    3.9625    0.6344 C   0  0  0  0  0  0  0  0  0  0  0  0
  -15.8710    4.2466    1.3409 C   0  0  0  0  0  0  0  0  0  0  0  0
  -16.1434    5.5923    1.9273 C   0  0  0  0  0  0  0  0  0  0  0  0
  -16.8025    3.2155    1.4926 C   0  0  0  0  0  0  0  0  0  0  0  0
  -17.9265    3.4809    2.1813 F   0  0  0  0  0  0  0  0  0  0  0  0
  -16.6405    1.9383    0.9828 C   0  0  0  0  0  0  0  0  0  0  0  0
  -15.4738    1.6754    0.2808 C   0  0  0  0  0  0  0  0  0  0  0  0
  -14.9885    0.4676   -0.3722 C   0  0  0  0  0  0  0  0  0  0  0  0
  -15.7029   -0.6811   -0.5707 C   0  0  0  0  0  0  0  0  0  0  0  0
  -17.0205   -0.8781   -0.1036 C   0  0  0  0  0  0  0  0  0  0  0  0
  -18.0894   -1.0911    0.2546 N   0  0  0  0  0  0  0  0  0  0  0  0
  -15.2456   -1.7985   -1.3034 C   0  0  0  0  0  0  0  0  0  0  0  0
  -14.9529   -2.7331   -1.9021 N   0  0  0  0  0  0  0  0  0  0  0  0
  -11.3816   -0.0342   -1.6599 C   0  0  0  0  0  0  0  0  0  0  0  0
  -10.4067   -0.9560   -1.2323 C   0  0  0  0  0  0  0  0  0  0  0  0
   -9.1055   -0.7758   -1.6258 C   0  0  0  0  0  0  0  0  0  0  0  0
   -7.8936   -1.5582   -1.2591 C   0  0  0  0  0  0  0  0  0  0  0  0
   -7.8304   -2.5418   -0.5621 O   0  0  0  0  0  0  0  0  0  0  0  0
   -6.7772   -0.8351   -1.9235 C   0  0  0  0  0  0  0  0  0  0  0  0
   -7.2924    0.2553   -2.6524 C   0  0  0  0  0  0  0  0  0  0  0  0
   -8.7371    0.2850   -2.4796 C   0  0  0  0  0  0  0  0  0  0  0  0
   -9.7048    1.1443   -2.9658 C   0  0  0  0  0  0  0  0  0  0  0  0
  -11.0166    0.9842   -2.5465 C   0  0  0  0  0  0  0  0  0  0  0  0
   -6.4322    1.1085   -3.3171 C   0  0  0  0  0  0  0  0  0  0  0  0
   -5.0670    0.9191   -3.1723 C   0  0  0  0  0  0  0  0  0  0  0  0
   -4.5511   -0.1219   -2.3967 C   0  0  0  0  0  0  0  0  0  0  0  0
   -5.4241   -1.0505   -1.8151 C   0  0  0  0  0  0  0  0  0  0  0  0
   -3.1353   -0.1587   -2.0775 C   0  0  0  0  0  0  0  0  0  0  0  0
   -2.3918    0.8983   -1.5898 C   0  0  0  0  0  0  0  0  0  0  0  0
   -2.8606    2.1805   -1.3331 N   0  0  0  0  0  0  0  0  0  0  0  0
   -1.9750    3.2514   -1.4885 C   0  0  0  0  0  0  0  0  0  0  0  0
   -1.9830    4.3257   -0.6034 C   0  0  0  0  0  0  0  0  0  0  0  0
   -1.0595    5.3461   -0.7243 C   0  0  0  0  0  0  0  0  0  0  0  0
   -0.1054    5.3072   -1.7320 C   0  0  0  0  0  0  0  0  0  0  0  0
    1.1598    6.5210   -1.9513 S   0  0  0  0  0  0  0  0  0  0  0  0
    0.7636    7.8026   -0.7302 C   0  0  0  0  0  0  0  0  0  0  0  0
   -0.1102    4.2495   -2.6382 C   0  0  0  0  0  0  0  0  0  0  0  0
   -1.0374    3.2392   -2.5242 C   0  0  0  0  0  0  0  0  0  0  0  0
   -4.1572    2.3601   -0.8342 C   0  0  0  0  0  0  0  0  0  0  0  0
   -4.9450    3.4219   -1.2678 C   0  0  0  0  0  0  0  0  0  0  0  0
   -6.2684    3.5203   -0.8828 C   0  0  0  0  0  0  0  0  0  0  0  0
   -6.8319    2.5480   -0.0674 C   0  0  0  0  0  0  0  0  0  0  0  0
   -8.5382    2.4904    0.3799 S   0  0  0  0  0  0  0  0  0  0  0  0
   -9.2994    3.7508   -0.6778 C   0  0  0  0  0  0  0  0  0  0  0  0
   -6.0231    1.5289    0.4336 C   0  0  0  0  0  0  0  0  0  0  0  0
   -4.7017    1.4407    0.0645 C   0  0  0  0  0  0  0  0  0  0  0  0
   -1.0713    0.4875   -1.2816 C   0  0  0  0  0  0  0  0  0  0  0  0
    0.2906    1.2851   -0.5971 S   0  0  0  0  0  0  0  0  0  0  0  0
    1.1857   -0.2288   -0.5688 C   0  0  0  0  0  0  0  0  0  0  0  0
    0.4771   -1.2694   -1.1201 C   0  0  0  0  0  0  0  0  0  0  0  0
    0.9822   -2.5432   -1.3933 N   0  0  0  0  0  0  0  0  0  0  0  0
    0.8554   -2.9887   -2.7138 C   0  0  0  0  0  0  0  0  0  0  0  0
    0.9909   -2.0805   -3.7663 C   0  0  0  0  0  0  0  0  0  0  0  0
    0.8359   -2.4957   -5.0692 C   0  0  0  0  0  0  0  0  0  0  0  0
    0.5514   -3.8283   -5.3587 C   0  0  0  0  0  0  0  0  0  0  0  0
    0.3797   -4.2416   -7.0680 S   0  0  0  0  0  0  0  0  0  0  0  0
   -0.0797   -5.9973   -7.0510 C   0  0  0  0  0  0  0  0  0  0  0  0
    0.4253   -4.7372   -4.3175 C   0  0  0  0  0  0  0  0  0  0  0  0
    0.5688   -4.3188   -3.0091 C   0  0  0  0  0  0  0  0  0  0  0  0
    1.3732   -3.4077   -0.3686 C   0  0  0  0  0  0  0  0  0  0  0  0
    2.4202   -4.3102   -0.5656 C   0  0  0  0  0  0  0  0  0  0  0  0
    2.7632   -5.2010    0.4260 C   0  0  0  0  0  0  0  0  0  0  0  0
    2.0781   -5.2082    1.6401 C   0  0  0  0  0  0  0  0  0  0  0  0
    2.5884   -6.4071    2.8298 S   0  0  0  0  0  0  0  0  0  0  0  0
    1.6212   -5.9980    4.3086 C   0  0  0  0  0  0  0  0  0  0  0  0
    1.0495   -4.3011    1.8450 C   0  0  0  0  0  0  0  0  0  0  0  0
    0.7024   -3.4084    0.8493 C   0  0  0  0  0  0  0  0  0  0  0  0
   -0.8260   -0.8534   -1.5049 C   0  0  0  0  0  0  0  0  0  0  0  0
   -2.2301   -1.6621   -2.1078 S   0  0  0  0  0  0  0  0  0  0  0  0
    2.5534   -0.1829   -0.1062 C   0  0  0  0  0  0  0  0  0  0  0  0
    3.0736   -0.4741    1.1375 C   0  0  0  0  0  0  0  0  0  0  0  0
    2.3399   -0.9330    2.2235 N   0  0  0  0  0  0  0  0  0  0  0  0
    2.9451   -1.8574    3.0849 C   0  0  0  0  0  0  0  0  0  0  0  0
    3.8292   -2.8031    2.5679 C   0  0  0  0  0  0  0  0  0  0  0  0
    4.4662   -3.6938    3.4052 C   0  0  0  0  0  0  0  0  0  0  0  0
    4.2295   -3.6854    4.7746 C   0  0  0  0  0  0  0  0  0  0  0  0
    4.9338   -4.6604    5.6667 C   0  0  0  0  0  0  0  0  0  0  0  0
    3.3362   -2.7506    5.2811 C   0  0  0  0  0  0  0  0  0  0  0  0
    2.7056   -1.8393    4.4552 C   0  0  0  0  0  0  0  0  0  0  0  0
    1.1302   -0.2995    2.5452 C   0  0  0  0  0  0  0  0  0  0  0  0
    0.0615   -1.0152    3.0803 C   0  0  0  0  0  0  0  0  0  0  0  0
   -1.1474   -0.3921    3.3205 C   0  0  0  0  0  0  0  0  0  0  0  0
   -1.3288    0.9589    3.0512 C   0  0  0  0  0  0  0  0  0  0  0  0
   -2.6469    1.6320    3.2851 C   0  0  0  0  0  0  0  0  0  0  0  0
   -0.2420    1.6808    2.5745 C   0  0  0  0  0  0  0  0  0  0  0  0
    0.9705    1.0675    2.3288 C   0  0  0  0  0  0  0  0  0  0  0  0
    4.4614   -0.1733    1.1945 C   0  0  0  0  0  0  0  0  0  0  0  0
    5.6713   -0.3645    2.4093 S   0  0  0  0  0  0  0  0  0  0  0  0
    6.8520    0.4464    1.3717 C   0  0  0  0  0  0  0  0  0  0  0  0
    6.3113    0.7644    0.0986 C   0  0  0  0  0  0  0  0  0  0  0  0
    6.9723    1.3722   -0.9333 N   0  0  0  0  0  0  0  0  0  0  0  0
    6.2353    2.2340   -1.7738 C   0  0  0  0  0  0  0  0  0  0  0  0
    5.3647    3.1665   -1.2163 C   0  0  0  0  0  0  0  0  0  0  0  0
    4.6196    3.9955   -2.0315 C   0  0  0  0  0  0  0  0  0  0  0  0
    4.7332    3.9261   -3.4141 C   0  0  0  0  0  0  0  0  0  0  0  0
    3.9369    4.8327   -4.2999 C   0  0  0  0  0  0  0  0  0  0  0  0
    5.6207    3.0044   -3.9608 C   0  0  0  0  0  0  0  0  0  0  0  0
    6.3634    2.1630   -3.1573 C   0  0  0  0  0  0  0  0  0  0  0  0
    8.3177    1.1067   -1.2420 C   0  0  0  0  0  0  0  0  0  0  0  0
    8.8468   -0.1699   -1.0654 C   0  0  0  0  0  0  0  0  0  0  0  0
   10.1719   -0.4155   -1.3631 C   0  0  0  0  0  0  0  0  0  0  0  0
   10.9950    0.5893   -1.8592 C   0  0  0  0  0  0  0  0  0  0  0  0
   12.4396    0.3326   -2.1581 C   0  0  0  0  0  0  0  0  0  0  0  0
   10.4484    1.8511   -2.0610 C   0  0  0  0  0  0  0  0  0  0  0  0
    9.1290    2.1165   -1.7539 C   0  0  0  0  0  0  0  0  0  0  0  0
    4.9528    0.4056    0.0337 C   0  0  0  0  0  0  0  0  0  0  0  0
    3.7360    0.5339   -1.1918 S   0  0  0  0  0  0  0  0  0  0  0  0
    8.1175    0.8542    1.7840 C   0  0  0  0  0  0  0  0  0  0  0  0
    8.7995    0.6094    2.9564 C   0  0  0  0  0  0  0  0  0  0  0  0
    8.3890   -0.3049    4.0235 C   0  0  0  0  0  0  0  0  0  0  0  0
    7.3415   -0.9196    4.1261 O   0  0  0  0  0  0  0  0  0  0  0  0
    9.5264   -0.3658    4.9640 C   0  0  0  0  0  0  0  0  0  0  0  0
    9.6439   -1.0966    6.1287 C   0  0  0  0  0  0  0  0  0  0  0  0
   10.8135   -1.0069    6.8762 C   0  0  0  0  0  0  0  0  0  0  0  0
   11.0109   -1.7662    8.1478 C   0  0  0  0  0  0  0  0  0  0  0  0
   11.8204   -0.1688    6.3968 C   0  0  0  0  0  0  0  0  0  0  0  0
   12.9585   -0.0766    7.1130 F   0  0  0  0  0  0  0  0  0  0  0  0
   11.7262    0.5770    5.2322 C   0  0  0  0  0  0  0  0  0  0  0  0
   10.5535    0.4739    4.5026 C   0  0  0  0  0  0  0  0  0  0  0  0
   10.1128    1.1200    3.2666 C   0  0  0  0  0  0  0  0  0  0  0  0
   10.8264    2.0665    2.5713 C   0  0  0  0  0  0  0  0  0  0  0  0
   12.1372    2.4639    2.9013 C   0  0  0  0  0  0  0  0  0  0  0  0
   13.2097    2.8214    3.1047 N   0  0  0  0  0  0  0  0  0  0  0  0
   10.3533    2.8011    1.4677 C   0  0  0  0  0  0  0  0  0  0  0  0
   10.0370    3.4712    0.5881 N   0  0  0  0  0  0  0  0  0  0  0  0
  -13.0055   -1.2477   -1.0077 H   0  0  0  0  0  0  0  0  0  0  0  0
  -13.9536    4.7198    0.4872 H   0  0  0  0  0  0  0  0  0  0  0  0
  -17.0363    6.0241    1.4760 H   0  0  0  0  0  0  0  0  0  0  0  0
  -16.3324    5.5051    2.9966 H   0  0  0  0  0  0  0  0  0  0  0  0
  -15.3041    6.2623    1.7657 H   0  0  0  0  0  0  0  0  0  0  0  0
  -17.4069    1.1997    1.1506 H   0  0  0  0  0  0  0  0  0  0  0  0
  -10.6706   -1.7694   -0.5728 H   0  0  0  0  0  0  0  0  0  0  0  0
   -9.4512    1.9329   -3.6586 H   0  0  0  0  0  0  0  0  0  0  0  0
  -11.7768    1.6442   -2.9312 H   0  0  0  0  0  0  0  0  0  0  0  0
   -6.8060    1.9289   -3.9109 H   0  0  0  0  0  0  0  0  0  0  0  0
   -4.3807    1.5992   -3.6547 H   0  0  0  0  0  0  0  0  0  0  0  0
   -5.0403   -1.8774   -1.2365 H   0  0  0  0  0  0  0  0  0  0  0  0
   -2.7097    4.3528    0.1954 H   0  0  0  0  0  0  0  0  0  0  0  0
   -1.0866    6.1558   -0.0127 H   0  0  0  0  0  0  0  0  0  0  0  0
   -0.2381    8.1832   -0.9071 H   0  0  0  0  0  0  0  0  0  0  0  0
    0.8650    7.4051    0.2755 H   0  0  0  0  0  0  0  0  0  0  0  0
    1.4917    8.5921   -0.8883 H   0  0  0  0  0  0  0  0  0  0  0  0
    0.6224    4.2294   -3.4300 H   0  0  0  0  0  0  0  0  0  0  0  0
   -1.0385    2.4281   -3.2370 H   0  0  0  0  0  0  0  0  0  0  0  0
   -4.5226    4.1622   -1.9315 H   0  0  0  0  0  0  0  0  0  0  0  0
   -6.8546    4.3501   -1.2433 H   0  0  0  0  0  0  0  0  0  0  0  0
   -8.9712    3.6062   -1.7018 H   0  0  0  0  0  0  0  0  0  0  0  0
   -9.0494    4.7445   -0.3166 H   0  0  0  0  0  0  0  0  0  0  0  0
  -10.3701    3.5840   -0.6136 H   0  0  0  0  0  0  0  0  0  0  0  0
   -6.4531    0.8007    1.1040 H   0  0  0  0  0  0  0  0  0  0  0  0
   -4.0850    0.6429    0.4499 H   0  0  0  0  0  0  0  0  0  0  0  0
    1.2259   -1.0476   -3.5556 H   0  0  0  0  0  0  0  0  0  0  0  0
    0.9402   -1.7927   -5.8814 H   0  0  0  0  0  0  0  0  0  0  0  0
   -1.0034   -6.1324   -6.4962 H   0  0  0  0  0  0  0  0  0  0  0  0
    0.7264   -6.5903   -6.6290 H   0  0  0  0  0  0  0  0  0  0  0  0
   -0.2306   -6.2692   -8.0909 H   0  0  0  0  0  0  0  0  0  0  0  0
    0.2031   -5.7750   -4.5062 H   0  0  0  0  0  0  0  0  0  0  0  0
    0.4483   -5.0316   -2.2072 H   0  0  0  0  0  0  0  0  0  0  0  0
    2.9541   -4.3076   -1.5043 H   0  0  0  0  0  0  0  0  0  0  0  0
    3.5695   -5.9024    0.2753 H   0  0  0  0  0  0  0  0  0  0  0  0
    1.9673   -6.6775    5.0812 H   0  0  0  0  0  0  0  0  0  0  0  0
    1.8226   -4.9712    4.6018 H   0  0  0  0  0  0  0  0  0  0  0  0
    0.5640   -6.1645    4.1227 H   0  0  0  0  0  0  0  0  0  0  0  0
    0.4959   -4.2959    2.7701 H   0  0  0  0  0  0  0  0  0  0  0  0
   -0.1125   -2.7163    1.0028 H   0  0  0  0  0  0  0  0  0  0  0  0
    4.0069   -2.8399    1.5034 H   0  0  0  0  0  0  0  0  0  0  0  0
    5.1519   -4.4162    2.9887 H   0  0  0  0  0  0  0  0  0  0  0  0
    4.5008   -4.6643    6.6643 H   0  0  0  0  0  0  0  0  0  0  0  0
    5.9863   -4.3904    5.7486 H   0  0  0  0  0  0  0  0  0  0  0  0
    4.8793   -5.6657    5.2517 H   0  0  0  0  0  0  0  0  0  0  0  0
    3.1385   -2.7212    6.3438 H   0  0  0  0  0  0  0  0  0  0  0  0
    2.0363   -1.1027    4.8745 H   0  0  0  0  0  0  0  0  0  0  0  0
    0.1840   -2.0628    3.3035 H   0  0  0  0  0  0  0  0  0  0  0  0
   -1.9700   -0.9715    3.7157 H   0  0  0  0  0  0  0  0  0  0  0  0
   -3.4398    0.9013    3.4248 H   0  0  0  0  0  0  0  0  0  0  0  0
   -2.5988    2.2577    4.1768 H   0  0  0  0  0  0  0  0  0  0  0  0
   -2.9066    2.2717    2.4428 H   0  0  0  0  0  0  0  0  0  0  0  0
   -0.3483    2.7382    2.3787 H   0  0  0  0  0  0  0  0  0  0  0  0
    1.8017    1.6488    1.9560 H   0  0  0  0  0  0  0  0  0  0  0  0
    5.2782    3.2365   -0.1415 H   0  0  0  0  0  0  0  0  0  0  0  0
    3.9404    4.7094   -1.5893 H   0  0  0  0  0  0  0  0  0  0  0  0
    3.1522    5.3339   -3.7385 H   0  0  0  0  0  0  0  0  0  0  0  0
    3.4888    4.2723   -5.1186 H   0  0  0  0  0  0  0  0  0  0  0  0
    4.5848    5.5936   -4.7351 H   0  0  0  0  0  0  0  0  0  0  0  0
    5.7232    2.9382   -5.0342 H   0  0  0  0  0  0  0  0  0  0  0  0
    7.0387    1.4423   -3.5942 H   0  0  0  0  0  0  0  0  0  0  0  0
    8.2174   -0.9629   -0.6883 H   0  0  0  0  0  0  0  0  0  0  0  0
   10.5706   -1.4088   -1.2148 H   0  0  0  0  0  0  0  0  0  0  0  0
   13.0669    0.8292   -1.4175 H   0  0  0  0  0  0  0  0  0  0  0  0
   12.7059    0.7292   -3.1360 H   0  0  0  0  0  0  0  0  0  0  0  0
   12.6607   -0.7315   -2.1372 H   0  0  0  0  0  0  0  0  0  0  0  0
   11.0703    2.6451   -2.4456 H   0  0  0  0  0  0  0  0  0  0  0  0
    8.7254    3.1065   -1.8950 H   0  0  0  0  0  0  0  0  0  0  0  0
    8.6412    1.4619    1.0570 H   0  0  0  0  0  0  0  0  0  0  0  0
    8.8290   -1.7266    6.4517 H   0  0  0  0  0  0  0  0  0  0  0  0
   11.8744   -2.4252    8.0620 H   0  0  0  0  0  0  0  0  0  0  0  0
   11.2090   -1.0788    8.9695 H   0  0  0  0  0  0  0  0  0  0  0  0
   10.1323   -2.3596    8.3835 H   0  0  0  0  0  0  0  0  0  0  0  0
   12.5534    1.2007    4.9364 H   0  0  0  0  0  0  0  0  0  0  0  0
  1  2  2  0  0  0  0
  2  3  1  0  0  0  0
  3  4  2  0  0  0  0
  3  5  1  0  0  0  0
  5  6  2  0  0  0  0
  6  7  1  0  0  0  0
  7  8  1  0  0  0  0
  7  9  2  0  0  0  0
  9 10  1  0  0  0  0
  9 11  1  0  0  0  0
 11 12  2  0  0  0  0
 12 13  1  0  0  0  0
 13 14  2  0  0  0  0
 14 15  1  0  0  0  0
 15 16  3  0  0  0  0
 14 17  1  0  0  0  0
 17 18  3  0  0  0  0
  1 19  1  0  0  0  0
 19 20  2  0  0  0  0
 20 21  1  0  0  0  0
 21 22  1  0  0  0  0
 22 23  2  0  0  0  0
 22 24  1  0  0  0  0
 24 25  2  0  0  0  0
 25 26  1  0  0  0  0
 26 27  1  0  0  0  0
 27 28  2  0  0  0  0
 25 29  1  0  0  0  0
 29 30  2  0  0  0  0
 30 31  1  0  0  0  0
 31 32  2  0  0  0  0
 31 33  1  0  0  0  0
 33 34  2  0  0  0  0
 34 35  1  0  0  0  0
 35 36  1  0  0  0  0
 36 37  2  0  0  0  0
 37 38  1  0  0  0  0
 38 39  2  0  0  0  0
 39 40  1  0  0  0  0
 40 41  1  0  0  0  0
 39 42  1  0  0  0  0
 42 43  2  0  0  0  0
 35 44  1  0  0  0  0
 44 45  2  0  0  0  0
 45 46  1  0  0  0  0
 46 47  2  0  0  0  0
 47 48  1  0  0  0  0
 48 49  1  0  0  0  0
 47 50  1  0  0  0  0
 50 51  2  0  0  0  0
 34 52  1  0  0  0  0
 52 53  1  0  0  0  0
 53 54  1  0  0  0  0
 54 55  2  0  0  0  0
 55 56  1  0  0  0  0
 56 57  1  0  0  0  0
 57 58  2  0  0  0  0
 58 59  1  0  0  0  0
 59 60  2  0  0  0  0
 60 61  1  0  0  0  0
 61 62  1  0  0  0  0
 60 63  1  0  0  0  0
 63 64  2  0  0  0  0
 56 65  1  0  0  0  0
 65 66  2  0  0  0  0
 66 67  1  0  0  0  0
 67 68  2  0  0  0  0
 68 69  1  0  0  0  0
 69 70  1  0  0  0  0
 68 71  1  0  0  0  0
 71 72  2  0  0  0  0
 55 73  1  0  0  0  0
 73 74  1  0  0  0  0
 54 75  1  0  0  0  0
 75 76  2  0  0  0  0
 76 77  1  0  0  0  0
 77 78  1  0  0  0  0
 78 79  2  0  0  0  0
 79 80  1  0  0  0  0
 80 81  2  0  0  0  0
 81 82  1  0  0  0  0
 81 83  1  0  0  0  0
 83 84  2  0  0  0  0
 77 85  1  0  0  0  0
 85 86  2  0  0  0  0
 86 87  1  0  0  0  0
 87 88  2  0  0  0  0
 88 89  1  0  0  0  0
 88 90  1  0  0  0  0
 90 91  2  0  0  0  0
 76 92  1  0  0  0  0
 92 93  1  0  0  0  0
 93 94  1  0  0  0  0
 94 95  2  0  0  0  0
 95 96  1  0  0  0  0
 96 97  1  0  0  0  0
 97 98  2  0  0  0  0
 98 99  1  0  0  0  0
 99100  2  0  0  0  0
100101  1  0  0  0  0
100102  1  0  0  0  0
102103  2  0  0  0  0
 96104  1  0  0  0  0
104105  2  0  0  0  0
105106  1  0  0  0  0
106107  2  0  0  0  0
107108  1  0  0  0  0
107109  1  0  0  0  0
109110  2  0  0  0  0
 95111  1  0  0  0  0
111112  1  0  0  0  0
 94113  1  0  0  0  0
113114  2  0  0  0  0
114115  1  0  0  0  0
115116  2  0  0  0  0
115117  1  0  0  0  0
117118  2  0  0  0  0
118119  1  0  0  0  0
119120  1  0  0  0  0
119121  2  0  0  0  0
121122  1  0  0  0  0
121123  1  0  0  0  0
123124  2  0  0  0  0
124125  1  0  0  0  0
125126  2  0  0  0  0
126127  1  0  0  0  0
127128  3  0  0  0  0
126129  1  0  0  0  0
129130  3  0  0  0  0
 13  2  1  0  0  0  0
 28 19  1  0  0  0  0
 74 33  1  0  0  0  0
112 75  1  0  0  0  0
125114  1  0  0  0  0
 12  5  1  0  0  0  0
 26 21  2  0  0  0  0
 43 36  1  0  0  0  0
 51 44  1  0  0  0  0
 73 52  2  0  0  0  0
 84 78  1  0  0  0  0
 91 85  1  0  0  0  0
111 92  2  0  0  0  0
124117  1  0  0  0  0
 32 24  1  0  0  0  0
 64 57  1  0  0  0  0
 72 65  1  0  0  0  0
103 97  1  0  0  0  0
110104  1  0  0  0  0
  1131  1  0  0  0  0
  6132  1  0  0  0  0
  8133  1  0  0  0  0
  8134  1  0  0  0  0
  8135  1  0  0  0  0
 11136  1  0  0  0  0
 20137  1  0  0  0  0
 27138  1  0  0  0  0
 28139  1  0  0  0  0
 29140  1  0  0  0  0
 30141  1  0  0  0  0
 32142  1  0  0  0  0
 37143  1  0  0  0  0
 38144  1  0  0  0  0
 41145  1  0  0  0  0
 41146  1  0  0  0  0
 41147  1  0  0  0  0
 42148  1  0  0  0  0
 43149  1  0  0  0  0
 45150  1  0  0  0  0
 46151  1  0  0  0  0
 49152  1  0  0  0  0
 49153  1  0  0  0  0
 49154  1  0  0  0  0
 50155  1  0  0  0  0
 51156  1  0  0  0  0
 58157  1  0  0  0  0
 59158  1  0  0  0  0
 62159  1  0  0  0  0
 62160  1  0  0  0  0
 62161  1  0  0  0  0
 63162  1  0  0  0  0
 64163  1  0  0  0  0
 66164  1  0  0  0  0
 67165  1  0  0  0  0
 70166  1  0  0  0  0
 70167  1  0  0  0  0
 70168  1  0  0  0  0
 71169  1  0  0  0  0
 72170  1  0  0  0  0
 79171  1  0  0  0  0
 80172  1  0  0  0  0
 82173  1  0  0  0  0
 82174  1  0  0  0  0
 82175  1  0  0  0  0
 83176  1  0  0  0  0
 84177  1  0  0  0  0
 86178  1  0  0  0  0
 87179  1  0  0  0  0
 89180  1  0  0  0  0
 89181  1  0  0  0  0
 89182  1  0  0  0  0
 90183  1  0  0  0  0
 91184  1  0  0  0  0
 98185  1  0  0  0  0
 99186  1  0  0  0  0
101187  1  0  0  0  0
101188  1  0  0  0  0
101189  1  0  0  0  0
102190  1  0  0  0  0
103191  1  0  0  0  0
105192  1  0  0  0  0
106193  1  0  0  0  0
108194  1  0  0  0  0
108195  1  0  0  0  0
108196  1  0  0  0  0
109197  1  0  0  0  0
110198  1  0  0  0  0
113199  1  0  0  0  0
118200  1  0  0  0  0
120201  1  0  0  0  0
120202  1  0  0  0  0
120203  1  0  0  0  0
123204  1  0  0  0  0
M  END
