147

C         -0.58800        0.45420       -8.48300
C         -0.15140       -0.54010       -9.31720
C          0.83960       -1.57690       -8.94460
O          1.42050       -1.71660       -7.88910
C          1.10970       -2.32710      -10.19030
C          1.95510       -3.40230      -10.37640
C          2.08730       -3.95720      -11.64480
C          2.97770       -5.12520      -11.91860
C          1.35070       -3.37950      -12.67990
F          1.47580       -3.90730      -13.91380
C          0.50270       -2.29540      -12.52180
C          0.38230       -1.76050      -11.24900
C         -0.40460       -0.64140      -10.73590
C         -1.27160        0.12420      -11.47480
C         -2.07390        1.16600      -10.97160
N         -2.77240        2.02300      -10.65790
C         -1.48500       -0.03640      -12.85920
N         -1.69980       -0.10940      -13.98490
C         -0.52250        0.43830       -7.06950
C         -0.36480        1.64060       -6.34280
C         -0.28180        1.69030       -4.89890
N          0.00080        2.91910       -4.46310
S          0.13040        3.90800       -5.72280
N         -0.16900        2.84090       -6.88860
C         -0.43020        0.53660       -4.09620
C         -0.53700       -0.66880       -4.82570
N         -0.67030       -1.87530       -4.27380
S         -0.90010       -2.95540       -5.44120
N         -0.86120       -1.95930       -6.69470
C         -0.62050       -0.72030       -6.26760
C         -0.45520        0.53150       -2.68080
C         -0.85600        1.54060       -1.78870
N         -1.61110        2.64170       -2.10620
C         -1.49200        3.80440       -1.33400
C         -2.62530        4.54320       -0.99130
C         -2.50250        5.67440       -0.21870
C         -1.24960        6.09450        0.23060
S         -1.22600        7.54900        1.22380
C          0.52300        7.75710        1.66180
C         -0.11870        5.36960       -0.12310
C         -0.24130        4.23570       -0.90120
C         -2.46720        2.62130       -3.21390
C         -3.13600        1.44900       -3.57520
C         -3.80860        1.37460       -4.77140
C         -3.84380        2.47260       -5.63390
S         -4.57150        2.22930       -7.21360
C         -3.91480        3.61320       -8.18460
C         -3.29770        3.68000       -5.21160
C         -2.62100        3.75350       -4.01080
C         -0.53220        1.17830       -0.46030
S         -0.72690        1.95020        1.07580
C         -0.04830        0.55050        1.88970
C          0.23520       -0.48980        1.01230
N          0.61200       -1.76790        1.37040
C          1.36810       -2.54310        0.47830
C          2.42290       -1.97800       -0.23920
C          3.13700       -2.74010       -1.13580
C          2.82120       -4.08340       -1.33110
S          3.79410       -4.95210       -2.51720
C          2.99990       -6.58110       -2.62650
C          1.79130       -4.65650       -0.59560
C          1.07170       -3.89070        0.29930
C          0.22520       -2.30850        2.60810
C         -1.04270       -2.05560        3.13410
C         -1.34510       -2.43620        4.42000
C         -0.39990       -3.09850        5.20460
S         -0.84080       -3.39070        6.88380
C          0.66550       -4.08180        7.61570
C          0.81720       -3.45870        4.64010
C          1.12750       -3.06020        3.35530
C         -0.01190       -0.10020       -0.32900
S          0.09610       -0.91590       -1.85300
C          0.10220        0.56890        3.32620
C          1.20200       -0.06620        3.93160
C          1.24230       -0.14610        5.30160
C          2.24820       -0.80940        6.16900
O          3.21830       -1.44650        5.83310
C          1.77880       -0.53310        7.55570
C          0.56820        0.18940        7.50040
C          0.23620        0.42900        6.10600
C         -0.80420        1.12120        5.51480
C         -0.85910        1.18460        4.13150
C         -0.04890        0.58510        8.67450
C          0.54970        0.27170        9.88200
C          1.76120       -0.43100        9.95040
C          2.37930       -0.83540        8.75160
C          2.45950       -0.64060       11.18900
C          2.01180       -0.64120       12.46990
C          2.98780       -0.41250       13.57430
O          4.19130       -0.46400       13.50300
C          2.16020       -0.05140       14.74750
C          2.57210        0.38500       15.99160
C          1.59280        0.69070       16.92290
F          1.94640        1.12200       18.13860
C          0.23930        0.55750       16.60610
F         -0.68150        0.87370       17.52180
C         -0.17600        0.10870       15.36170
C          0.79860       -0.19780       14.42510
C          0.69040       -0.71250       13.06260
C         -0.38880       -1.37850       12.54520
C         -1.63370       -1.48980       13.19690
N         -2.66820       -1.58120       13.68470
C         -0.31810       -2.10480       11.33980
N         -0.26690       -2.75790       10.39840
H         -0.97660        1.36940       -8.91250
H          2.50310       -3.80500       -9.53810
H          3.71250       -4.86680      -12.68040
H          3.49470       -5.43650      -11.01560
H          2.39400       -5.96130      -12.30250
H         -0.02260       -1.90680      -13.37840
H         -3.59750        4.21570       -1.32790
H         -3.37550        6.24570        0.05650
H          0.87450        6.88670        2.20800
H          0.56050        8.63360        2.30110
H          1.11360        7.93010        0.76690
H          0.86400        5.67910        0.19300
H          0.63940        3.68460       -1.19450
H         -3.09670        0.58640       -2.92720
H         -4.29610        0.45910       -5.06900
H         -2.84970        3.70750       -7.99580
H         -4.07390        3.34230       -9.22350
H         -4.44680        4.52980       -7.94620
H         -3.37350        4.56350       -5.82470
H         -2.15750        4.68170       -3.71160
H          2.67890       -0.94000       -0.08720
H          3.95010       -2.30550       -1.69630
H          3.09980       -7.11190       -1.68410
H          3.53540       -7.11460       -3.40570
H          1.95760       -6.46430       -2.90800
H          1.53200       -5.69580       -0.71500
H          0.26450       -4.33600        0.86190
H         -1.77530       -1.53200        2.53850
H         -2.31140       -2.21160        4.84420
H          0.47720       -4.09760        8.68430
H          0.83290       -5.08880        7.24440
H          1.50930       -3.43380        7.39930
H          1.54820       -4.01860        5.19920
H          2.09480       -3.30160        2.94080
H          2.00690       -0.46780        3.33680
H         -1.57260        1.58920        6.11070
H         -1.68050        1.69830        3.65300
H         -0.97160        1.14440        8.65540
H          0.09930        0.63100       10.79560
H          3.31450       -1.37520        8.77510
H          3.53970       -0.71860       11.09870
H          3.61760        0.48700       16.23540
H         -1.23150        0.02260       15.16000
