175

C         -6.88100       -7.42520       -1.70650
C         -7.51210       -8.35070       -2.47250
C         -7.23420       -8.64320       -3.90820
O         -6.57270       -8.00320       -4.69430
C         -7.88470       -9.94150       -4.17300
C         -7.87520      -10.67380       -5.34510
C         -8.55690      -11.88330       -5.40090
C         -8.59600      -12.72510       -6.63320
C         -9.22230      -12.30260       -4.24520
F         -9.87940      -13.47510       -4.28900
C         -9.24710      -11.58940       -3.05870
C         -8.56410      -10.38260       -3.02530
C         -8.39660       -9.39460       -1.96780
C         -9.02780       -9.40560       -0.75500
C         -9.89140      -10.43670       -0.32490
N        -10.59690      -11.24620        0.07920
C         -8.94160       -8.38090        0.21330
N         -8.94480       -7.58170        1.03700
C         -6.03460       -6.34360       -2.14290
C         -4.95270       -5.97290       -1.32150
C         -4.12620       -4.95720       -1.73030
C         -2.91600       -4.39610       -1.06680
O         -2.38570       -4.77870       -0.05250
C         -2.50270       -3.27160       -1.94910
C         -3.36120       -3.21480       -3.06530
C         -4.36540       -4.25790       -2.93150
C         -5.45260       -4.58810       -3.71920
C         -6.27790       -5.62710       -3.31970
C         -3.17960       -2.24390       -4.03120
C         -2.19620       -1.28910       -3.83240
C         -1.38820       -1.29790       -2.69220
C         -1.50980       -2.33940       -1.76190
C         -0.48990       -0.18810       -2.43920
C         -0.79300        1.15970       -2.53980
N         -2.05880        1.65890       -2.80960
C         -2.19950        2.85310       -3.51640
C         -3.25560        3.72430       -3.24120
C         -3.36850        4.91310       -3.92400
C         -2.42930        5.26840       -4.89150
S         -2.65980        6.82290       -5.69360
C         -1.04280        7.14670       -6.45450
C         -1.39090        4.39570       -5.18560
C         -1.28160        3.19860       -4.50680
C         -3.17260        0.96080       -2.31560
C         -3.12430        0.37190       -1.05040
C         -4.13510       -0.46100       -0.63400
C         -5.22890       -0.71420       -1.46180
S         -6.39070       -1.90220       -0.86950
C         -7.59510       -2.04970       -2.21910
C         -5.32860       -0.05230       -2.67740
C         -4.30580        0.77580       -3.10110
C          0.32370        1.95840       -2.18930
S          0.57680        3.66200       -2.06810
C          2.15980        3.38080       -1.38430
C          2.51050        2.03520       -1.34720
N          3.75420        1.59860       -0.96090
C          3.91920        0.26250       -0.50330
C          3.95280       -0.01900        0.85750
C          4.04630       -1.32050        1.29730
C          4.10120       -2.36990        0.38260
S          4.14290       -3.99310        1.06600
C          3.92870       -5.07650       -0.37230
C          4.12230       -2.08960       -0.97700
C          4.03820       -0.77920       -1.41340
C          4.86350        2.46420       -1.02730
C          5.06040        3.22760       -2.18170
C          6.11500        4.10310       -2.27090
C          7.01530        4.24000       -1.21250
S          8.30670        5.41340       -1.43960
C          9.38470        5.18460        0.00090
C          6.84390        3.46050       -0.07750
C          5.78300        2.57480        0.00830
C          1.44110        1.22970       -1.80440
S          1.12940       -0.47220       -1.85170
C          2.85040        4.37620       -0.59140
C          3.38420        5.57450       -1.01880
F          3.25770        5.94290       -2.30200
C          4.11600        6.39870       -0.15200
F          4.65600        7.51930       -0.64650
C          4.28530        6.10900        1.19360
C          3.67740        4.91440        1.68330
N          3.76570        4.57810        2.97460
C          3.10950        3.53480        3.43680
C          3.14780        3.37170        4.87360
S          4.55960        3.85870        5.75780
C          3.79730        3.59340        7.28530
C          4.51740        3.76240        8.57760
C          5.18280        2.45200        9.00760
C          2.51520        3.15970        7.10000
C          2.13960        3.04410        5.74310
F          0.90650        2.69900        5.36060
F          1.68230        2.87960        8.10870
C          2.39520        2.68410        2.53840
N          2.37480        2.96930        1.25560
C          2.97170        4.06960        0.79530
C          1.76520        1.42110        2.86020
S          2.32060        0.33500        4.09520
C          1.28490       -0.94220        3.56920
C          1.27910       -2.28550        4.21070
C          1.60290       -2.22010        5.69830
C          0.54440       -0.52690        2.49990
F         -0.34860       -1.30560        1.87390
C          0.81920        0.79310        2.08550
F          0.18470        1.35720        1.05770
C          5.10490        6.87970        2.08660
C          4.77330        7.01950        3.39860
C          3.37200        6.88590        3.89350
O          2.35200        6.85780        3.24450
C          3.47170        6.99560        5.36660
C          2.47170        6.83850        6.30520
C          2.81580        6.97370        7.64050
F          1.88960        6.79210        8.58920
C          4.12520        7.28600        8.00740
F          4.43020        7.40470        9.30590
C          5.12550        7.46280        7.06460
C          4.79470        7.30530        5.72640
C          5.62290        7.33750        4.52410
C          6.98750        7.47830        4.49870
C          7.78040        7.32120        3.34560
N          8.49530        7.16140        2.46100
C          7.78040        7.74170        5.63410
N          8.47340        7.96340        6.52210
H         -6.96670       -7.51930       -0.62980
H         -7.34220      -10.29940       -6.20590
H         -8.18800      -13.71370       -6.42540
H         -9.62590      -12.86370       -6.96070
H         -8.02580      -12.26490       -7.43470
H         -9.78150      -11.98850       -2.21250
H         -4.76180       -6.49440       -0.39540
H         -5.66020       -4.05250       -4.63370
H         -7.14530       -5.86660       -3.91260
H         -3.80160       -2.20830       -4.91260
H         -2.05270       -0.51110       -4.56760
H         -0.87900       -2.37110       -0.88620
H         -3.97200        3.46780       -2.47570
H         -4.17770        5.59260       -3.70500
H         -0.89230        6.50020       -7.31450
H         -0.26060        7.00930       -5.71420
H         -1.07150        8.18270       -6.77720
H         -0.66480        4.63090       -5.94670
H         -0.47920        2.51930       -4.75430
H         -2.27590        0.55350       -0.40880
H         -4.08410       -0.94100        0.33090
H         -8.11420       -1.10670       -2.36270
H         -7.09260       -2.37150       -3.12630
H         -8.29840       -2.81160       -1.89770
H         -6.18350       -0.19150       -3.31900
H         -4.37380        1.25980       -4.06430
H          3.89110        0.78620        1.57000
H          4.06950       -1.54080        2.35380
H          3.02540       -4.79830       -0.90680
H          4.80370       -5.02610       -1.01390
H          3.82610       -6.07960        0.02990
H          4.19880       -2.87850       -1.70720
H          4.05510       -0.56510       -2.47140
H          4.37040        3.13230       -3.00670
H          6.25990        4.69420       -3.16190
H         10.25670        5.80130       -0.19320
H          8.89130        5.53480        0.90280
H          9.67910        4.14220        0.07780
H          7.52460        3.53680        0.75540
H          5.67830        1.97070        0.89610
H          5.27820        4.53720        8.47210
H          3.80140        4.07160        9.34220
H          4.43570        1.67370        9.14070
H          5.70580        2.59670        9.94840
H          5.89780        2.12690        8.25570
H          2.01570       -2.92020        3.70500
H          0.29730       -2.73730        4.04980
H          2.59430       -1.79870        5.85210
H          0.87890       -1.59890        6.22010
H          1.57960       -3.21700        6.12920
H          6.03100        7.27280        1.68940
H          1.45900        6.60630        6.01580
H          6.11910        7.71100        7.39990
