
  xtb     02112202163D
 energy: -196.452186261189 gnorm: 0.000233031449 xtb: 6.4.1 (unknown)
 95106  0     0  0            999 V2000
    6.3300    2.1403    4.3230 C   0  0  0  0  0  0  0  0  0  0  0  0
    6.8665    2.8912    3.3264 C   0  0  0  0  0  0  0  0  0  0  0  0
    6.3915    2.8467    1.9137 C   0  0  0  0  0  0  0  0  0  0  0  0
    5.5600    2.1133    1.4308 O   0  0  0  0  0  0  0  0  0  0  0  0
    7.0362    3.9984    1.2525 C   0  0  0  0  0  0  0  0  0  0  0  0
    6.8878    4.4225   -0.0538 C   0  0  0  0  0  0  0  0  0  0  0  0
    7.5538    5.5650   -0.4816 C   0  0  0  0  0  0  0  0  0  0  0  0
    7.4382    6.0834   -1.8772 C   0  0  0  0  0  0  0  0  0  0  0  0
    8.3479    6.2358    0.4522 C   0  0  0  0  0  0  0  0  0  0  0  0
    8.9899    7.3475    0.0486 F   0  0  0  0  0  0  0  0  0  0  0  0
    8.5111    5.8343    1.7677 C   0  0  0  0  0  0  0  0  0  0  0  0
    7.8392    4.6913    2.1742 C   0  0  0  0  0  0  0  0  0  0  0  0
    7.7804    4.0100    3.4627 C   0  0  0  0  0  0  0  0  0  0  0  0
    8.5133    4.3230    4.5751 C   0  0  0  0  0  0  0  0  0  0  0  0
    8.4887    3.5896    5.7809 C   0  0  0  0  0  0  0  0  0  0  0  0
    8.5349    3.0343    6.7844 N   0  0  0  0  0  0  0  0  0  0  0  0
    9.4114    5.4087    4.6483 C   0  0  0  0  0  0  0  0  0  0  0  0
   10.1487    6.2803    4.7651 N   0  0  0  0  0  0  0  0  0  0  0  0
    5.5342    0.9733    4.0980 C   0  0  0  0  0  0  0  0  0  0  0  0
    5.8379   -0.0047    3.1357 C   0  0  0  0  0  0  0  0  0  0  0  0
    4.9354   -1.1011    2.8547 C   0  0  0  0  0  0  0  0  0  0  0  0
    5.4519   -1.9484    1.9647 N   0  0  0  0  0  0  0  0  0  0  0  0
    6.8661   -1.3924    1.4818 S   0  0  0  0  0  4  0  0  0  0  0  0
    6.9553   -0.0919    2.4097 N   0  0  0  0  0  0  0  0  0  0  0  0
    3.6615   -1.2216    3.4472 C   0  0  0  0  0  0  0  0  0  0  0  0
    3.4133   -0.3164    4.4980 C   0  0  0  0  0  0  0  0  0  0  0  0
    2.3038   -0.2168    5.2371 N   0  0  0  0  0  0  0  0  0  0  0  0
    2.4464    1.0146    6.2540 S   0  0  0  0  0  0  0  0  0  0  0  0
    3.8952    1.5236    5.8083 N   0  0  0  0  0  0  0  0  0  0  0  0
    4.3580    0.7370    4.8333 C   0  0  0  0  0  0  0  0  0  0  0  0
    2.6894   -2.0577    2.8082 C   0  0  0  0  0  0  0  0  0  0  0  0
    2.5778   -2.2098    1.4282 C   0  0  0  0  0  0  0  0  0  0  0  0
    1.3732   -2.9225    1.1634 C   0  0  0  0  0  0  0  0  0  0  0  0
    0.7874   -3.3006    2.4312 C   0  0  0  0  0  0  0  0  0  0  0  0
   -0.1856   -3.9608    2.7183 O   0  0  0  0  0  0  0  0  0  0  0  0
    1.6477   -2.7221    3.3924 N   0  0  0  0  0  0  0  0  0  0  0  0
    1.4728   -3.0025    4.7922 C   0  0  0  0  0  0  0  0  0  0  0  0
    1.1900   -2.9865   -0.2048 C   0  0  0  0  0  0  0  0  0  0  0  0
    2.2606   -2.3741   -0.7987 N   0  0  0  0  0  0  0  0  0  0  0  0
    2.4590   -2.1269   -2.2004 C   0  0  0  0  0  0  0  0  0  0  0  0
    3.1435   -1.8121    0.1597 C   0  0  0  0  0  0  0  0  0  0  0  0
    4.1098   -1.1552   -0.1631 O   0  0  0  0  0  0  0  0  0  0  0  0
    0.0190   -3.4453   -0.9296 C   0  0  0  0  0  0  0  0  0  0  0  0
   -1.2375   -3.0742   -0.4234 C   0  0  0  0  0  0  0  0  0  0  0  0
   -2.3522   -3.3382   -1.1809 C   0  0  0  0  0  0  0  0  0  0  0  0
   -3.7618   -2.9152   -0.9487 C   0  0  0  0  0  0  0  0  0  0  0  0
   -4.2184   -2.3435    0.0083 O   0  0  0  0  0  0  0  0  0  0  0  0
   -4.4741   -3.3397   -2.1860 C   0  0  0  0  0  0  0  0  0  0  0  0
   -3.5836   -4.0384   -3.0268 C   0  0  0  0  0  0  0  0  0  0  0  0
   -2.2619   -4.0169   -2.4135 C   0  0  0  0  0  0  0  0  0  0  0  0
   -1.0345   -4.4629   -2.8668 C   0  0  0  0  0  0  0  0  0  0  0  0
    0.0998   -4.1573   -2.1271 C   0  0  0  0  0  0  0  0  0  0  0  0
   -4.0335   -4.5610   -4.2259 C   0  0  0  0  0  0  0  0  0  0  0  0
   -5.3475   -4.3244   -4.6005 C   0  0  0  0  0  0  0  0  0  0  0  0
   -6.2026   -3.5403   -3.8193 C   0  0  0  0  0  0  0  0  0  0  0  0
   -5.7657   -3.0772   -2.5671 C   0  0  0  0  0  0  0  0  0  0  0  0
   -7.5202   -3.2153   -4.3166 C   0  0  0  0  0  0  0  0  0  0  0  0
   -8.0965   -1.9912   -4.2309 C   0  0  0  0  0  0  0  0  0  0  0  0
   -7.3647   -0.7356   -3.8908 C   0  0  0  0  0  0  0  0  0  0  0  0
   -6.2175   -0.6078   -3.5348 O   0  0  0  0  0  0  0  0  0  0  0  0
   -8.3147    0.3585   -4.1853 C   0  0  0  0  0  0  0  0  0  0  0  0
   -8.1014    1.7184   -4.0640 C   0  0  0  0  0  0  0  0  0  0  0  0
   -9.1413    2.5650   -4.4088 C   0  0  0  0  0  0  0  0  0  0  0  0
   -8.9829    3.8881   -4.3058 F   0  0  0  0  0  0  0  0  0  0  0  0
  -10.3561    2.0489   -4.8670 C   0  0  0  0  0  0  0  0  0  0  0  0
  -11.3392    2.8900   -5.1996 F   0  0  0  0  0  0  0  0  0  0  0  0
  -10.5691    0.6848   -4.9903 C   0  0  0  0  0  0  0  0  0  0  0  0
   -9.5330   -0.1706   -4.6428 C   0  0  0  0  0  0  0  0  0  0  0  0
   -9.4419   -1.6279   -4.6581 C   0  0  0  0  0  0  0  0  0  0  0  0
  -10.4597   -2.4887   -4.9586 C   0  0  0  0  0  0  0  0  0  0  0  0
  -10.3694   -3.8979   -4.9113 C   0  0  0  0  0  0  0  0  0  0  0  0
  -10.3747   -5.0450   -4.8885 N   0  0  0  0  0  0  0  0  0  0  0  0
  -11.7550   -2.0786   -5.3462 C   0  0  0  0  0  0  0  0  0  0  0  0
  -12.8203   -1.8054   -5.6717 N   0  0  0  0  0  0  0  0  0  0  0  0
    6.4322    2.4464    5.3566 H   0  0  0  0  0  0  0  0  0  0  0  0
    6.2571    3.8642   -0.7288 H   0  0  0  0  0  0  0  0  0  0  0  0
    6.7859    5.4505   -2.4716 H   0  0  0  0  0  0  0  0  0  0  0  0
    7.0406    7.0979   -1.8685 H   0  0  0  0  0  0  0  0  0  0  0  0
    8.4206    6.1258   -2.3461 H   0  0  0  0  0  0  0  0  0  0  0  0
    9.1358    6.4165    2.4249 H   0  0  0  0  0  0  0  0  0  0  0  0
    0.6403   -3.7019    4.8696 H   0  0  0  0  0  0  0  0  0  0  0  0
    2.3756   -3.4570    5.2039 H   0  0  0  0  0  0  0  0  0  0  0  0
    1.2446   -2.0924    5.3463 H   0  0  0  0  0  0  0  0  0  0  0  0
    2.8989   -2.9940   -2.6982 H   0  0  0  0  0  0  0  0  0  0  0  0
    3.1600   -1.2946   -2.2790 H   0  0  0  0  0  0  0  0  0  0  0  0
    1.5180   -1.8669   -2.6855 H   0  0  0  0  0  0  0  0  0  0  0  0
   -1.3192   -2.5535    0.5174 H   0  0  0  0  0  0  0  0  0  0  0  0
   -0.9466   -5.0122   -3.7918 H   0  0  0  0  0  0  0  0  0  0  0  0
    1.0631   -4.4917   -2.4800 H   0  0  0  0  0  0  0  0  0  0  0  0
   -3.3791   -5.1299   -4.8685 H   0  0  0  0  0  0  0  0  0  0  0  0
   -5.7080   -4.7056   -5.5451 H   0  0  0  0  0  0  0  0  0  0  0  0
   -6.4298   -2.5396   -1.9095 H   0  0  0  0  0  0  0  0  0  0  0  0
   -8.0428   -4.0108   -4.8336 H   0  0  0  0  0  0  0  0  0  0  0  0
   -7.1604    2.1095   -3.7109 H   0  0  0  0  0  0  0  0  0  0  0  0
  -11.5228    0.3386   -5.3534 H   0  0  0  0  0  0  0  0  0  0  0  0
  1  2  2  0  0  0  0
  2  3  1  0  0  0  0
  3  4  2  0  0  0  0
  3  5  1  0  0  0  0
  5  6  2  0  0  0  0
  6  7  1  0  0  0  0
  7  8  1  0  0  0  0
  7  9  2  0  0  0  0
  9 10  1  0  0  0  0
  9 11  1  0  0  0  0
 11 12  2  0  0  0  0
 12 13  1  0  0  0  0
 13 14  2  0  0  0  0
 14 15  1  0  0  0  0
 15 16  3  0  0  0  0
 14 17  1  0  0  0  0
 17 18  3  0  0  0  0
  1 19  1  0  0  0  0
 19 20  2  0  0  0  0
 20 21  1  0  0  0  0
 21 22  1  0  0  0  0
 22 23  2  0  0  0  0
 23 24  2  0  0  0  0
 21 25  2  0  0  0  0
 25 26  1  0  0  0  0
 26 27  2  0  0  0  0
 27 28  1  0  0  0  0
 28 29  1  0  0  0  0
 29 30  2  0  0  0  0
 25 31  1  0  0  0  0
 31 32  2  0  0  0  0
 32 33  1  0  0  0  0
 33 34  1  0  0  0  0
 34 35  2  0  0  0  0
 34 36  1  0  0  0  0
 36 37  1  0  0  0  0
 33 38  2  0  0  0  0
 38 39  1  0  0  0  0
 39 40  1  0  0  0  0
 39 41  1  0  0  0  0
 41 42  2  0  0  0  0
 38 43  1  0  0  0  0
 43 44  2  0  0  0  0
 44 45  1  0  0  0  0
 45 46  1  0  0  0  0
 46 47  2  0  0  0  0
 46 48  1  0  0  0  0
 48 49  2  0  0  0  0
 49 50  1  0  0  0  0
 50 51  1  0  0  0  0
 51 52  2  0  0  0  0
 49 53  1  0  0  0  0
 53 54  2  0  0  0  0
 54 55  1  0  0  0  0
 55 56  2  0  0  0  0
 55 57  1  0  0  0  0
 57 58  2  0  0  0  0
 58 59  1  0  0  0  0
 59 60  2  0  0  0  0
 59 61  1  0  0  0  0
 61 62  2  0  0  0  0
 62 63  1  0  0  0  0
 63 64  1  0  0  0  0
 63 65  2  0  0  0  0
 65 66  1  0  0  0  0
 65 67  1  0  0  0  0
 67 68  2  0  0  0  0
 68 69  1  0  0  0  0
 69 70  2  0  0  0  0
 70 71  1  0  0  0  0
 71 72  3  0  0  0  0
 70 73  1  0  0  0  0
 73 74  3  0  0  0  0
 13  2  1  0  0  0  0
 30 19  1  0  0  0  0
 36 31  1  0  0  0  0
 52 43  1  0  0  0  0
 69 58  1  0  0  0  0
 12  5  1  0  0  0  0
 24 20  1  0  0  0  0
 30 26  1  0  0  0  0
 41 32  1  0  0  0  0
 50 45  2  0  0  0  0
 68 61  1  0  0  0  0
 56 48  1  0  0  0  0
  1 75  1  0  0  0  0
  6 76  1  0  0  0  0
  8 77  1  0  0  0  0
  8 78  1  0  0  0  0
  8 79  1  0  0  0  0
 11 80  1  0  0  0  0
 37 81  1  0  0  0  0
 37 82  1  0  0  0  0
 37 83  1  0  0  0  0
 40 84  1  0  0  0  0
 40 85  1  0  0  0  0
 40 86  1  0  0  0  0
 44 87  1  0  0  0  0
 51 88  1  0  0  0  0
 52 89  1  0  0  0  0
 53 90  1  0  0  0  0
 54 91  1  0  0  0  0
 56 92  1  0  0  0  0
 57 93  1  0  0  0  0
 62 94  1  0  0  0  0
 67 95  1  0  0  0  0
M  END
