147

C          7.84120       -0.43670        3.11320
C          8.81130       -0.78850        2.20880
C          8.73240       -0.54030        0.75850
O          7.84370        0.01290        0.13390
C         10.04930       -0.93040        0.21480
C         10.48190       -0.90080       -1.09600
C         11.78050       -1.29660       -1.39730
C         12.31010       -1.30580       -2.79450
C         12.59350       -1.69780       -0.33670
F         13.85610       -2.07550       -0.61800
C         12.18720       -1.72910        0.98790
C         10.88760       -1.33850        1.26520
C         10.13950       -1.26420        2.51830
C         10.59680       -1.66610        3.74720
C          9.82410       -1.69520        4.92680
N          9.26220       -1.77900        5.92490
C         11.90360       -2.13800        3.98520
N         12.95600       -2.52140        4.23930
C          6.47690       -0.23890        2.81460
C          5.67100        0.60250        3.61840
C          4.29910        0.92290        3.29010
N          3.75290        1.74010        4.19300
S          4.84360        2.07120        5.32580
N          6.06710        1.21980        4.72920
C          3.64700        0.36790        2.16790
C          4.38300       -0.64030        1.50550
N          3.91540       -1.40410        0.51840
S          5.08730       -2.38230        0.01680
N          6.24150       -1.89260        1.01770
C          5.77330       -0.91430        1.79020
C          2.36160        0.74130        1.70510
C          1.71730        1.98610        1.76750
N          2.31440        3.17590        2.10720
C          1.53390        4.19330        2.66780
C          1.72830        5.52540        2.29890
C          0.93670        6.51270        2.83770
C         -0.06810        6.19700        3.75320
S         -1.02480        7.54600        4.35900
C         -2.30560        6.75620        5.37410
C         -0.25150        4.87410        4.13590
C          0.54520        3.88340        3.59810
C          3.67940        3.38340        1.86700
C          4.45410        4.12310        2.76170
C          5.81410        4.23050        2.57680
C          6.43640        3.61010        1.49280
S          8.18490        3.75100        1.39620
C          8.59230        3.04690       -0.22420
C          5.65920        2.92400        0.56550
C          4.29630        2.82430        0.74900
C          0.40660        1.88960        1.23850
S         -0.90380        3.00170        0.99800
C         -1.83660        1.76760        0.17760
C         -1.17240        0.55990        0.10460
N         -1.60580       -0.56640       -0.58220
C         -2.88480       -1.10410       -0.34610
C         -3.32530       -1.33060        0.95830
C         -4.58310       -1.84200        1.18290
C         -5.43110       -2.13010        0.11260
S         -7.02080       -2.74290        0.53200
C         -7.80040       -3.11140       -1.06200
C         -4.98810       -1.91750       -1.18790
C         -3.71900       -1.41940       -1.41220
C         -0.66110       -1.28710       -1.31790
C         -0.67790       -2.67870       -1.34350
C          0.31810       -3.38200       -1.99230
C          1.35370       -2.70530       -2.62160
S          2.71630       -3.50050       -3.41550
C          2.61100       -5.21410       -2.82510
C          1.34240       -1.31310       -2.65100
C          0.34370       -0.61230       -2.01590
C          0.10190        0.64150        0.72260
S          1.41300       -0.47290        0.86760
C         -3.12020        2.08510       -0.44370
C         -4.30180        1.49260        0.01420
C         -5.45270        1.66900       -0.71670
C         -6.79260        1.06260       -0.50750
O         -7.16650        0.37720        0.41370
C         -7.57610        1.49820       -1.69530
C         -6.79260        2.36940       -2.48160
C         -5.46940        2.46210       -1.88150
C         -4.32440        3.12840       -2.27620
C         -3.15670        2.92920       -1.55310
C         -7.33450        2.94940       -3.61460
C         -8.63020        2.61600       -3.97600
C         -9.37950        1.68280       -3.25000
C         -8.84860        1.14480       -2.06500
C        -10.69300        1.30890       -3.71320
C        -11.20660        0.05200       -3.67070
C        -10.40360       -1.18160       -3.45660
O         -9.21570       -1.27570       -3.23240
C        -11.33540       -2.30180       -3.68880
C        -11.07720       -3.65590       -3.61450
C        -12.11550       -4.54020       -3.87540
Cl       -11.83800       -6.23160       -3.78360
C        -13.38570       -4.05570       -4.21260
Cl       -14.65840       -5.15970       -4.53910
C        -13.63960       -2.69090       -4.29150
C        -12.60680       -1.80520       -4.02560
C        -12.56320       -0.34700       -4.01900
C        -13.62670        0.48470       -4.24340
C        -13.58590        1.89430       -4.17780
N        -13.63660        3.04060       -4.13920
C        -14.92690        0.03750       -4.56430
N        -16.00120       -0.26150       -4.83490
H          8.11610       -0.25300        4.14450
H          9.80990       -0.58010       -1.87780
H         11.58250       -0.89200       -3.48670
H         13.23130       -0.72760       -2.85290
H         12.54800       -2.32510       -3.09770
H         12.88320       -2.04640        1.74670
H          2.49440        5.77450        1.58020
H          1.07720        7.54300        2.54950
H         -2.95460        7.56190        5.70270
H         -2.86930        6.04980        4.77220
H         -1.85520        6.27350        6.23640
H         -1.00400        4.60160        4.85740
H          0.41630        2.85870        3.91240
H          3.98450        4.58230        3.61850
H          6.41790        4.78060        3.28200
H          8.29140        2.00320       -0.26240
H          9.67160        3.12500       -0.31330
H          8.11170        3.62830       -1.00560
H          6.10530        2.44980       -0.29250
H          3.70450        2.29040        0.02020
H         -2.67040       -1.10020        1.78650
H         -4.93320       -2.02020        2.18800
H         -7.18980       -3.81740       -1.61760
H         -7.96610       -2.19900       -1.62880
H         -8.75510       -3.56660       -0.81450
H         -5.62710       -2.12250       -2.03170
H         -3.37150       -1.25570       -2.42170
H         -1.46480       -3.21220       -0.83130
H          0.28260       -4.45950       -1.98240
H          3.52520       -5.69660       -3.15630
H          2.55820       -5.22150       -1.74050
H          1.75350       -5.71390       -3.26640
H          2.13140       -0.79180       -3.17050
H          0.34300        0.46740       -2.03990
H         -4.31490        0.90280        0.91570
H         -4.32140        3.76740       -3.14610
H         -2.24320        3.41170       -1.86950
H         -6.76390        3.64330       -4.21300
H         -9.06260        3.04900       -4.86650
H         -9.43610        0.48990       -1.44100
H        -11.28270        2.10310       -4.15330
H        -10.09280       -4.01410       -3.35750
H        -14.62820       -2.35600       -4.55880
