155

C          0.85490      -10.80720        4.62240
C          0.69640      -11.06030        5.94400
C         -0.14210      -10.25450        6.87960
O         -0.69870       -9.20270        6.66590
C         -0.23950      -11.06520        8.10920
C         -0.93690      -10.77430        9.26610
C         -0.91230      -11.67480       10.32450
C         -1.62930      -11.41940       11.60880
C         -0.17610      -12.85060       10.15310
F         -0.15450      -13.73330       11.16750
C          0.52760      -13.16810        9.00370
C          0.49650      -12.25310        7.96140
C          1.11530      -12.26930        6.64200
C          1.98060      -13.22090        6.17600
C          2.36060      -14.36720        6.90790
N          2.69690      -15.31930        7.45270
C          2.62260      -13.19140        4.91900
N          3.18510      -13.23210        3.91870
C          0.50460       -9.59230        3.92540
C          0.72800       -8.32070        4.47970
C          0.38770       -7.21380        3.74160
C          0.55960       -5.77180        4.07380
O          1.03520       -5.29190        5.07300
C          0.03690       -5.05420        2.87830
C         -0.41580       -5.99420        1.93170
C         -0.19360       -7.32940        2.46290
C         -0.40070       -8.57890        1.90710
C         -0.02570       -9.69610        2.63390
C         -0.92920       -5.56690        0.72230
C         -0.90650       -4.21240        0.43570
C         -0.39390       -3.28000        1.34240
C          0.02990       -3.70640        2.60840
C         -0.23390       -1.89950        0.92960
C          0.30000       -1.45520       -0.26910
N          0.90760       -2.27130       -1.20970
C          1.56920       -3.43510       -0.78150
C          2.32670       -3.43110        0.39050
C          2.83590       -4.60500        0.89290
C          2.61800       -5.81200        0.22940
S          3.20980       -7.26110        1.04340
C          2.68190       -8.61840       -0.03990
C          1.95140       -5.80600       -0.98770
C          1.42920       -4.62670       -1.48550
C          0.93500       -1.90050       -2.55890
C         -0.15420       -1.26030       -3.14560
C         -0.09830       -0.83640       -4.45960
C          1.04460       -1.06050       -5.21370
S          1.21880       -0.54010       -6.89350
C          0.08810        0.87740       -6.99890
C          2.11600       -1.74750       -4.64660
C          2.06650       -2.15840       -3.33440
C          0.23560       -0.03990       -0.35100
S          0.65710        1.12140       -1.55500
C          0.08180        2.43730       -0.53590
C         -0.32180        1.98640        0.71300
N         -0.67750        2.77960        1.79390
C          0.04050        3.94180        2.10220
C          1.38300        4.07870        1.74830
C          2.06610        5.23630        2.04290
C          1.43370        6.28610        2.70600
S          2.41160        7.72040        3.02570
C          1.35920        8.73140        4.10670
C          0.09890        6.15530        3.06360
C         -0.58890        4.99730        2.75920
C         -1.67110        2.30100        2.66170
C         -1.53170        2.39960        4.04650
C         -2.50510        1.89370        4.87690
C         -3.63500        1.27030        4.34930
S         -4.80860        0.64630        5.50990
C         -5.83440       -0.47310        4.51260
C         -3.78600        1.18420        2.97250
C         -2.81210        1.69820        2.13870
C         -0.26720        0.57010        0.78630
S         -0.68660       -0.58880        2.00060
C         -0.00210        3.74920       -1.12710
C          0.73710        4.02730       -2.29130
C          0.57100        5.23510       -2.91950
C          1.16600        5.71810       -4.19560
O          1.97120        5.15460       -4.89600
C          0.52860        7.04520       -4.41540
C         -0.31430        7.34480       -3.32340
C         -0.30530        6.21510       -2.40970
C         -1.02770        5.95350       -1.26020
C         -0.88460        4.72280       -0.64120
C         -0.98430        8.55520       -3.28100
C         -0.84680        9.42530       -4.34920
C         -0.08800        9.09320       -5.47920
C          0.64460        7.89310       -5.48810
C         -0.06710       10.00900       -6.59190
C         -0.05970        9.67250       -7.90700
C         -0.37700        8.31580       -8.44200
O         -0.59270        7.30460       -7.81570
C         -0.48380        8.48970       -9.90440
C         -0.77560        7.54860      -10.88010
Cl        -1.05750        5.90780      -10.46860
C         -0.83020        7.95760      -12.21060
C         -0.60670        9.28290      -12.54070
C         -0.31630       10.23650      -11.57280
C         -0.25020        9.83480      -10.24840
C          0.03510       10.58980       -9.03080
C          0.38680       11.91130       -8.97710
C          0.70870       12.62120       -7.79970
N          0.98740       13.26830       -6.89300
C          0.48570       12.75700      -10.10320
N          0.57750       13.49780      -10.97540
H          1.24560      -11.59700        3.99170
H         -1.48910       -9.85000        9.33930
H         -2.23340      -10.51940       11.54180
H         -0.91080      -11.30420       12.42000
H         -2.26790      -12.26490       11.86060
H          1.06440      -14.10110        8.95470
H          1.19230       -8.20750        5.44570
H         -0.83940       -8.68770        0.92600
H         -0.17180      -10.67980        2.21010
H         -1.31960       -6.26790        0.00000
H         -1.28350       -3.86300       -0.51410
H          0.39770       -2.99510        3.33270
H          2.49130       -2.50380        0.91810
H          3.39650       -4.60710        1.81500
H          3.18080       -8.54470       -1.00170
H          2.98840       -9.52890        0.46540
H          1.60170       -8.60230       -0.14840
H          1.80840       -6.71500       -1.54910
H          0.88460       -4.63380       -2.41830
H         -1.05360       -1.09650       -2.57000
H         -0.95340       -0.33690       -4.88610
H         -0.94390        0.54170       -7.04840
H          0.34760        1.39500       -7.91680
H          0.25050        1.53130       -6.14790
H          2.99500       -1.93310       -5.24390
H          2.91090       -2.66450       -2.89100
H          1.89510        3.27000        1.25030
H          3.10510        5.33800        1.77020
H          0.49120        9.08910        3.56050
H          1.97490        9.57320        4.40780
H          1.06840        8.15560        4.98020
H         -0.42370        6.94980        3.57110
H         -1.63030        4.91190        3.03350
H         -0.64860        2.85980        4.46320
H         -2.39600        1.95940        5.94830
H         -5.19400       -1.15090        3.95570
H         -6.43660       -1.03030        5.22260
H         -6.48110        0.09430        3.85070
H         -4.65860        0.72650        2.53490
H         -2.93620        1.63260        1.06710
H          1.41560        3.29180       -2.69880
H         -1.72140        6.67840       -0.86170
H         -1.50580        4.49870        0.21000
H         -1.60600        8.81850       -2.43870
H         -1.37430       10.36860       -4.33780
H          1.30410        7.64930       -6.30510
H         -0.11120       11.05870       -6.32790
H         -1.04900        7.23190      -12.97750
H         -0.65950        9.58380      -13.57590
H         -0.15200       11.26120      -11.86080
