
  xtb     02112201453D
 energy: -318.643528155475 gnorm: 0.001248935179 xtb: 6.4.1 (unknown)
177194  0     0  0            999 V2000
    3.4890    7.9732    4.7619 C   0  0  0  0  0  0  0  0  0  0  0  0
    4.0218    9.1183    4.2425 C   0  0  0  0  0  0  0  0  0  0  0  0
    4.0912    9.5455    2.8226 C   0  0  0  0  0  0  0  0  0  0  0  0
    3.9099    8.8910    1.8181 O   0  0  0  0  0  0  0  0  0  0  0  0
    4.4176   10.9848    2.8615 C   0  0  0  0  0  0  0  0  0  0  0  0
    4.5202   11.8627    1.7998 C   0  0  0  0  0  0  0  0  0  0  0  0
    4.8262   13.1964    2.0439 C   0  0  0  0  0  0  0  0  0  0  0  0
    4.9537   14.2022    0.9476 C   0  0  0  0  0  0  0  0  0  0  0  0
    5.0150   13.5811    3.3737 C   0  0  0  0  0  0  0  0  0  0  0  0
    5.3007   14.8727    3.6203 F   0  0  0  0  0  0  0  0  0  0  0  0
    4.9258   12.7197    4.4548 C   0  0  0  0  0  0  0  0  0  0  0  0
    4.6225   11.3931    4.1891 C   0  0  0  0  0  0  0  0  0  0  0  0
    4.4657   10.2365    5.0638 C   0  0  0  0  0  0  0  0  0  0  0  0
    4.7695   10.2059    6.3983 C   0  0  0  0  0  0  0  0  0  0  0  0
    5.1995   11.3331    7.1314 C   0  0  0  0  0  0  0  0  0  0  0  0
    5.5442   12.2142    7.7811 N   0  0  0  0  0  0  0  0  0  0  0  0
    4.7534    9.0558    7.2174 C   0  0  0  0  0  0  0  0  0  0  0  0
    4.7975    8.1657    7.9417 N   0  0  0  0  0  0  0  0  0  0  0  0
    3.0001    6.8081    4.1281 C   0  0  0  0  0  0  0  0  0  0  0  0
    3.1061    6.3403    2.8419 C   0  0  0  0  0  0  0  0  0  0  0  0
    2.4583    5.1072    2.6320 C   0  0  0  0  0  0  0  0  0  0  0  0
    2.3521    4.3973    1.4192 C   0  0  0  0  0  0  0  0  0  0  0  0
    3.0991    4.7793    0.2213 C   0  0  0  0  0  0  0  0  0  0  0  0
    4.4608    5.0751    0.3051 C   0  0  0  0  0  0  0  0  0  0  0  0
    5.1942    5.3210   -0.8341 C   0  0  0  0  0  0  0  0  0  0  0  0
    4.5840    5.2916   -2.0859 C   0  0  0  0  0  0  0  0  0  0  0  0
    5.6117    5.5991   -3.4884 S   0  0  0  0  0  0  0  0  0  0  0  0
    4.7771    4.6983   -4.8440 C   0  0  0  0  0  0  0  0  0  0  0  0
    4.7088    3.2060   -4.5801 C   0  0  0  0  0  0  0  0  0  0  0  0
    3.2195    5.0471   -2.1740 C   0  0  0  0  0  0  0  0  0  0  0  0
    2.4912    4.7838   -1.0318 C   0  0  0  0  0  0  0  0  0  0  0  0
    1.5591    3.2628    1.4433 C   0  0  0  0  0  0  0  0  0  0  0  0
    0.9335    2.7644    2.6144 C   0  0  0  0  0  0  0  0  0  0  0  0
    1.0624    3.4554    3.8328 C   0  0  0  0  0  0  0  0  0  0  0  0
    0.4273    2.9757    5.0660 C   0  0  0  0  0  0  0  0  0  0  0  0
   -0.9078    2.5750    5.0700 C   0  0  0  0  0  0  0  0  0  0  0  0
   -1.5197    2.1477    6.2319 C   0  0  0  0  0  0  0  0  0  0  0  0
   -0.8021    2.1034    7.4205 C   0  0  0  0  0  0  0  0  0  0  0  0
   -1.4996    1.6340    8.9759 S   0  0  0  0  0  0  0  0  0  0  0  0
   -2.7726    0.4002    8.5307 C   0  0  0  0  0  0  0  0  0  0  0  0
   -2.1555   -0.8466    7.9274 C   0  0  0  0  0  0  0  0  0  0  0  0
    0.5312    2.5026    7.4273 C   0  0  0  0  0  0  0  0  0  0  0  0
    1.1356    2.9349    6.2670 C   0  0  0  0  0  0  0  0  0  0  0  0
    1.8218    4.6190    3.8056 C   0  0  0  0  0  0  0  0  0  0  0  0
    2.0961    5.6876    5.1503 S   0  0  0  0  0  0  0  0  0  0  0  0
    0.3312    1.5000    2.3872 C   0  0  0  0  0  0  0  0  0  0  0  0
    0.4932    1.0384    1.1170 C   0  0  0  0  0  0  0  0  0  0  0  0
    1.3025    2.2016    0.0857 S   0  0  0  0  0  0  0  0  0  0  0  0
    0.1261   -0.2419    0.5885 C   0  0  0  0  0  0  0  0  0  0  0  0
    0.9216   -1.1021   -0.1553 C   0  0  0  0  0  0  0  0  0  0  0  0
    2.2499   -0.9098   -0.4811 N   0  0  0  0  0  0  0  0  0  0  0  0
    3.1116   -0.1694    0.3378 C   0  0  0  0  0  0  0  0  0  0  0  0
    3.0004   -0.2252    1.7244 C   0  0  0  0  0  0  0  0  0  0  0  0
    3.7388    0.6237    2.5257 C   0  0  0  0  0  0  0  0  0  0  0  0
    4.6118    1.5369    1.9510 C   0  0  0  0  0  0  0  0  0  0  0  0
    5.5244    2.7346    2.8709 S   0  0  0  0  0  0  0  0  0  0  0  0
    4.7842    2.6625    4.5259 C   0  0  0  0  0  0  0  0  0  0  0  0
    4.7947    1.5320    0.5690 C   0  0  0  0  0  0  0  0  0  0  0  0
    4.0566    0.6882   -0.2294 C   0  0  0  0  0  0  0  0  0  0  0  0
    2.7170   -1.4654   -1.6859 C   0  0  0  0  0  0  0  0  0  0  0  0
    3.9211   -2.1592   -1.7251 C   0  0  0  0  0  0  0  0  0  0  0  0
    4.3335   -2.7827   -2.8868 C   0  0  0  0  0  0  0  0  0  0  0  0
    3.5425   -2.7238   -4.0271 C   0  0  0  0  0  0  0  0  0  0  0  0
    3.9282   -3.5337   -5.5459 S   0  0  0  0  0  0  0  0  0  0  0  0
    5.3684   -4.5610   -5.1399 C   0  0  0  0  0  0  0  0  0  0  0  0
    2.3617   -1.9846   -4.0053 C   0  0  0  0  0  0  0  0  0  0  0  0
    1.9551   -1.3572   -2.8498 C   0  0  0  0  0  0  0  0  0  0  0  0
    0.1917   -2.2599   -0.5268 C   0  0  0  0  0  0  0  0  0  0  0  0
    0.5668   -3.6447   -1.4956 S   0  0  0  0  0  0  0  0  0  0  0  0
   -1.0593   -4.2530   -1.2719 C   0  0  0  0  0  0  0  0  0  0  0  0
   -1.8802   -3.3666   -0.5627 C   0  0  0  0  0  0  0  0  0  0  0  0
   -3.2545   -3.4277   -0.5285 N   0  0  0  0  0  0  0  0  0  0  0  0
   -3.9196   -2.8903    0.5799 C   0  0  0  0  0  0  0  0  0  0  0  0
   -5.0715   -2.1181    0.4225 C   0  0  0  0  0  0  0  0  0  0  0  0
   -5.6844   -1.5645    1.5223 C   0  0  0  0  0  0  0  0  0  0  0  0
   -5.1633   -1.7641    2.8013 C   0  0  0  0  0  0  0  0  0  0  0  0
   -6.0279   -0.9847    4.1234 S   0  0  0  0  0  0  0  0  0  0  0  0
   -4.9827   -1.3053    5.5730 C   0  0  0  0  0  0  0  0  0  0  0  0
   -4.0279   -2.5481    2.9623 C   0  0  0  0  0  0  0  0  0  0  0  0
   -3.4137   -3.1064    1.8590 C   0  0  0  0  0  0  0  0  0  0  0  0
   -3.9724   -3.9133   -1.6292 C   0  0  0  0  0  0  0  0  0  0  0  0
   -5.1942   -4.5639   -1.4596 C   0  0  0  0  0  0  0  0  0  0  0  0
   -5.8618   -5.0925   -2.5437 C   0  0  0  0  0  0  0  0  0  0  0  0
   -5.3019   -5.0272   -3.8179 C   0  0  0  0  0  0  0  0  0  0  0  0
   -6.1523   -5.8444   -5.1266 S   0  0  0  0  0  0  0  0  0  0  0  0
   -4.9048   -5.9533   -6.4431 C   0  0  0  0  0  0  0  0  0  0  0  0
   -4.1184   -4.3206   -4.0032 C   0  0  0  0  0  0  0  0  0  0  0  0
   -3.4785   -3.7503   -2.9249 C   0  0  0  0  0  0  0  0  0  0  0  0
   -1.1246   -2.2680   -0.0896 C   0  0  0  0  0  0  0  0  0  0  0  0
   -1.4890   -0.8722    0.8665 S   0  0  0  0  0  0  0  0  0  0  0  0
   -1.4321   -5.4812   -1.8654 C   0  0  0  0  0  0  0  0  0  0  0  0
   -2.4133   -6.3485   -1.3369 C   0  0  0  0  0  0  0  0  0  0  0  0
   -2.9369   -7.4714   -2.0833 C   0  0  0  0  0  0  0  0  0  0  0  0
   -3.7067   -8.2445   -1.3240 N   0  0  0  0  0  0  0  0  0  0  0  0
   -3.8366   -7.5952    0.1335 S   0  0  0  0  0  4  0  0  0  0  0  0
   -2.8892   -6.3141   -0.0907 N   0  0  0  0  0  0  0  0  0  0  0  0
   -2.6196   -7.6792   -3.4474 C   0  0  0  0  0  0  0  0  0  0  0  0
   -1.4842   -6.9468   -3.8857 C   0  0  0  0  0  0  0  0  0  0  0  0
   -0.8962   -7.0527   -5.0761 N   0  0  0  0  0  0  0  0  0  0  0  0
    0.3195   -6.0011   -5.1698 S   0  0  0  0  0  0  0  0  0  0  0  0
    0.1387   -5.3178   -3.7269 N   0  0  0  0  0  0  0  0  0  0  0  0
   -0.8756   -5.9042   -3.0915 C   0  0  0  0  0  0  0  0  0  0  0  0
   -3.3037   -8.4873   -4.3777 C   0  0  0  0  0  0  0  0  0  0  0  0
   -4.6136   -8.9018   -4.3952 C   0  0  0  0  0  0  0  0  0  0  0  0
   -5.7200   -8.4503   -3.5294 C   0  0  0  0  0  0  0  0  0  0  0  0
   -5.6937   -7.7315   -2.5505 O   0  0  0  0  0  0  0  0  0  0  0  0
   -6.9515   -9.0101   -4.1368 C   0  0  0  0  0  0  0  0  0  0  0  0
   -8.2566   -8.8347   -3.7251 C   0  0  0  0  0  0  0  0  0  0  0  0
   -9.2554   -9.4203   -4.4855 C   0  0  0  0  0  0  0  0  0  0  0  0
  -10.5375   -9.2748   -4.1222 F   0  0  0  0  0  0  0  0  0  0  0  0
   -8.9398  -10.1566   -5.6262 C   0  0  0  0  0  0  0  0  0  0  0  0
   -9.9260  -10.7058   -6.3481 F   0  0  0  0  0  0  0  0  0  0  0  0
   -7.6277  -10.3338   -6.0389 C   0  0  0  0  0  0  0  0  0  0  0  0
   -6.6236   -9.7511   -5.2815 C   0  0  0  0  0  0  0  0  0  0  0  0
   -5.1697   -9.7430   -5.4377 C   0  0  0  0  0  0  0  0  0  0  0  0
   -4.4765  -10.4631   -6.3764 C   0  0  0  0  0  0  0  0  0  0  0  0
   -3.0719  -10.5587   -6.4810 C   0  0  0  0  0  0  0  0  0  0  0  0
   -1.9472  -10.7284   -6.6411 N   0  0  0  0  0  0  0  0  0  0  0  0
   -5.0885  -11.2523   -7.3728 C   0  0  0  0  0  0  0  0  0  0  0  0
   -5.5211  -11.8992   -8.2171 N   0  0  0  0  0  0  0  0  0  0  0  0
    3.3704    7.9473    5.8396 H   0  0  0  0  0  0  0  0  0  0  0  0
    4.3618   11.5065    0.7932 H   0  0  0  0  0  0  0  0  0  0  0  0
    4.2428   15.0141    1.0977 H   0  0  0  0  0  0  0  0  0  0  0  0
    5.9511   14.6409    0.9551 H   0  0  0  0  0  0  0  0  0  0  0  0
    4.7733   13.7440   -0.0202 H   0  0  0  0  0  0  0  0  0  0  0  0
    5.0847   13.1022    5.4494 H   0  0  0  0  0  0  0  0  0  0  0  0
    3.6093    6.8831    2.0642 H   0  0  0  0  0  0  0  0  0  0  0  0
    4.9558    5.0567    1.2637 H   0  0  0  0  0  0  0  0  0  0  0  0
    6.2519    5.5249   -0.7696 H   0  0  0  0  0  0  0  0  0  0  0  0
    3.7915    5.1356   -5.0021 H   0  0  0  0  0  0  0  0  0  0  0  0
    5.3964    4.9136   -5.7150 H   0  0  0  0  0  0  0  0  0  0  0  0
    4.2461    2.7007   -5.4265 H   0  0  0  0  0  0  0  0  0  0  0  0
    4.1223    2.9965   -3.6864 H   0  0  0  0  0  0  0  0  0  0  0  0
    5.7093    2.8023   -4.4379 H   0  0  0  0  0  0  0  0  0  0  0  0
    2.7135    5.0646   -3.1266 H   0  0  0  0  0  0  0  0  0  0  0  0
    1.4285    4.6087   -1.1134 H   0  0  0  0  0  0  0  0  0  0  0  0
   -1.4854    2.6350    4.1590 H   0  0  0  0  0  0  0  0  0  0  0  0
   -2.5628    1.8715    6.2046 H   0  0  0  0  0  0  0  0  0  0  0  0
   -3.2587    0.1759    9.4797 H   0  0  0  0  0  0  0  0  0  0  0  0
   -3.5009    0.8648    7.8673 H   0  0  0  0  0  0  0  0  0  0  0  0
   -1.6591   -0.6142    6.9866 H   0  0  0  0  0  0  0  0  0  0  0  0
   -2.9249   -1.5945    7.7454 H   0  0  0  0  0  0  0  0  0  0  0  0
   -1.4182   -1.2648    8.6087 H   0  0  0  0  0  0  0  0  0  0  0  0
    1.0848    2.4717    8.3528 H   0  0  0  0  0  0  0  0  0  0  0  0
    2.1753    3.2244    6.2929 H   0  0  0  0  0  0  0  0  0  0  0  0
   -0.1349    0.9138    3.1588 H   0  0  0  0  0  0  0  0  0  0  0  0
    2.3148   -0.9251    2.1787 H   0  0  0  0  0  0  0  0  0  0  0  0
    3.6144    0.5668    3.5951 H   0  0  0  0  0  0  0  0  0  0  0  0
    3.7056    2.7575    4.4413 H   0  0  0  0  0  0  0  0  0  0  0  0
    5.0621    1.7385    5.0253 H   0  0  0  0  0  0  0  0  0  0  0  0
    5.1928    3.5095    5.0688 H   0  0  0  0  0  0  0  0  0  0  0  0
    5.4960    2.2238    0.1290 H   0  0  0  0  0  0  0  0  0  0  0  0
    4.1718    0.7172   -1.3023 H   0  0  0  0  0  0  0  0  0  0  0  0
    4.5278   -2.2226   -0.8338 H   0  0  0  0  0  0  0  0  0  0  0  0
    5.2657   -3.3240   -2.8828 H   0  0  0  0  0  0  0  0  0  0  0  0
    6.2267   -3.9341   -4.9160 H   0  0  0  0  0  0  0  0  0  0  0  0
    5.1284   -5.2167   -4.3082 H   0  0  0  0  0  0  0  0  0  0  0  0
    5.5676   -5.1501   -6.0298 H   0  0  0  0  0  0  0  0  0  0  0  0
    1.7667   -1.9189   -4.9029 H   0  0  0  0  0  0  0  0  0  0  0  0
    1.0382   -0.7865   -2.8344 H   0  0  0  0  0  0  0  0  0  0  0  0
   -5.4694   -1.9444   -0.5658 H   0  0  0  0  0  0  0  0  0  0  0  0
   -6.5692   -0.9578    1.4062 H   0  0  0  0  0  0  0  0  0  0  0  0
   -5.4498   -0.7706    6.3943 H   0  0  0  0  0  0  0  0  0  0  0  0
   -4.9634   -2.3688    5.7931 H   0  0  0  0  0  0  0  0  0  0  0  0
   -3.9837   -0.9191    5.3952 H   0  0  0  0  0  0  0  0  0  0  0  0
   -3.6149   -2.7399    3.9392 H   0  0  0  0  0  0  0  0  0  0  0  0
   -2.5424   -3.7317    1.9832 H   0  0  0  0  0  0  0  0  0  0  0  0
   -5.6075   -4.6731   -0.4685 H   0  0  0  0  0  0  0  0  0  0  0  0
   -6.8074   -5.5892   -2.4063 H   0  0  0  0  0  0  0  0  0  0  0  0
   -4.7440   -4.9787   -6.8944 H   0  0  0  0  0  0  0  0  0  0  0  0
   -3.9821   -6.3617   -6.0399 H   0  0  0  0  0  0  0  0  0  0  0  0
   -5.3185   -6.6316   -7.1831 H   0  0  0  0  0  0  0  0  0  0  0  0
   -3.6957   -4.1930   -4.9870 H   0  0  0  0  0  0  0  0  0  0  0  0
   -2.5754   -3.1815   -3.0905 H   0  0  0  0  0  0  0  0  0  0  0  0
   -2.7033   -8.7178   -5.2513 H   0  0  0  0  0  0  0  0  0  0  0  0
   -8.4973   -8.2621   -2.8441 H   0  0  0  0  0  0  0  0  0  0  0  0
   -7.4374  -10.9091   -6.9298 H   0  0  0  0  0  0  0  0  0  0  0  0
  1  2  2  0  0  0  0
  2  3  1  0  0  0  0
  3  4  2  0  0  0  0
  3  5  1  0  0  0  0
  5  6  2  0  0  0  0
  6  7  1  0  0  0  0
  7  8  1  0  0  0  0
  7  9  2  0  0  0  0
  9 10  1  0  0  0  0
  9 11  1  0  0  0  0
 11 12  2  0  0  0  0
 12 13  1  0  0  0  0
 13 14  2  0  0  0  0
 14 15  1  0  0  0  0
 15 16  3  0  0  0  0
 14 17  1  0  0  0  0
 17 18  3  0  0  0  0
  1 19  1  0  0  0  0
 19 20  2  0  0  0  0
 20 21  1  0  0  0  0
 21 22  2  0  0  0  0
 22 23  1  0  0  0  0
 23 24  2  0  0  0  0
 24 25  1  0  0  0  0
 25 26  2  0  0  0  0
 26 27  1  0  0  0  0
 27 28  1  0  0  0  0
 28 29  1  0  0  0  0
 26 30  1  0  0  0  0
 30 31  2  0  0  0  0
 22 32  1  0  0  0  0
 32 33  2  0  0  0  0
 33 34  1  0  0  0  0
 34 35  1  0  0  0  0
 35 36  2  0  0  0  0
 36 37  1  0  0  0  0
 37 38  2  0  0  0  0
 38 39  1  0  0  0  0
 39 40  1  0  0  0  0
 40 41  1  0  0  0  0
 38 42  1  0  0  0  0
 42 43  2  0  0  0  0
 34 44  2  0  0  0  0
 44 45  1  0  0  0  0
 33 46  1  0  0  0  0
 46 47  2  0  0  0  0
 47 48  1  0  0  0  0
 47 49  1  0  0  0  0
 49 50  2  0  0  0  0
 50 51  1  0  0  0  0
 51 52  1  0  0  0  0
 52 53  2  0  0  0  0
 53 54  1  0  0  0  0
 54 55  2  0  0  0  0
 55 56  1  0  0  0  0
 56 57  1  0  0  0  0
 55 58  1  0  0  0  0
 58 59  2  0  0  0  0
 51 60  1  0  0  0  0
 60 61  2  0  0  0  0
 61 62  1  0  0  0  0
 62 63  2  0  0  0  0
 63 64  1  0  0  0  0
 64 65  1  0  0  0  0
 63 66  1  0  0  0  0
 66 67  2  0  0  0  0
 50 68  1  0  0  0  0
 68 69  1  0  0  0  0
 69 70  1  0  0  0  0
 70 71  2  0  0  0  0
 71 72  1  0  0  0  0
 72 73  1  0  0  0  0
 73 74  2  0  0  0  0
 74 75  1  0  0  0  0
 75 76  2  0  0  0  0
 76 77  1  0  0  0  0
 77 78  1  0  0  0  0
 76 79  1  0  0  0  0
 79 80  2  0  0  0  0
 72 81  1  0  0  0  0
 81 82  2  0  0  0  0
 82 83  1  0  0  0  0
 83 84  2  0  0  0  0
 84 85  1  0  0  0  0
 85 86  1  0  0  0  0
 84 87  1  0  0  0  0
 87 88  2  0  0  0  0
 71 89  1  0  0  0  0
 89 90  1  0  0  0  0
 70 91  1  0  0  0  0
 91 92  2  0  0  0  0
 92 93  1  0  0  0  0
 93 94  1  0  0  0  0
 94 95  2  0  0  0  0
 95 96  2  0  0  0  0
 93 97  2  0  0  0  0
 97 98  1  0  0  0  0
 98 99  2  0  0  0  0
 99100  1  0  0  0  0
100101  1  0  0  0  0
101102  2  0  0  0  0
 97103  1  0  0  0  0
103104  2  0  0  0  0
104105  1  0  0  0  0
105106  2  0  0  0  0
105107  1  0  0  0  0
107108  2  0  0  0  0
108109  1  0  0  0  0
109110  1  0  0  0  0
109111  2  0  0  0  0
111112  1  0  0  0  0
111113  1  0  0  0  0
113114  2  0  0  0  0
114115  1  0  0  0  0
115116  2  0  0  0  0
116117  1  0  0  0  0
117118  3  0  0  0  0
116119  1  0  0  0  0
119120  3  0  0  0  0
 13  2  1  0  0  0  0
 45 19  1  0  0  0  0
 90 49  1  0  0  0  0
102 91  1  0  0  0  0
115104  1  0  0  0  0
 12  5  1  0  0  0  0
 44 21  1  0  0  0  0
 59 52  1  0  0  0  0
 67 60  1  0  0  0  0
 89 68  2  0  0  0  0
 96 92  1  0  0  0  0
102 98  1  0  0  0  0
114107  1  0  0  0  0
 31 23  1  0  0  0  0
 48 32  1  0  0  0  0
 80 73  1  0  0  0  0
 88 81  1  0  0  0  0
 43 35  1  0  0  0  0
  1121  1  0  0  0  0
  6122  1  0  0  0  0
  8123  1  0  0  0  0
  8124  1  0  0  0  0
  8125  1  0  0  0  0
 11126  1  0  0  0  0
 20127  1  0  0  0  0
 24128  1  0  0  0  0
 25129  1  0  0  0  0
 28130  1  0  0  0  0
 28131  1  0  0  0  0
 29132  1  0  0  0  0
 29133  1  0  0  0  0
 29134  1  0  0  0  0
 30135  1  0  0  0  0
 31136  1  0  0  0  0
 36137  1  0  0  0  0
 37138  1  0  0  0  0
 40139  1  0  0  0  0
 40140  1  0  0  0  0
 41141  1  0  0  0  0
 41142  1  0  0  0  0
 41143  1  0  0  0  0
 42144  1  0  0  0  0
 43145  1  0  0  0  0
 46146  1  0  0  0  0
 53147  1  0  0  0  0
 54148  1  0  0  0  0
 57149  1  0  0  0  0
 57150  1  0  0  0  0
 57151  1  0  0  0  0
 58152  1  0  0  0  0
 59153  1  0  0  0  0
 61154  1  0  0  0  0
 62155  1  0  0  0  0
 65156  1  0  0  0  0
 65157  1  0  0  0  0
 65158  1  0  0  0  0
 66159  1  0  0  0  0
 67160  1  0  0  0  0
 74161  1  0  0  0  0
 75162  1  0  0  0  0
 78163  1  0  0  0  0
 78164  1  0  0  0  0
 78165  1  0  0  0  0
 79166  1  0  0  0  0
 80167  1  0  0  0  0
 82168  1  0  0  0  0
 83169  1  0  0  0  0
 86170  1  0  0  0  0
 86171  1  0  0  0  0
 86172  1  0  0  0  0
 87173  1  0  0  0  0
 88174  1  0  0  0  0
103175  1  0  0  0  0
108176  1  0  0  0  0
113177  1  0  0  0  0
M  END
