202

C          0.48340       11.48710       -2.98370
C          0.30610       12.38460       -1.97470
C          0.67380       13.81010       -2.19940
O          0.90210       14.34220       -3.26070
C          0.74850       14.40630       -0.84910
C          1.15100       15.67620       -0.48420
C          1.16800       16.02910        0.86090
C          1.58470       17.38540        1.32630
C          0.77280       15.06220        1.78810
F          0.80140       15.39040        3.09310
C          0.35420       13.78580        1.45000
C          0.34080       13.45650        0.10460
C         -0.08370       12.24280       -0.58840
C         -0.91600       11.28950       -0.06220
C         -1.27270       11.21620        1.29900
N         -1.56070       11.07780        2.40180
C         -1.56330       10.30500       -0.83630
N         -2.15660        9.51340       -1.41890
C          0.56450       10.07610       -2.91460
C          0.84520        9.27330       -1.83690
C          0.87560        7.89880       -2.13960
C          1.14290        6.83450       -1.25140
C          1.30020        7.07470        0.16620
C          0.54040        7.88890        0.96110
C          0.95130        7.89570        2.30740
C          2.02260        7.09030        2.54870
C          2.75120        6.87510        3.82980
C          4.12340        7.55180        3.81110
S          2.54280        6.29180        1.09990
C          1.18640        5.56650       -1.81260
C          0.94360        5.30960       -3.18440
C          0.67480        6.37010       -4.07290
C          0.49720        6.18140       -5.49700
C         -0.30900        6.88670       -6.34750
C         -0.13740        6.53780       -7.70050
C          0.80540        5.57710       -7.89970
C          1.27150        4.98930       -9.18620
C          1.00770        3.48600       -9.26140
S          1.48490        5.05890       -6.39310
C          0.63900        7.64590       -3.51450
S          0.36800        9.13130       -4.37930
C          0.93690        3.91760       -3.46220
C          1.16640        3.14030       -2.37400
S          1.44860        4.09320       -0.92610
C          1.09100        1.70760       -2.22120
C         -0.05840        0.94660       -2.26640
N         -1.32780        1.41080       -2.58740
C         -2.38530        0.98470       -1.77080
C         -2.19940        0.90080       -0.39300
C         -3.18430        0.38440        0.42540
C         -4.38530       -0.04290       -0.12210
S         -5.69610       -0.76780        0.81150
C         -5.10640       -0.68810        2.52760
C         -4.59430        0.08340       -1.49440
C         -3.60780        0.58740       -2.31190
C         -1.56840        2.08090       -3.79000
C         -0.89460        1.71590       -4.95640
C         -1.16310        2.36080       -6.14310
C         -2.10830        3.38370       -6.19410
S         -2.41930        4.09190       -7.78100
C         -3.57510        5.44570       -7.44150
C         -2.76730        3.76180       -5.03210
C         -2.50000        3.11320       -3.84270
C          0.18830       -0.37220       -1.80840
S         -0.83260       -1.72130       -1.48850
C          0.52450       -2.61560       -0.81280
C          1.71300       -1.89570       -0.85670
N          2.95160       -2.28530       -0.37440
C          4.09130       -1.84690       -1.06810
C          5.22200       -1.40920       -0.37780
C          6.32560       -0.96490       -1.06890
C          6.32700       -0.93810       -2.46310
S          7.79750       -0.34150       -3.23480
C          7.36030       -0.24860       -4.99440
C          5.20720       -1.37930       -3.15390
C          4.10230       -1.83270       -2.45980
C          3.09030       -3.03660        0.79590
C          2.18730       -2.89860        1.85050
C          2.29120       -3.70030        2.96530
C          3.30270       -4.65180        3.06100
S          3.30770       -5.66440        4.50610
C          4.98450       -6.36300        4.52560
C          4.22320       -4.77400        2.02870
C          4.11550       -3.97490        0.90860
C          1.49650       -0.61500       -1.43360
S          2.48220        0.79190       -1.66330
C          0.19290       -3.84560       -0.16990
C          0.95480       -4.93270        0.14190
C          0.29080       -5.88770        0.95010
C          0.81810       -7.07720        1.49740
C          2.17260       -7.52530        1.25330
C          2.99700       -8.19150        2.11880
C          4.24490       -8.52790        1.55990
C          4.38540       -8.13110        0.26530
C          5.53830       -8.35080       -0.65220
C          5.23760       -9.46250       -1.65980
S          2.95890       -7.32160       -0.28860
C         -0.04150       -7.80990        2.31260
C         -1.38440       -7.42990        2.57140
C         -1.92650       -6.25890        1.99330
C         -3.31860       -5.89680        2.12890
C         -3.88950       -4.65120        2.14140
C         -5.29490       -4.67380        2.19980
C         -5.81850       -5.93170        2.21680
C         -7.23970       -6.35630        2.34120
C         -7.60390       -6.61200        3.80620
S         -4.56420       -7.12040        2.17270
C         -1.04620       -5.50490        1.22640
S         -1.43480       -3.99060        0.46560
C         -2.03540       -8.34100        3.42160
C         -1.27290       -9.42630        3.77420
S          0.34110       -9.31130        3.10490
C         -1.61830      -10.49380        4.63540
C         -2.86430      -10.89700        5.01040
C         -3.02690      -11.70900        6.24720
O         -2.15760      -12.28570        6.85880
C         -4.46120      -11.60340        6.59010
C         -5.11960      -12.06540        7.71310
C         -6.48170      -11.82420        7.85580
C         -7.25710      -12.29620        9.04200
C         -7.12260      -11.11360        6.83880
F         -8.43750      -10.85900        6.97820
C         -6.49070      -10.65090        5.69610
C         -5.13490      -10.90520        5.57230
C         -4.18750      -10.59580        4.50370
C         -4.52990      -10.33240        3.20360
C         -5.85330      -10.12460        2.76640
N         -6.91170       -9.92350        2.36960
C         -3.60090      -10.31580        2.14200
N         -2.89150      -10.34610        1.24080
H          0.64910       11.92590       -3.96280
H          1.44680       16.38430       -1.24320
H          2.37860       17.30260        2.06740
H          1.93230       17.99010        0.49410
H          0.74610       17.88990        1.80590
H          0.06610       13.09730        2.22760
H          1.09570        9.66120       -0.86600
H         -0.32430        8.41680        0.60020
H          0.46020        8.47580        3.06850
H          2.15080        7.28200        4.64590
H          2.88380        5.80400        4.00090
H          4.73400        7.14230        3.00950
H          4.63540        7.39090        4.75630
H          4.01530        8.62240        3.65200
H         -1.02380        7.61700       -6.01220
H         -0.69150        6.99080       -8.50320
H          2.34480        5.17030       -9.29890
H          0.75400        5.49510      -10.00360
H          1.36740        3.08800      -10.20700
H         -0.05920        3.29090       -9.18290
H          1.52070        2.97400       -8.45000
H          0.75490        3.51010       -4.43810
H         -1.26620        1.23150        0.03990
H         -2.99630        0.31940        1.48470
H         -4.21360       -1.29550        2.64430
H         -5.90990       -1.09450        3.13420
H         -4.92270        0.34470        2.80880
H         -5.53420       -0.24150       -1.91360
H         -3.76910        0.65650       -3.37710
H         -0.16730        0.91790       -4.92420
H         -0.65410        2.06860       -7.04840
H         -3.12590        6.14230       -6.74010
H         -4.51420        5.05050       -7.06490
H         -3.74000        5.93530       -8.39640
H         -3.49390        4.55770       -5.03660
H         -3.02020        3.40450       -2.94250
H          5.22180       -1.41190        0.70180
H          7.19920       -0.61950       -0.53780
H          6.48340        0.37910       -5.12230
H          8.21560        0.20710       -5.48360
H          7.19730       -1.24540       -5.39410
H          5.18130       -1.38430       -4.23150
H          3.23790       -2.18500       -3.00370
H          1.40470       -2.15750        1.79170
H          1.58560       -3.60100        3.77570
H          5.10110       -7.08150        3.71990
H          5.08310       -6.86360        5.48370
H          5.71210       -5.56080        4.44830
H          5.01470       -5.50470        2.07240
H          4.82030       -4.09430        0.09880
H          1.96520       -5.04550       -0.19770
H          2.73650       -8.39670        3.14090
H          5.01340       -9.05610        2.09820
H          6.41450       -8.62150       -0.05860
H          5.76140       -7.42770       -1.19310
H          4.38080       -9.19270       -2.27290
H          6.09430       -9.62510       -2.30900
H          5.01180      -10.39120       -1.14090
H         -3.31700       -3.74190        2.14870
H         -5.90080       -3.78540        2.21020
H         -7.40010       -7.27580        1.77470
H         -7.88380       -5.57440        1.93380
H         -8.63730       -6.93830        3.88340
H         -7.47530       -5.70720        4.39640
H         -6.96440       -7.38900        4.21980
H         -3.01760       -8.17700        3.82420
H         -0.79650      -11.01220        5.11850
H         -4.57420      -12.60790        8.47010
H         -6.60410      -12.77620        9.76480
H         -7.76550      -11.45850        9.51800
H         -8.02380      -13.00490        8.73000
H         -7.05860      -10.11040        4.95650
