
  xtb     02102221103D
 energy: -352.173745834614 gnorm: 0.000441811577 xtb: 6.4.1 (unknown)
203222  0     0  0            999 V2000
   11.2895   -1.6253    3.7033 C   0  0  0  0  0  0  0  0  0  0  0  0
   11.8472   -2.0288    4.8854 C   0  0  0  0  0  0  0  0  0  0  0  0
   11.1796   -2.3637    6.1660 C   0  0  0  0  0  0  0  0  0  0  0  0
   10.0408   -2.1406    6.5201 O   0  0  0  0  0  0  0  0  0  0  0  0
   12.2061   -3.0466    6.9791 C   0  0  0  0  0  0  0  0  0  0  0  0
   12.0586   -3.6276    8.2235 C   0  0  0  0  0  0  0  0  0  0  0  0
   13.1525   -4.2374    8.8262 C   0  0  0  0  0  0  0  0  0  0  0  0
   13.0681   -4.8899   10.1669 C   0  0  0  0  0  0  0  0  0  0  0  0
   14.3617   -4.2260    8.1272 C   0  0  0  0  0  0  0  0  0  0  0  0
   15.4250   -4.8206    8.7000 F   0  0  0  0  0  0  0  0  0  0  0  0
   14.5374   -3.6445    6.8824 C   0  0  0  0  0  0  0  0  0  0  0  0
   13.4336   -3.0420    6.2989 C   0  0  0  0  0  0  0  0  0  0  0  0
   13.2613   -2.3452    5.0284 C   0  0  0  0  0  0  0  0  0  0  0  0
   14.2777   -1.9960    4.1795 C   0  0  0  0  0  0  0  0  0  0  0  0
   15.6319   -2.3294    4.3974 C   0  0  0  0  0  0  0  0  0  0  0  0
   16.7475   -2.5726    4.5135 N   0  0  0  0  0  0  0  0  0  0  0  0
   14.1497   -1.2190    3.0077 C   0  0  0  0  0  0  0  0  0  0  0  0
   14.1475   -0.5743    2.0574 N   0  0  0  0  0  0  0  0  0  0  0  0
    9.9592   -1.3045    3.3598 C   0  0  0  0  0  0  0  0  0  0  0  0
    8.8205   -1.1421    4.1115 C   0  0  0  0  0  0  0  0  0  0  0  0
    7.6792   -0.8231    3.3546 C   0  0  0  0  0  0  0  0  0  0  0  0
    6.3679   -0.6020    3.8348 C   0  0  0  0  0  0  0  0  0  0  0  0
    6.0197   -0.7010    5.2365 C   0  0  0  0  0  0  0  0  0  0  0  0
    5.2093    0.1359    5.9552 C   0  0  0  0  0  0  0  0  0  0  0  0
    5.0503   -0.2632    7.2944 C   0  0  0  0  0  0  0  0  0  0  0  0
    5.7172   -1.4117    7.5999 C   0  0  0  0  0  0  0  0  0  0  0  0
    5.7283   -2.1601    8.8875 C   0  0  0  0  0  0  0  0  0  0  0  0
    4.7465   -3.3340    8.8471 C   0  0  0  0  0  0  0  0  0  0  0  0
    6.5756   -2.0180    6.2281 S   0  0  0  0  0  0  0  0  0  0  0  0
    5.4133   -0.2896    2.8799 C   0  0  0  0  0  0  0  0  0  0  0  0
    5.6792   -0.2235    1.4882 C   0  0  0  0  0  0  0  0  0  0  0  0
    6.9928   -0.4134    1.0062 C   0  0  0  0  0  0  0  0  0  0  0  0
    7.3435   -0.2946   -0.3942 C   0  0  0  0  0  0  0  0  0  0  0  0
    8.4973    0.2187   -0.9217 C   0  0  0  0  0  0  0  0  0  0  0  0
    8.5365    0.1876   -2.3277 C   0  0  0  0  0  0  0  0  0  0  0  0
    7.4256   -0.3603   -2.8899 C   0  0  0  0  0  0  0  0  0  0  0  0
    7.1315   -0.5969   -4.3306 C   0  0  0  0  0  0  0  0  0  0  0  0
    7.4014   -2.0529   -4.7173 C   0  0  0  0  0  0  0  0  0  0  0  0
    6.2969   -0.8517   -1.6729 S   0  0  0  0  0  0  0  0  0  0  0  0
    7.9609   -0.7033    1.9661 C   0  0  0  0  0  0  0  0  0  0  0  0
    9.6409   -1.0136    1.6490 S   0  0  0  0  0  0  0  0  0  0  0  0
    4.5131    0.0761    0.7480 C   0  0  0  0  0  0  0  0  0  0  0  0
    3.3984    0.2609    1.5157 C   0  0  0  0  0  0  0  0  0  0  0  0
    3.7329    0.0234    3.2207 S   0  0  0  0  0  0  0  0  0  0  0  0
    2.0887    0.6538    1.1231 C   0  0  0  0  0  0  0  0  0  0  0  0
    1.6543    1.3613    0.0078 C   0  0  0  0  0  0  0  0  0  0  0  0
    2.3971    1.8309   -1.0621 N   0  0  0  0  0  0  0  0  0  0  0  0
    3.6876    2.3407   -0.9594 C   0  0  0  0  0  0  0  0  0  0  0  0
    4.5435    2.2834   -2.0629 C   0  0  0  0  0  0  0  0  0  0  0  0
    5.8570    2.6772   -1.9456 C   0  0  0  0  0  0  0  0  0  0  0  0
    6.3510    3.1304   -0.7251 C   0  0  0  0  0  0  0  0  0  0  0  0
    8.0685    3.5318   -0.6373 S   0  0  0  0  0  0  0  0  0  0  0  0
    8.4390    3.2784    1.1241 C   0  0  0  0  0  0  0  0  0  0  0  0
    5.4888    3.2570    0.3544 C   0  0  0  0  0  0  0  0  0  0  0  0
    4.1695    2.8685    0.2372 C   0  0  0  0  0  0  0  0  0  0  0  0
    1.7060    1.8743   -2.2947 C   0  0  0  0  0  0  0  0  0  0  0  0
    1.5622    3.0698   -2.9915 C   0  0  0  0  0  0  0  0  0  0  0  0
    0.7179    3.1360   -4.0816 C   0  0  0  0  0  0  0  0  0  0  0  0
    0.0103    2.0095   -4.4822 C   0  0  0  0  0  0  0  0  0  0  0  0
   -1.2048    2.0741   -5.7653 S   0  0  0  0  0  0  0  0  0  0  0  0
   -1.9739    3.6932   -5.4448 C   0  0  0  0  0  0  0  0  0  0  0  0
    0.2303    0.7899   -3.8517 C   0  0  0  0  0  0  0  0  0  0  0  0
    1.0750    0.7230   -2.7645 C   0  0  0  0  0  0  0  0  0  0  0  0
    0.2472    1.5450    0.0617 C   0  0  0  0  0  0  0  0  0  0  0  0
   -0.8910    2.3048   -0.9915 S   0  0  0  0  0  0  0  0  0  0  0  0
   -2.2176    1.8292    0.0552 C   0  0  0  0  0  0  0  0  0  0  0  0
   -1.7941    1.1109    1.1638 C   0  0  0  0  0  0  0  0  0  0  0  0
   -2.6110    0.4824    2.0868 N   0  0  0  0  0  0  0  0  0  0  0  0
   -3.8386   -0.0744    1.6922 C   0  0  0  0  0  0  0  0  0  0  0  0
   -4.9442    0.0093    2.5346 C   0  0  0  0  0  0  0  0  0  0  0  0
   -6.1840   -0.4332    2.1164 C   0  0  0  0  0  0  0  0  0  0  0  0
   -6.3362   -0.9719    0.8458 C   0  0  0  0  0  0  0  0  0  0  0  0
   -7.8866   -1.4830    0.1723 S   0  0  0  0  0  0  0  0  0  0  0  0
   -8.8919   -1.8032    1.6516 C   0  0  0  0  0  0  0  0  0  0  0  0
   -5.2227   -1.1044    0.0202 C   0  0  0  0  0  0  0  0  0  0  0  0
   -3.9848   -0.6725    0.4401 C   0  0  0  0  0  0  0  0  0  0  0  0
   -2.1160    0.2481    3.3760 C   0  0  0  0  0  0  0  0  0  0  0  0
   -1.3561    1.2198    4.0239 C   0  0  0  0  0  0  0  0  0  0  0  0
   -0.7764    0.9576    5.2496 C   0  0  0  0  0  0  0  0  0  0  0  0
   -0.9557   -0.2803    5.8499 C   0  0  0  0  0  0  0  0  0  0  0  0
   -0.1975   -0.7220    7.3838 S   0  0  0  0  0  0  0  0  0  0  0  0
    1.3200    0.2791    7.3710 C   0  0  0  0  0  0  0  0  0  0  0  0
   -1.7722   -1.2288    5.2395 C   0  0  0  0  0  0  0  0  0  0  0  0
   -2.3451   -0.9710    4.0146 C   0  0  0  0  0  0  0  0  0  0  0  0
   -0.3773    0.9948    1.1664 C   0  0  0  0  0  0  0  0  0  0  0  0
    0.7707    0.2535    2.2215 S   0  0  0  0  0  0  0  0  0  0  0  0
   -3.5343    2.0324   -0.4653 C   0  0  0  0  0  0  0  0  0  0  0  0
   -3.8800    1.8469   -1.7713 C   0  0  0  0  0  0  0  0  0  0  0  0
   -5.2750    1.8692   -1.9949 C   0  0  0  0  0  0  0  0  0  0  0  0
   -5.9569    1.5145   -3.1689 C   0  0  0  0  0  0  0  0  0  0  0  0
   -5.2549    1.0992   -4.3743 C   0  0  0  0  0  0  0  0  0  0  0  0
   -5.6103    1.8338   -5.9106 S   0  0  0  0  0  0  0  0  0  0  0  0
   -4.5107    0.7962   -6.7551 C   0  0  0  0  0  0  0  0  0  0  0  0
   -4.3319    0.9014   -8.2292 C   0  0  0  0  0  0  0  0  0  0  0  0
   -3.6151    2.1923   -8.6254 C   0  0  0  0  0  0  0  0  0  0  0  0
   -3.9004   -0.0527   -5.8824 C   0  0  0  0  0  0  0  0  0  0  0  0
   -2.7445   -1.2336   -6.3381 Cl  0  0  0  0  0  0  0  0  0  0  0  0
   -4.3197    0.1154   -4.5355 C   0  0  0  0  0  0  0  0  0  0  0  0
   -3.7496   -0.9036   -3.2800 Cl  0  0  0  0  0  0  0  0  0  0  0  0
   -7.3453    1.5219   -3.1170 C   0  0  0  0  0  0  0  0  0  0  0  0
   -8.0681    1.8498   -1.9383 C   0  0  0  0  0  0  0  0  0  0  0  0
   -7.3837    2.1944   -0.7453 C   0  0  0  0  0  0  0  0  0  0  0  0
   -8.0585    2.4791    0.4993 C   0  0  0  0  0  0  0  0  0  0  0  0
   -7.6602    3.3329    1.4943 C   0  0  0  0  0  0  0  0  0  0  0  0
   -8.5153    3.3330    2.6110 C   0  0  0  0  0  0  0  0  0  0  0  0
   -9.5641    2.4716    2.4919 C   0  0  0  0  0  0  0  0  0  0  0  0
  -10.6863    2.2331    3.4421 C   0  0  0  0  0  0  0  0  0  0  0  0
  -11.9826    2.8698    2.9354 C   0  0  0  0  0  0  0  0  0  0  0  0
   -9.5187    1.6543    0.9671 S   0  0  0  0  0  0  0  0  0  0  0  0
   -5.9973    2.1944   -0.8183 C   0  0  0  0  0  0  0  0  0  0  0  0
   -4.9119    2.4642    0.5216 S   0  0  0  0  0  0  0  0  0  0  0  0
   -9.4490    1.7584   -2.1626 C   0  0  0  0  0  0  0  0  0  0  0  0
   -9.7949    1.3367   -3.4338 C   0  0  0  0  0  0  0  0  0  0  0  0
   -8.3856    1.0649   -4.4328 S   0  0  0  0  0  0  0  0  0  0  0  0
  -11.1442    1.1482   -3.7977 C   0  0  0  0  0  0  0  0  0  0  0  0
  -11.6975    0.6985   -4.9624 C   0  0  0  0  0  0  0  0  0  0  0  0
  -10.9599    0.3171   -6.1860 C   0  0  0  0  0  0  0  0  0  0  0  0
   -9.7584    0.3610   -6.3580 O   0  0  0  0  0  0  0  0  0  0  0  0
  -11.9817   -0.1182   -7.1478 C   0  0  0  0  0  0  0  0  0  0  0  0
  -11.8064   -0.5890   -8.4528 C   0  0  0  0  0  0  0  0  0  0  0  0
  -10.5531   -0.6632   -8.9236 O   0  0  0  0  0  0  0  0  0  0  0  0
  -10.3332   -1.1432  -10.2291 C   0  0  0  0  0  0  0  0  0  0  0  0
  -12.9596   -0.9468   -9.1622 C   0  0  0  0  0  0  0  0  0  0  0  0
  -14.2107   -0.8325   -8.5836 C   0  0  0  0  0  0  0  0  0  0  0  0
  -14.3850   -0.3647   -7.2879 C   0  0  0  0  0  0  0  0  0  0  0  0
  -13.2573   -0.0066   -6.5686 C   0  0  0  0  0  0  0  0  0  0  0  0
  -13.1129    0.5036   -5.2051 C   0  0  0  0  0  0  0  0  0  0  0  0
  -14.1473    0.7361   -4.3356 C   0  0  0  0  0  0  0  0  0  0  0  0
  -14.0300    1.2159   -3.0139 C   0  0  0  0  0  0  0  0  0  0  0  0
  -14.0377    1.5990   -1.9304 N   0  0  0  0  0  0  0  0  0  0  0  0
  -15.5088    0.5234   -4.6394 C   0  0  0  0  0  0  0  0  0  0  0  0
  -16.6352    0.3779   -4.8081 N   0  0  0  0  0  0  0  0  0  0  0  0
   11.9635   -1.5740    2.8556 H   0  0  0  0  0  0  0  0  0  0  0  0
   11.0977   -3.6057    8.7147 H   0  0  0  0  0  0  0  0  0  0  0  0
   12.0626   -4.8154   10.5705 H   0  0  0  0  0  0  0  0  0  0  0  0
   13.7668   -4.4197   10.8582 H   0  0  0  0  0  0  0  0  0  0  0  0
   13.3463   -5.9406   10.0914 H   0  0  0  0  0  0  0  0  0  0  0  0
   15.5065   -3.6843    6.4136 H   0  0  0  0  0  0  0  0  0  0  0  0
    8.8211   -1.2508    5.1794 H   0  0  0  0  0  0  0  0  0  0  0  0
    4.7768    1.0319    5.5472 H   0  0  0  0  0  0  0  0  0  0  0  0
    4.4697    0.2897    8.0115 H   0  0  0  0  0  0  0  0  0  0  0  0
    6.7341   -2.5387    9.0818 H   0  0  0  0  0  0  0  0  0  0  0  0
    5.4535   -1.4797    9.6966 H   0  0  0  0  0  0  0  0  0  0  0  0
    5.0211   -4.0264    8.0546 H   0  0  0  0  0  0  0  0  0  0  0  0
    3.7362   -2.9780    8.6584 H   0  0  0  0  0  0  0  0  0  0  0  0
    4.7564   -3.8672    9.7943 H   0  0  0  0  0  0  0  0  0  0  0  0
    9.2845    0.6474   -0.3296 H   0  0  0  0  0  0  0  0  0  0  0  0
    9.3610    0.5716   -2.9012 H   0  0  0  0  0  0  0  0  0  0  0  0
    6.0853   -0.3587   -4.5374 H   0  0  0  0  0  0  0  0  0  0  0  0
    7.7606    0.0638   -4.9311 H   0  0  0  0  0  0  0  0  0  0  0  0
    8.4423   -2.3062   -4.5302 H   0  0  0  0  0  0  0  0  0  0  0  0
    6.7727   -2.7205   -4.1323 H   0  0  0  0  0  0  0  0  0  0  0  0
    7.1885   -2.2088   -5.7718 H   0  0  0  0  0  0  0  0  0  0  0  0
    4.4898    0.1248   -0.3219 H   0  0  0  0  0  0  0  0  0  0  0  0
    4.1760    1.8967   -3.0018 H   0  0  0  0  0  0  0  0  0  0  0  0
    6.5249    2.6092   -2.7903 H   0  0  0  0  0  0  0  0  0  0  0  0
    8.0937    4.1240    1.7121 H   0  0  0  0  0  0  0  0  0  0  0  0
    9.5197    3.2037    1.1948 H   0  0  0  0  0  0  0  0  0  0  0  0
    7.9763    2.3538    1.4577 H   0  0  0  0  0  0  0  0  0  0  0  0
    5.8359    3.6530    1.2955 H   0  0  0  0  0  0  0  0  0  0  0  0
    3.5056    2.9766    1.0814 H   0  0  0  0  0  0  0  0  0  0  0  0
    2.0850    3.9515   -2.6516 H   0  0  0  0  0  0  0  0  0  0  0  0
    0.5901    4.0741   -4.5986 H   0  0  0  0  0  0  0  0  0  0  0  0
   -2.0309    3.8484   -4.3719 H   0  0  0  0  0  0  0  0  0  0  0  0
   -1.4079    4.4868   -5.9239 H   0  0  0  0  0  0  0  0  0  0  0  0
   -2.9722    3.6443   -5.8682 H   0  0  0  0  0  0  0  0  0  0  0  0
   -0.2916   -0.0884   -4.1986 H   0  0  0  0  0  0  0  0  0  0  0  0
    1.2162   -0.2104   -2.2395 H   0  0  0  0  0  0  0  0  0  0  0  0
   -4.8343    0.4570    3.5110 H   0  0  0  0  0  0  0  0  0  0  0  0
   -7.0282   -0.3254    2.7785 H   0  0  0  0  0  0  0  0  0  0  0  0
   -9.7764   -2.3238    1.2988 H   0  0  0  0  0  0  0  0  0  0  0  0
   -9.1825   -0.8685    2.1217 H   0  0  0  0  0  0  0  0  0  0  0  0
   -8.3341   -2.4343    2.3366 H   0  0  0  0  0  0  0  0  0  0  0  0
   -5.3437   -1.5477   -0.9557 H   0  0  0  0  0  0  0  0  0  0  0  0
   -3.1276   -0.7871   -0.2062 H   0  0  0  0  0  0  0  0  0  0  0  0
   -1.2165    2.1850    3.5595 H   0  0  0  0  0  0  0  0  0  0  0  0
   -0.1850    1.7230    5.7260 H   0  0  0  0  0  0  0  0  0  0  0  0
    1.9642   -0.1571    8.1279 H   0  0  0  0  0  0  0  0  0  0  0  0
    1.7898    0.2068    6.3946 H   0  0  0  0  0  0  0  0  0  0  0  0
    1.0993    1.3111    7.6284 H   0  0  0  0  0  0  0  0  0  0  0  0
   -1.9273   -2.1797    5.7252 H   0  0  0  0  0  0  0  0  0  0  0  0
   -2.9490   -1.7224    3.5284 H   0  0  0  0  0  0  0  0  0  0  0  0
   -3.1557    1.6210   -2.5322 H   0  0  0  0  0  0  0  0  0  0  0  0
   -5.3130    0.8718   -8.7092 H   0  0  0  0  0  0  0  0  0  0  0  0
   -3.7524    0.0411   -8.5676 H   0  0  0  0  0  0  0  0  0  0  0  0
   -3.5025    2.2399   -9.7052 H   0  0  0  0  0  0  0  0  0  0  0  0
   -2.6285    2.2267   -8.1704 H   0  0  0  0  0  0  0  0  0  0  0  0
   -4.1874    3.0567   -8.2962 H   0  0  0  0  0  0  0  0  0  0  0  0
   -6.8036    3.9768    1.4115 H   0  0  0  0  0  0  0  0  0  0  0  0
   -8.3561    3.9501    3.4774 H   0  0  0  0  0  0  0  0  0  0  0  0
  -10.8447    1.1589    3.5699 H   0  0  0  0  0  0  0  0  0  0  0  0
  -10.4210    2.6579    4.4126 H   0  0  0  0  0  0  0  0  0  0  0  0
  -12.7879    2.6985    3.6449 H   0  0  0  0  0  0  0  0  0  0  0  0
  -11.8524    3.9421    2.8085 H   0  0  0  0  0  0  0  0  0  0  0  0
  -12.2661    2.4397    1.9776 H   0  0  0  0  0  0  0  0  0  0  0  0
  -10.1997    1.9914   -1.4295 H   0  0  0  0  0  0  0  0  0  0  0  0
  -11.8285    1.3902   -2.9933 H   0  0  0  0  0  0  0  0  0  0  0  0
   -9.2543   -1.1151  -10.3704 H   0  0  0  0  0  0  0  0  0  0  0  0
  -10.8135   -0.5056  -10.9780 H   0  0  0  0  0  0  0  0  0  0  0  0
  -10.6865   -2.1727  -10.3436 H   0  0  0  0  0  0  0  0  0  0  0  0
  -12.8845   -1.3174  -10.1721 H   0  0  0  0  0  0  0  0  0  0  0  0
  -15.0787   -1.1175   -9.1590 H   0  0  0  0  0  0  0  0  0  0  0  0
  -15.3748   -0.2906   -6.8715 H   0  0  0  0  0  0  0  0  0  0  0  0
  1  2  2  0  0  0  0
  2  3  1  0  0  0  0
  3  4  2  0  0  0  0
  3  5  1  0  0  0  0
  5  6  2  0  0  0  0
  6  7  1  0  0  0  0
  7  8  1  0  0  0  0
  7  9  2  0  0  0  0
  9 10  1  0  0  0  0
  9 11  1  0  0  0  0
 11 12  2  0  0  0  0
 12 13  1  0  0  0  0
 13 14  2  0  0  0  0
 14 15  1  0  0  0  0
 15 16  3  0  0  0  0
 14 17  1  0  0  0  0
 17 18  3  0  0  0  0
  1 19  1  0  0  0  0
 19 20  2  0  0  0  0
 20 21  1  0  0  0  0
 21 22  2  0  0  0  0
 22 23  1  0  0  0  0
 23 24  2  0  0  0  0
 24 25  1  0  0  0  0
 25 26  2  0  0  0  0
 26 27  1  0  0  0  0
 27 28  1  0  0  0  0
 26 29  1  0  0  0  0
 22 30  1  0  0  0  0
 30 31  2  0  0  0  0
 31 32  1  0  0  0  0
 32 33  1  0  0  0  0
 33 34  2  0  0  0  0
 34 35  1  0  0  0  0
 35 36  2  0  0  0  0
 36 37  1  0  0  0  0
 37 38  1  0  0  0  0
 36 39  1  0  0  0  0
 32 40  2  0  0  0  0
 40 41  1  0  0  0  0
 31 42  1  0  0  0  0
 42 43  2  0  0  0  0
 43 44  1  0  0  0  0
 43 45  1  0  0  0  0
 45 46  2  0  0  0  0
 46 47  1  0  0  0  0
 47 48  1  0  0  0  0
 48 49  2  0  0  0  0
 49 50  1  0  0  0  0
 50 51  2  0  0  0  0
 51 52  1  0  0  0  0
 52 53  1  0  0  0  0
 51 54  1  0  0  0  0
 54 55  2  0  0  0  0
 47 56  1  0  0  0  0
 56 57  2  0  0  0  0
 57 58  1  0  0  0  0
 58 59  2  0  0  0  0
 59 60  1  0  0  0  0
 60 61  1  0  0  0  0
 59 62  1  0  0  0  0
 62 63  2  0  0  0  0
 46 64  1  0  0  0  0
 64 65  1  0  0  0  0
 65 66  1  0  0  0  0
 66 67  2  0  0  0  0
 67 68  1  0  0  0  0
 68 69  1  0  0  0  0
 69 70  2  0  0  0  0
 70 71  1  0  0  0  0
 71 72  2  0  0  0  0
 72 73  1  0  0  0  0
 73 74  1  0  0  0  0
 72 75  1  0  0  0  0
 75 76  2  0  0  0  0
 68 77  1  0  0  0  0
 77 78  2  0  0  0  0
 78 79  1  0  0  0  0
 79 80  2  0  0  0  0
 80 81  1  0  0  0  0
 81 82  1  0  0  0  0
 80 83  1  0  0  0  0
 83 84  2  0  0  0  0
 67 85  1  0  0  0  0
 85 86  1  0  0  0  0
 66 87  1  0  0  0  0
 87 88  2  0  0  0  0
 88 89  1  0  0  0  0
 89 90  2  0  0  0  0
 90 91  1  0  0  0  0
 91 92  1  0  0  0  0
 92 93  1  0  0  0  0
 93 94  1  0  0  0  0
 94 95  1  0  0  0  0
 93 96  2  0  0  0  0
 96 97  1  0  0  0  0
 96 98  1  0  0  0  0
 98 99  1  0  0  0  0
 90100  1  0  0  0  0
100101  2  0  0  0  0
101102  1  0  0  0  0
102103  1  0  0  0  0
103104  2  0  0  0  0
104105  1  0  0  0  0
105106  2  0  0  0  0
106107  1  0  0  0  0
107108  1  0  0  0  0
106109  1  0  0  0  0
102110  2  0  0  0  0
110111  1  0  0  0  0
101112  1  0  0  0  0
112113  2  0  0  0  0
113114  1  0  0  0  0
113115  1  0  0  0  0
115116  2  0  0  0  0
116117  1  0  0  0  0
117118  2  0  0  0  0
117119  1  0  0  0  0
119120  2  0  0  0  0
120121  1  0  0  0  0
121122  1  0  0  0  0
120123  1  0  0  0  0
123124  2  0  0  0  0
124125  1  0  0  0  0
125126  2  0  0  0  0
126127  1  0  0  0  0
127128  2  0  0  0  0
128129  1  0  0  0  0
129130  3  0  0  0  0
128131  1  0  0  0  0
131132  3  0  0  0  0
 13  2  1  0  0  0  0
 41 19  1  0  0  0  0
 86 45  1  0  0  0  0
111 87  1  0  0  0  0
127116  1  0  0  0  0
 12  5  1  0  0  0  0
 40 21  1  0  0  0  0
 55 48  1  0  0  0  0
 63 56  1  0  0  0  0
 85 64  2  0  0  0  0
110 89  1  0  0  0  0
126119  1  0  0  0  0
 29 23  1  0  0  0  0
 44 30  1  0  0  0  0
 76 69  1  0  0  0  0
 84 77  1  0  0  0  0
 98 91  2  0  0  0  0
114100  1  0  0  0  0
 39 33  1  0  0  0  0
109103  1  0  0  0  0
  1133  1  0  0  0  0
  6134  1  0  0  0  0
  8135  1  0  0  0  0
  8136  1  0  0  0  0
  8137  1  0  0  0  0
 11138  1  0  0  0  0
 20139  1  0  0  0  0
 24140  1  0  0  0  0
 25141  1  0  0  0  0
 27142  1  0  0  0  0
 27143  1  0  0  0  0
 28144  1  0  0  0  0
 28145  1  0  0  0  0
 28146  1  0  0  0  0
 34147  1  0  0  0  0
 35148  1  0  0  0  0
 37149  1  0  0  0  0
 37150  1  0  0  0  0
 38151  1  0  0  0  0
 38152  1  0  0  0  0
 38153  1  0  0  0  0
 42154  1  0  0  0  0
 49155  1  0  0  0  0
 50156  1  0  0  0  0
 53157  1  0  0  0  0
 53158  1  0  0  0  0
 53159  1  0  0  0  0
 54160  1  0  0  0  0
 55161  1  0  0  0  0
 57162  1  0  0  0  0
 58163  1  0  0  0  0
 61164  1  0  0  0  0
 61165  1  0  0  0  0
 61166  1  0  0  0  0
 62167  1  0  0  0  0
 63168  1  0  0  0  0
 70169  1  0  0  0  0
 71170  1  0  0  0  0
 74171  1  0  0  0  0
 74172  1  0  0  0  0
 74173  1  0  0  0  0
 75174  1  0  0  0  0
 76175  1  0  0  0  0
 78176  1  0  0  0  0
 79177  1  0  0  0  0
 82178  1  0  0  0  0
 82179  1  0  0  0  0
 82180  1  0  0  0  0
 83181  1  0  0  0  0
 84182  1  0  0  0  0
 88183  1  0  0  0  0
 94184  1  0  0  0  0
 94185  1  0  0  0  0
 95186  1  0  0  0  0
 95187  1  0  0  0  0
 95188  1  0  0  0  0
104189  1  0  0  0  0
105190  1  0  0  0  0
107191  1  0  0  0  0
107192  1  0  0  0  0
108193  1  0  0  0  0
108194  1  0  0  0  0
108195  1  0  0  0  0
112196  1  0  0  0  0
115197  1  0  0  0  0
122198  1  0  0  0  0
122199  1  0  0  0  0
122200  1  0  0  0  0
123201  1  0  0  0  0
124202  1  0  0  0  0
125203  1  0  0  0  0
M  END
