
  xtb     02032220203D
 energy: -287.873440450968 gnorm: 0.000772064064 xtb: 6.4.1 (unknown)
158172  0     0  0            999 V2000
   -6.0066   -8.8111    6.6635 C   0  0  0  0  0  0  0  0  0  0  0  0
   -5.4217   -8.7379    7.8933 C   0  0  0  0  0  0  0  0  0  0  0  0
   -5.5162   -9.8779    8.8393 C   0  0  0  0  0  0  0  0  0  0  0  0
   -6.2457  -10.8398    8.7521 O   0  0  0  0  0  0  0  0  0  0  0  0
   -4.4900   -9.6059    9.8695 C   0  0  0  0  0  0  0  0  0  0  0  0
   -4.0853  -10.4048   10.9209 C   0  0  0  0  0  0  0  0  0  0  0  0
   -3.0759   -9.9613   11.7685 C   0  0  0  0  0  0  0  0  0  0  0  0
   -2.5928  -10.7704   12.9275 C   0  0  0  0  0  0  0  0  0  0  0  0
   -2.5130   -8.7108   11.5054 C   0  0  0  0  0  0  0  0  0  0  0  0
   -1.5232   -8.2822   12.3119 F   0  0  0  0  0  0  0  0  0  0  0  0
   -2.9070   -7.8836   10.4663 C   0  0  0  0  0  0  0  0  0  0  0  0
   -3.9158   -8.3432    9.6367 C   0  0  0  0  0  0  0  0  0  0  0  0
   -4.5907   -7.7222    8.5000 C   0  0  0  0  0  0  0  0  0  0  0  0
   -4.6480   -6.3739    8.2553 C   0  0  0  0  0  0  0  0  0  0  0  0
   -3.8698   -5.4193    8.9389 C   0  0  0  0  0  0  0  0  0  0  0  0
   -3.2410   -4.6060    9.4497 N   0  0  0  0  0  0  0  0  0  0  0  0
   -5.5627   -5.7843    7.3586 C   0  0  0  0  0  0  0  0  0  0  0  0
   -6.3284   -5.2577    6.6837 N   0  0  0  0  0  0  0  0  0  0  0  0
   -5.7162   -8.0523    5.5100 C   0  0  0  0  0  0  0  0  0  0  0  0
   -4.1548   -7.3043    5.2365 S   0  0  0  0  0  0  0  0  0  0  0  0
   -4.7129   -6.6382    3.7546 C   0  0  0  0  0  0  0  0  0  0  0  0
   -4.0496   -5.7775    2.8533 C   0  0  0  0  0  0  0  0  0  0  0  0
   -4.7694   -5.3064    1.7600 C   0  0  0  0  0  0  0  0  0  0  0  0
   -6.6114   -6.0117    1.8560 Ge  0  0  0  0  0  4  0  0  0  0  0  0
   -7.8994   -4.5598    2.3501 C   0  0  0  0  0  0  0  0  0  0  0  0
   -7.3941   -3.7345    3.5242 C   0  0  0  0  0  0  0  0  0  0  0  0
   -7.1095   -7.1806    0.2996 C   0  0  0  0  0  0  0  0  0  0  0  0
   -7.1986   -6.4019   -1.0039 C   0  0  0  0  0  0  0  0  0  0  0  0
   -6.0315   -6.9884    3.4695 C   0  0  0  0  0  0  0  0  0  0  0  0
   -6.5736   -7.8083    4.4458 C   0  0  0  0  0  0  0  0  0  0  0  0
   -4.0260   -4.4195    0.9889 C   0  0  0  0  0  0  0  0  0  0  0  0
   -2.7469   -4.2100    1.4739 C   0  0  0  0  0  0  0  0  0  0  0  0
   -2.4502   -5.1384    2.9171 S   0  0  0  0  0  0  0  0  0  0  0  0
   -1.7623   -3.3156    0.9670 C   0  0  0  0  0  0  0  0  0  0  0  0
   -1.8723   -2.4787   -0.1084 C   0  0  0  0  0  0  0  0  0  0  0  0
   -0.7522   -1.6315   -0.2879 C   0  0  0  0  0  0  0  0  0  0  0  0
   -0.5582   -0.6480   -1.2740 C   0  0  0  0  0  0  0  0  0  0  0  0
   -1.5822   -0.3606   -2.2860 C   0  0  0  0  0  0  0  0  0  0  0  0
   -1.2517   -0.2933   -3.6365 C   0  0  0  0  0  0  0  0  0  0  0  0
   -2.2052   -0.0353   -4.6008 C   0  0  0  0  0  0  0  0  0  0  0  0
   -3.5378    0.1650   -4.2453 C   0  0  0  0  0  0  0  0  0  0  0  0
   -4.5548    0.4344   -5.0843 O   0  0  0  0  0  0  0  0  0  0  0  0
   -4.3467    0.4499   -6.4860 C   0  0  0  0  0  0  0  0  0  0  0  0
   -4.2716   -0.9541   -7.0760 C   0  0  0  0  0  0  0  0  0  0  0  0
   -3.8692    0.1017   -2.8803 C   0  0  0  0  0  0  0  0  0  0  0  0
   -5.3056    0.2997   -2.4909 C   0  0  0  0  0  0  0  0  0  0  0  0
   -5.5009    0.1851   -1.1652 F   0  0  0  0  0  0  0  0  0  0  0  0
   -6.1197   -0.6129   -3.0551 F   0  0  0  0  0  0  0  0  0  0  0  0
   -5.7875    1.5032   -2.8348 F   0  0  0  0  0  0  0  0  0  0  0  0
   -2.9074   -0.1483   -1.9193 C   0  0  0  0  0  0  0  0  0  0  0  0
    0.6407    0.0460   -1.2332 C   0  0  0  0  0  0  0  0  0  0  0  0
    1.6550   -0.2073   -0.2755 C   0  0  0  0  0  0  0  0  0  0  0  0
    1.4702   -1.2052    0.6979 C   0  0  0  0  0  0  0  0  0  0  0  0
    2.5170   -1.5149    1.6793 C   0  0  0  0  0  0  0  0  0  0  0  0
    2.2322   -1.6130    3.0381 C   0  0  0  0  0  0  0  0  0  0  0  0
    3.2148   -1.9147    3.9600 C   0  0  0  0  0  0  0  0  0  0  0  0
    4.5299   -2.1263    3.5500 C   0  0  0  0  0  0  0  0  0  0  0  0
    5.5638   -2.4237    4.3542 O   0  0  0  0  0  0  0  0  0  0  0  0
    5.3476   -2.5906    5.7462 C   0  0  0  0  0  0  0  0  0  0  0  0
    6.6815   -2.9711    6.3663 C   0  0  0  0  0  0  0  0  0  0  0  0
    4.8185   -2.0208    2.1781 C   0  0  0  0  0  0  0  0  0  0  0  0
    3.8277   -1.7261    1.2607 C   0  0  0  0  0  0  0  0  0  0  0  0
    6.2371   -2.2311    1.7347 C   0  0  0  0  0  0  0  0  0  0  0  0
    7.0870   -1.3471    2.2893 F   0  0  0  0  0  0  0  0  0  0  0  0
    6.3880   -2.0914    0.4051 F   0  0  0  0  0  0  0  0  0  0  0  0
    6.7089   -3.4510    2.0344 F   0  0  0  0  0  0  0  0  0  0  0  0
    0.2568   -1.8747    0.6794 C   0  0  0  0  0  0  0  0  0  0  0  0
   -0.2260   -3.1296    1.7894 S   0  0  0  0  0  0  0  0  0  0  0  0
    2.7411    0.6927   -0.4051 C   0  0  0  0  0  0  0  0  0  0  0  0
    2.5805    1.6058   -1.4087 C   0  0  0  0  0  0  0  0  0  0  0  0
    1.0704    1.3814   -2.2691 S   0  0  0  0  0  0  0  0  0  0  0  0
    3.4659    2.6645   -1.7638 C   0  0  0  0  0  0  0  0  0  0  0  0
    2.9152    4.0009   -2.7341 S   0  0  0  0  0  0  0  0  0  0  0  0
    4.4632    4.7494   -2.6082 C   0  0  0  0  0  0  0  0  0  0  0  0
    4.8980    5.9944   -3.1157 C   0  0  0  0  0  0  0  0  0  0  0  0
    6.2266    6.3587   -2.8484 C   0  0  0  0  0  0  0  0  0  0  0  0
    7.1033    4.9202   -1.8185 Ge  0  0  0  0  0  4  0  0  0  0  0  0
    8.4829    3.9353   -2.8887 C   0  0  0  0  0  0  0  0  0  0  0  0
    7.9734    3.5726   -4.2750 C   0  0  0  0  0  0  0  0  0  0  0  0
    7.6569    5.4541    0.0354 C   0  0  0  0  0  0  0  0  0  0  0  0
    7.8774    4.2532    0.9426 C   0  0  0  0  0  0  0  0  0  0  0  0
    5.3632    3.9895   -1.8670 C   0  0  0  0  0  0  0  0  0  0  0  0
    4.7895    2.8148   -1.3915 C   0  0  0  0  0  0  0  0  0  0  0  0
    6.5173    7.6006   -3.3643 C   0  0  0  0  0  0  0  0  0  0  0  0
    5.4384    8.2164   -4.0166 C   0  0  0  0  0  0  0  0  0  0  0  0
    4.0235    7.1821   -3.9895 S   0  0  0  0  0  0  0  0  0  0  0  0
    5.5385    9.4972   -4.5698 C   0  0  0  0  0  0  0  0  0  0  0  0
    4.5952   10.2801   -5.1915 C   0  0  0  0  0  0  0  0  0  0  0  0
    3.1955    9.9120   -5.4268 C   0  0  0  0  0  0  0  0  0  0  0  0
    2.6454    8.8581   -5.1597 O   0  0  0  0  0  0  0  0  0  0  0  0
    2.5668   11.0852   -6.0632 C   0  0  0  0  0  0  0  0  0  0  0  0
    1.2559   11.2480   -6.4644 C   0  0  0  0  0  0  0  0  0  0  0  0
    0.8638   12.4500   -7.0435 C   0  0  0  0  0  0  0  0  0  0  0  0
   -0.5366   12.7000   -7.4991 C   0  0  0  0  0  0  0  0  0  0  0  0
    1.8360   13.4406   -7.1902 C   0  0  0  0  0  0  0  0  0  0  0  0
    1.4661   14.6087   -7.7493 F   0  0  0  0  0  0  0  0  0  0  0  0
    3.1575   13.3014   -6.7968 C   0  0  0  0  0  0  0  0  0  0  0  0
    3.5283   12.0971   -6.2207 C   0  0  0  0  0  0  0  0  0  0  0  0
    4.8081   11.6207   -5.6965 C   0  0  0  0  0  0  0  0  0  0  0  0
    5.9764   12.3397   -5.7024 C   0  0  0  0  0  0  0  0  0  0  0  0
    6.0953   13.6479   -6.2165 C   0  0  0  0  0  0  0  0  0  0  0  0
    6.2643   14.7104   -6.6174 N   0  0  0  0  0  0  0  0  0  0  0  0
    7.2225   11.8984   -5.2123 C   0  0  0  0  0  0  0  0  0  0  0  0
    8.2724   11.6223   -4.8353 N   0  0  0  0  0  0  0  0  0  0  0  0
   -6.7521   -9.5917    6.5448 H   0  0  0  0  0  0  0  0  0  0  0  0
   -4.5550  -11.3637   11.0787 H   0  0  0  0  0  0  0  0  0  0  0  0
   -1.5178  -10.9305   12.8533 H   0  0  0  0  0  0  0  0  0  0  0  0
   -3.0960  -11.7319   12.9643 H   0  0  0  0  0  0  0  0  0  0  0  0
   -2.7768  -10.2365   13.8595 H   0  0  0  0  0  0  0  0  0  0  0  0
   -2.4211   -6.9315   10.3282 H   0  0  0  0  0  0  0  0  0  0  0  0
   -8.8565   -5.0206    2.5938 H   0  0  0  0  0  0  0  0  0  0  0  0
   -8.0546   -3.9233    1.4789 H   0  0  0  0  0  0  0  0  0  0  0  0
   -8.1134   -2.9581    3.7765 H   0  0  0  0  0  0  0  0  0  0  0  0
   -6.4485   -3.2552    3.2768 H   0  0  0  0  0  0  0  0  0  0  0  0
   -7.2398   -4.3561    4.4038 H   0  0  0  0  0  0  0  0  0  0  0  0
   -6.3603   -7.9678    0.2178 H   0  0  0  0  0  0  0  0  0  0  0  0
   -8.0640   -7.6577    0.5199 H   0  0  0  0  0  0  0  0  0  0  0  0
   -7.9573   -5.6250   -0.9386 H   0  0  0  0  0  0  0  0  0  0  0  0
   -6.2457   -5.9297   -1.2329 H   0  0  0  0  0  0  0  0  0  0  0  0
   -7.4593   -7.0650   -1.8267 H   0  0  0  0  0  0  0  0  0  0  0  0
   -7.5817   -8.1844    4.4288 H   0  0  0  0  0  0  0  0  0  0  0  0
   -4.4048   -3.9274    0.1109 H   0  0  0  0  0  0  0  0  0  0  0  0
   -2.7287   -2.4690   -0.7562 H   0  0  0  0  0  0  0  0  0  0  0  0
   -0.2310   -0.4649   -3.9428 H   0  0  0  0  0  0  0  0  0  0  0  0
   -1.9004    0.0072   -5.6335 H   0  0  0  0  0  0  0  0  0  0  0  0
   -5.2241    0.9714   -6.8764 H   0  0  0  0  0  0  0  0  0  0  0  0
   -3.4546    1.0355   -6.7361 H   0  0  0  0  0  0  0  0  0  0  0  0
   -3.4147   -1.4990   -6.6873 H   0  0  0  0  0  0  0  0  0  0  0  0
   -4.1886   -0.8908   -8.1572 H   0  0  0  0  0  0  0  0  0  0  0  0
   -5.1732   -1.5056   -6.8221 H   0  0  0  0  0  0  0  0  0  0  0  0
   -3.1874   -0.1565   -0.8771 H   0  0  0  0  0  0  0  0  0  0  0  0
    1.2269   -1.4323    3.3865 H   0  0  0  0  0  0  0  0  0  0  0  0
    2.9526   -1.9794    5.0032 H   0  0  0  0  0  0  0  0  0  0  0  0
    4.6057   -3.3818    5.9153 H   0  0  0  0  0  0  0  0  0  0  0  0
    4.9751   -1.6534    6.1804 H   0  0  0  0  0  0  0  0  0  0  0  0
    7.4114   -2.1879    6.1823 H   0  0  0  0  0  0  0  0  0  0  0  0
    6.5649   -3.1100    7.4370 H   0  0  0  0  0  0  0  0  0  0  0  0
    7.0455   -3.8930    5.9216 H   0  0  0  0  0  0  0  0  0  0  0  0
    4.0717   -1.6823    0.2103 H   0  0  0  0  0  0  0  0  0  0  0  0
    3.5874    0.6951    0.2565 H   0  0  0  0  0  0  0  0  0  0  0  0
    8.7631    3.0347   -2.3431 H   0  0  0  0  0  0  0  0  0  0  0  0
    9.3717    4.5613   -2.9637 H   0  0  0  0  0  0  0  0  0  0  0  0
    8.7384    3.0390   -4.8358 H   0  0  0  0  0  0  0  0  0  0  0  0
    7.7022    4.4684   -4.8306 H   0  0  0  0  0  0  0  0  0  0  0  0
    7.0927    2.9368   -4.2051 H   0  0  0  0  0  0  0  0  0  0  0  0
    6.8787    6.0974    0.4454 H   0  0  0  0  0  0  0  0  0  0  0  0
    8.5683    6.0469   -0.0346 H   0  0  0  0  0  0  0  0  0  0  0  0
    8.6623    3.6102    0.5502 H   0  0  0  0  0  0  0  0  0  0  0  0
    6.9656    3.6659    1.0276 H   0  0  0  0  0  0  0  0  0  0  0  0
    8.1696    4.5777    1.9395 H   0  0  0  0  0  0  0  0  0  0  0  0
    5.3161    2.0824   -0.8055 H   0  0  0  0  0  0  0  0  0  0  0  0
    7.4760    8.0838   -3.2807 H   0  0  0  0  0  0  0  0  0  0  0  0
    6.5274    9.9258   -4.4598 H   0  0  0  0  0  0  0  0  0  0  0  0
    0.5480   10.4452   -6.3246 H   0  0  0  0  0  0  0  0  0  0  0  0
   -1.1657   11.8360   -7.3068 H   0  0  0  0  0  0  0  0  0  0  0  0
   -0.5507   12.9224   -8.5656 H   0  0  0  0  0  0  0  0  0  0  0  0
   -0.9504   13.5658   -6.9830 H   0  0  0  0  0  0  0  0  0  0  0  0
    3.8405   14.1207   -6.9475 H   0  0  0  0  0  0  0  0  0  0  0  0
  1  2  2  0  0  0  0
  2  3  1  0  0  0  0
  3  4  2  0  0  0  0
  3  5  1  0  0  0  0
  5  6  2  0  0  0  0
  6  7  1  0  0  0  0
  7  8  1  0  0  0  0
  7  9  2  0  0  0  0
  9 10  1  0  0  0  0
  9 11  1  0  0  0  0
 11 12  2  0  0  0  0
 12 13  1  0  0  0  0
 13 14  2  0  0  0  0
 14 15  1  0  0  0  0
 15 16  3  0  0  0  0
 14 17  1  0  0  0  0
 17 18  3  0  0  0  0
  1 19  1  0  0  0  0
 19 20  1  0  0  0  0
 20 21  1  0  0  0  0
 21 22  1  0  0  0  0
 22 23  2  0  0  0  0
 23 24  1  0  0  0  0
 24 25  1  0  0  0  0
 25 26  1  0  0  0  0
 24 27  1  0  0  0  0
 27 28  1  0  0  0  0
 24 29  1  0  0  0  0
 29 30  1  0  0  0  0
 23 31  1  0  0  0  0
 31 32  2  0  0  0  0
 32 33  1  0  0  0  0
 32 34  1  0  0  0  0
 34 35  2  0  0  0  0
 35 36  1  0  0  0  0
 36 37  2  0  0  0  0
 37 38  1  0  0  0  0
 38 39  2  0  0  0  0
 39 40  1  0  0  0  0
 40 41  2  0  0  0  0
 41 42  1  0  0  0  0
 42 43  1  0  0  0  0
 43 44  1  0  0  0  0
 41 45  1  0  0  0  0
 45 46  1  0  0  0  0
 46 47  1  0  0  0  0
 46 48  1  0  0  0  0
 46 49  1  0  0  0  0
 45 50  2  0  0  0  0
 37 51  1  0  0  0  0
 51 52  2  0  0  0  0
 52 53  1  0  0  0  0
 53 54  1  0  0  0  0
 54 55  2  0  0  0  0
 55 56  1  0  0  0  0
 56 57  2  0  0  0  0
 57 58  1  0  0  0  0
 58 59  1  0  0  0  0
 59 60  1  0  0  0  0
 57 61  1  0  0  0  0
 61 62  2  0  0  0  0
 61 63  1  0  0  0  0
 63 64  1  0  0  0  0
 63 65  1  0  0  0  0
 63 66  1  0  0  0  0
 53 67  2  0  0  0  0
 67 68  1  0  0  0  0
 52 69  1  0  0  0  0
 69 70  2  0  0  0  0
 70 71  1  0  0  0  0
 70 72  1  0  0  0  0
 72 73  1  0  0  0  0
 73 74  1  0  0  0  0
 74 75  1  0  0  0  0
 75 76  2  0  0  0  0
 76 77  1  0  0  0  0
 77 78  1  0  0  0  0
 78 79  1  0  0  0  0
 77 80  1  0  0  0  0
 80 81  1  0  0  0  0
 77 82  1  0  0  0  0
 82 83  1  0  0  0  0
 76 84  1  0  0  0  0
 84 85  2  0  0  0  0
 85 86  1  0  0  0  0
 85 87  1  0  0  0  0
 87 88  2  0  0  0  0
 88 89  1  0  0  0  0
 89 90  2  0  0  0  0
 89 91  1  0  0  0  0
 91 92  2  0  0  0  0
 92 93  1  0  0  0  0
 93 94  1  0  0  0  0
 93 95  2  0  0  0  0
 95 96  1  0  0  0  0
 95 97  1  0  0  0  0
 97 98  2  0  0  0  0
 98 99  1  0  0  0  0
 99100  2  0  0  0  0
100101  1  0  0  0  0
101102  3  0  0  0  0
100103  1  0  0  0  0
103104  3  0  0  0  0
 13  2  1  0  0  0  0
 30 19  2  0  0  0  0
 68 34  1  0  0  0  0
 83 72  2  0  0  0  0
 99 88  1  0  0  0  0
 12  5  1  0  0  0  0
 29 21  2  0  0  0  0
 67 36  1  0  0  0  0
 82 74  2  0  0  0  0
 98 91  1  0  0  0  0
 33 22  1  0  0  0  0
 50 38  1  0  0  0  0
 71 51  1  0  0  0  0
 86 75  1  0  0  0  0
 62 54  1  0  0  0  0
  1105  1  0  0  0  0
  6106  1  0  0  0  0
  8107  1  0  0  0  0
  8108  1  0  0  0  0
  8109  1  0  0  0  0
 11110  1  0  0  0  0
 25111  1  0  0  0  0
 25112  1  0  0  0  0
 26113  1  0  0  0  0
 26114  1  0  0  0  0
 26115  1  0  0  0  0
 27116  1  0  0  0  0
 27117  1  0  0  0  0
 28118  1  0  0  0  0
 28119  1  0  0  0  0
 28120  1  0  0  0  0
 30121  1  0  0  0  0
 31122  1  0  0  0  0
 35123  1  0  0  0  0
 39124  1  0  0  0  0
 40125  1  0  0  0  0
 43126  1  0  0  0  0
 43127  1  0  0  0  0
 44128  1  0  0  0  0
 44129  1  0  0  0  0
 44130  1  0  0  0  0
 50131  1  0  0  0  0
 55132  1  0  0  0  0
 56133  1  0  0  0  0
 59134  1  0  0  0  0
 59135  1  0  0  0  0
 60136  1  0  0  0  0
 60137  1  0  0  0  0
 60138  1  0  0  0  0
 62139  1  0  0  0  0
 69140  1  0  0  0  0
 78141  1  0  0  0  0
 78142  1  0  0  0  0
 79143  1  0  0  0  0
 79144  1  0  0  0  0
 79145  1  0  0  0  0
 80146  1  0  0  0  0
 80147  1  0  0  0  0
 81148  1  0  0  0  0
 81149  1  0  0  0  0
 81150  1  0  0  0  0
 83151  1  0  0  0  0
 84152  1  0  0  0  0
 87153  1  0  0  0  0
 92154  1  0  0  0  0
 94155  1  0  0  0  0
 94156  1  0  0  0  0
 94157  1  0  0  0  0
 97158  1  0  0  0  0
M  END
