147

C         -4.80570        6.27290       -7.32520
C         -4.46990        7.58350       -7.36970
C         -4.64070        8.32260       -8.65860
O         -5.27560        7.95610       -9.61870
C         -3.82850        9.54500       -8.51210
C         -3.53200       10.50580       -9.46010
C         -2.71510       11.57650       -9.11590
C         -2.35340       12.65080      -10.08730
C         -2.22700       11.62410       -7.80680
F         -1.42440       12.64930       -7.47210
C         -2.51540       10.68100       -6.83430
C         -3.33430        9.62390       -7.19740
C         -3.84880        8.49650       -6.42630
C         -3.94690        8.45210       -5.06270
C         -4.66490        7.46050       -4.36540
N         -5.27600        6.70610       -3.75360
C         -3.42540        9.44330       -4.20390
N         -3.01790       10.22140       -3.46610
C         -4.43740        5.24450       -6.38820
C         -3.25950        5.32110       -5.62370
C         -2.93020        4.26800       -4.80810
C         -1.76480        4.12060       -3.89330
O         -0.87720        4.91630       -3.69810
C         -1.94860        2.77970       -3.27950
C         -3.10830        2.17670       -3.81060
C         -3.73680        3.11340       -4.72820
C         -4.90290        3.03460       -5.46930
C         -5.23230        4.09370       -6.29800
C         -3.43860        0.88340       -3.45020
C         -2.66110        0.23930       -2.50290
C         -1.57860        0.87700       -1.88170
C         -1.18600        2.14850       -2.32650
C         -0.90740        0.25860       -0.76310
C         -1.46440       -0.50740        0.25550
N         -2.80520       -0.76580        0.46050
C         -3.14870       -1.89260        1.23380
C         -3.99230       -1.76120        2.33110
C         -4.22800       -2.83570        3.16530
C         -3.62300       -4.05970        2.90990
S         -3.76400       -5.46810        3.96270
C         -4.54490       -4.80790        5.46320
C         -2.84280       -4.21510        1.76650
C         -2.60820       -3.14310        0.93450
C         -3.81220        0.11350        0.04140
C         -5.01630       -0.40400       -0.43980
C         -5.95710        0.43250       -0.99410
C         -5.72100        1.80410       -1.08390
S         -6.92650        2.75690       -1.94470
C         -6.20160        4.41310       -2.02060
C         -4.56670        2.33250       -0.51960
C         -3.62740        1.49340        0.04480
C         -0.46080       -0.96380        1.14570
S         -0.49480       -1.93400        2.57970
C          1.25610       -1.81930        2.72050
C          1.79850       -0.90060        1.79620
N          3.04680       -0.34020        1.83880
C          3.69930       -0.07740        3.04420
C          2.98050        0.15940        4.21870
C          3.63900        0.39400        5.40270
C          5.03390        0.41250        5.45160
S          5.75610        0.70090        7.02790
C          7.54240        0.59800        6.72340
C          5.75360        0.21450        4.27830
C          5.09270       -0.02250        3.09170
C          3.63760        0.05130        0.62520
C          4.22660        1.30850        0.48760
C          4.78100        1.68050       -0.71490
C          4.76020        0.81010       -1.80610
S          5.50060        1.40270       -3.28820
C          5.15890        0.09890       -4.50390
C          4.18190       -0.44590       -1.66740
C          3.62550       -0.81920       -0.46040
C          0.81330       -0.50130        0.86130
S          0.81770        0.51370       -0.54210
C          1.87760       -2.73340        3.59630
C          1.08270       -3.46180        4.51890
C          1.59740       -4.50150        5.37320
N          0.63650       -5.04650        6.11800
S         -0.76190       -4.33000        5.78990
N         -0.22750       -3.28830        4.68480
C          2.94580       -4.92720        5.31980
C          3.75590       -4.18130        4.43050
N          5.06580       -4.34130        4.27000
S          5.58060       -3.36840        3.10490
N          4.18500       -2.64030        2.77620
C          3.23780       -3.12950        3.57600
C          3.39160       -6.00110        6.11550
C          4.41490       -6.86790        5.81240
C          4.89830       -7.15240        4.44830
O          4.51540       -6.68830        3.39410
C          5.86460       -8.26840        4.59960
C          6.60430       -8.89770        3.61930
C          7.43050       -9.94130        4.00600
F          8.17460      -10.57390        3.08630
C          7.49470      -10.33950        5.33970
F          8.29690      -11.35640        5.68430
C          6.74590       -9.71130        6.32450
C          5.92360       -8.66230        5.94590
C          5.03440       -7.79800        6.72370
C          4.89610       -7.82060        8.08930
C          4.12300       -6.90830        8.83710
N          3.54360       -6.19460        9.52590
C          5.53920       -8.74870        8.93230
N          6.03030       -9.48260        9.66650
H         -5.38430        5.93490       -8.18090
H         -3.93510       10.41830      -10.45740
H         -2.71580       13.61500       -9.73190
H         -1.27030       12.72680      -10.17760
H         -2.78050       12.44880      -11.06490
H         -2.09370       10.78720       -5.84800
H         -2.59460        6.16770       -5.70510
H         -5.54250        2.16770       -5.40880
H         -6.13720        4.04460       -6.88600
H         -4.28770        0.38150       -3.88770
H         -2.89140       -0.77990       -2.23540
H         -0.32060        2.63560       -1.90140
H         -4.44180       -0.80250        2.54360
H         -4.86890       -2.69940        4.02090
H         -3.97700       -3.95610        5.82610
H         -4.50990       -5.61370        6.18980
H         -5.57870       -4.54070        5.26370
H         -2.40770       -5.17910        1.55330
H         -1.98080       -3.25840        0.06290
H         -5.18950       -1.46950       -0.40280
H         -6.87630        0.03270       -1.39350
H         -6.13880        4.84170       -1.02490
H         -6.87240        5.00670       -2.63200
H         -5.22680        4.37140       -2.49660
H         -4.38130        3.39420       -0.52230
H         -2.72960        1.91340        0.47290
H          1.90160        0.16640        4.20140
H          3.08130        0.57230        6.30910
H          7.79720       -0.38600        6.34110
H          8.01050        0.74920        7.69110
H          7.85060        1.38320        6.03940
H          6.83120        0.23260        4.27690
H          5.66190       -0.20420        2.19340
H          4.23230        1.99080        1.32410
H          5.22950        2.65480       -0.83180
H          5.67460       -0.81610       -4.22760
H          5.55040        0.47000       -5.44600
H          4.08730       -0.05690       -4.58540
H          4.16420       -1.14510       -2.48720
H          3.18860       -1.79980       -0.34590
H          2.81640       -6.16650        7.01860
H          6.54830       -8.59020        2.58740
H          6.82530      -10.06060        7.34090
