112

C         -2.82370       -6.38390       -4.47110
C         -2.46600       -6.66010       -5.76090
C         -1.30100       -6.06570       -6.46120
O         -0.51490       -5.24030       -6.04680
C         -1.19280       -6.80560       -7.73670
C         -0.26730       -6.63770       -8.74760
C         -0.32190       -7.45810       -9.86890
C          0.64100       -7.32810      -11.00370
C         -1.32230       -8.43110       -9.90710
F         -1.37800       -9.23560      -10.98640
C         -2.25900       -8.62460       -8.90500
C         -2.19060       -7.79210       -7.79910
C         -3.00710       -7.71450       -6.59120
C         -4.13780       -8.44790       -6.34110
C         -4.97530       -8.28390       -5.21770
N         -5.72250       -8.20060       -4.34980
C         -4.63420       -9.44970       -7.20040
N         -5.08160      -10.28060       -7.85420
C         -2.45130       -5.22790       -3.73990
C         -2.27150       -3.94770       -4.30710
C         -1.84580       -2.79680       -3.53490
N         -1.76220       -1.70300       -4.29760
S         -2.19790       -2.07340       -5.79620
N         -2.52020       -3.62290       -5.57580
C         -1.59070       -2.86940       -2.14540
C         -1.85230       -4.13150       -1.57030
N         -1.72280       -4.42930       -0.27610
S         -2.11530       -5.96660       -0.04830
N         -2.45820       -6.35010       -1.56780
C         -2.29330       -5.27340       -2.33870
C         -1.11870       -1.78120       -1.36720
C         -0.85090       -0.50220       -1.80540
C         -0.38130        0.35440       -0.79550
C         -0.02740        1.71250       -0.90840
C         -0.09580        2.43990       -2.21530
C          1.15260        2.15930       -3.05470
C          0.43040        2.32080        0.24000
C          0.54320        1.65400        1.49250
C          0.15190        0.30810        1.61330
C          0.22190       -0.42210        2.91880
C          1.65660       -0.82500        3.26330
C         -0.28930       -0.30820        0.46150
S         -0.80220       -1.97560        0.34010
C          1.05610        2.50990        2.49050
C          1.30060        3.78510        2.05260
S          0.92270        3.99260        0.36060
C          1.79840        4.89040        2.81100
C          1.58160        6.21830        2.41010
C          2.00690        7.34580        3.20690
N          1.61420        8.50660        2.65860
S          0.78510        8.20290        1.33120
N          0.89100        6.60720        1.33240
C          2.66880        7.21670        4.43150
C          2.98100        5.90150        4.78700
N          3.66290        5.49780        5.87130
S          3.69270        3.90420        5.92490
N          2.86690        3.60040        4.58690
C          2.51830        4.75640        4.01150
C          2.82560        8.44960        5.29170
C          1.53130        9.21390        5.20080
C          0.46000        8.55790        5.64770
C          0.67940        7.25700        6.25810
C         -0.02720        6.13260        5.90110
C         -0.89460        6.20370        4.72510
O         -1.01940        7.19900        4.03370
N         -1.58370        5.04670        4.38570
C         -2.56940        5.15840        3.31340
C         -2.01450        4.79590        1.94490
C         -1.38880        3.83570        4.98450
S         -2.07970        2.46790        4.37410
N         -0.60940        3.78890        6.10450
C          0.12130        4.86060        6.60350
O          0.81650        4.68300        7.58790
C         -0.55160        2.55700        6.88760
C          0.61750        1.66590        6.49750
C          1.77220        7.29550        7.28160
C          2.97960        8.11310        6.78070
H         -3.40200       -7.10940       -3.91190
H          0.48750       -5.87080       -8.66170
H          0.10580       -7.11400      -11.92830
H          1.17750       -8.26500      -11.15020
H          1.35670       -6.53360      -10.81410
H         -2.99400       -9.40520       -9.01170
H         -0.99930       -0.22020       -2.83130
H         -0.16510        3.51240       -2.02150
H         -0.98390        2.12940       -2.76750
H          1.24230        1.09550       -3.26120
H          1.09880        2.69470       -3.99920
H          2.04320        2.48410       -2.52200
H         -0.19000        0.21230        3.70560
H         -0.39660       -1.31920        2.85320
H          2.30110        0.04830        3.32880
H          2.05200       -1.48670        2.49620
H          1.67980       -1.34740        4.21640
H          1.23700        2.22060        3.50820
H          3.67080        9.04700        4.94010
H          1.49350       10.19850        4.76990
H         -0.54360        8.94390        5.57340
H         -3.40480        4.50190        3.56700
H         -2.90350        6.19790        3.31350
H         -1.69990        3.75560        1.92500
H         -1.17200        5.43450        1.69260
H         -2.79110        4.93500        1.19820
H         -1.49550        2.02880        6.74410
H         -0.45090        2.85880        7.93250
H          1.55900        2.18920        6.64220
H          0.53410        1.36280        5.45810
H          0.61240        0.77570        7.11970
H          1.35850        7.75230        8.18400
H          2.08240        6.28880        7.54940
H          3.88490        7.53030        6.93580
H          3.06930        9.05090        7.33050
