121

C         -9.27950       -1.62590        4.94780
C         -9.94770       -0.66890        4.26040
C         -9.40400        0.07120        3.08110
O         -8.30480       -0.02100        2.58520
C        -10.53190        0.87000        2.56750
C        -10.53920        1.73210        1.48730
C        -11.71030        2.40240        1.15620
C        -11.79040        3.35760        0.01200
C        -12.83870        2.15450        1.94360
F        -13.97870        2.79340        1.62650
C        -12.85920        1.29310        3.02730
C        -11.67800        0.63880        3.34670
C        -11.35300       -0.30760        4.40710
C        -12.20660       -0.72830        5.38890
C        -13.55710       -0.32660        5.48800
N        -14.66150       -0.04490        5.61880
C        -11.87270       -1.60950        6.44040
N        -11.68090       -2.31470        7.32560
C         -7.85980       -1.88280        4.85060
C         -6.93620       -0.82700        4.78030
C         -5.60500       -1.12820        4.64150
C         -4.44910       -0.19970        4.50750
O         -4.45500        1.00480        4.57090
C         -3.28820       -1.09920        4.27360
C         -3.71140       -2.44170        4.32150
C         -5.15070       -2.46050        4.56080
C         -6.05090       -3.50210        4.68920
C         -7.39550       -3.20170        4.85140
C         -2.79910       -3.45720        4.10630
C         -1.48410       -3.12370        3.80780
C         -1.06960       -1.79560        3.73380
C         -1.98490       -0.76650        3.99130
C          0.28380       -1.43410        3.30080
C          1.00780       -0.43170        3.91020
F          0.56380        0.13000        5.04640
C          2.21150        0.05320        3.38270
F          2.80880        1.05510        4.04970
C          2.74920       -0.41570        2.19480
C          2.07910       -1.53010        1.60120
N          2.61560       -2.14120        0.53240
C          1.99940       -3.15210       -0.02660
C          2.72650       -3.82900       -1.14820
C          3.55970       -4.99250       -0.60330
C          0.73730       -3.58790        0.46780
N          0.21640       -3.02930        1.52980
C          0.86280       -2.02270        2.14450
C         -0.08530       -4.65280       -0.19060
C         -0.93810       -4.04070       -1.30510
C          3.87230        0.22110        1.55510
C          4.20600        0.15470        0.21960
C          5.27820        0.97520       -0.14930
C          5.80610        1.01120       -1.51340
C          7.17100        0.90030       -1.74890
C          7.66800        1.01640       -3.04520
C          6.79560        1.23940       -4.10570
C          5.42470        1.32120       -3.87260
O          4.49690        1.52820       -4.83190
C          4.91490        1.89680       -6.13740
C          3.66690        2.23130       -6.93850
C          4.93200        1.19030       -2.57600
O          9.01940        0.90430       -3.15340
C          9.66040        1.17370       -4.38470
C          9.73760        2.66630       -4.69290
C          5.78060        1.70390        0.92570
S          4.93170        1.30620        2.39560
C          6.75540        2.72900        1.01300
C          7.19030        3.60690        0.07490
S          6.64590        3.80540       -1.57350
C          7.76760        5.12450       -1.82590
C          7.85310        5.70680       -3.06820
C          8.66670        6.79050       -3.43780
N          9.30690        7.66980       -3.80750
C          7.08940        5.17520       -4.12480
N          6.50690        4.72780       -5.00760
N          8.46570        5.41860       -0.70180
C          9.50090        6.43110       -0.59880
C         10.83590        5.92360       -1.13070
C          8.20340        4.61110        0.40030
O          8.75600        4.74930        1.46680
H         -9.83090       -2.28250        5.60940
H         -9.63550        1.88080        0.91620
H        -10.83960        3.41730       -0.50930
H        -12.56420        3.04300       -0.68740
H        -12.06380        4.34960        0.37050
H        -13.77610        1.15930        3.57700
H         -7.25630        0.19980        4.85340
H         -5.72360       -4.53030        4.65870
H         -8.11280       -4.00550        4.93720
H         -3.09830       -4.49350        4.15150
H         -0.76420       -3.90480        3.62320
H         -1.69260        0.27090        3.93670
H          3.39560       -3.10190       -1.60980
H          2.02630       -4.19290       -1.89950
H          4.28390       -4.62370        0.11870
H          2.92800       -5.72920       -0.11140
H          4.09440       -5.48010       -1.41440
H         -0.74480       -5.08470        0.56290
H          0.55180       -5.43780       -0.59750
H         -0.31360       -3.57010       -2.06160
H         -1.53850       -4.81150       -1.78150
H         -1.60330       -3.28690       -0.89130
H          3.68580       -0.47900       -0.47270
H          7.86410        0.73870       -0.93880
H          7.17130        1.35450       -5.10750
H          5.57370        2.77140       -6.08070
H          5.45420        1.06310       -6.60920
H          3.94380        2.51460       -7.94960
H          3.14010        3.05720       -6.46930
H          3.00330        1.37120       -6.97600
H          3.87110        1.28630       -2.41290
H          9.17590        0.62990       -5.20440
H         10.66830        0.76950       -4.25480
H         10.30080        2.82360       -5.60860
H         10.24090        3.18370       -3.87910
H          8.74520        3.09370       -4.81470
H          7.17650        2.89650        2.00000
H          9.18260        7.32750       -1.13330
H          9.59000        6.65570        0.46770
H         10.77200        5.69000       -2.19090
H         11.59070        6.69250       -0.99680
H         11.14190        5.03330       -0.58590
