258

C          2.12500        8.30030        4.23820
C          3.25060        9.09770        4.22900
C          4.60810        8.67430        3.89110
O          4.99330        7.55820        3.57750
C          5.46400        9.86220        4.06730
C          6.81650        9.99400        3.82610
C          7.43560       11.21720        4.06120
C          8.89530       11.42960        3.82480
C          6.63950       12.25940        4.53670
F          7.22910       13.44780        4.77130
C          5.27760       12.15500        4.77620
C          4.67920       10.92990        4.53400
C          3.29000       10.48140        4.63920
C          2.23540       11.26840        5.03570
C          0.87930       10.88940        5.03740
N         -0.25030       10.67290        5.04000
C          2.37280       12.59900        5.48060
N          2.41940       13.67940        5.86690
C          1.94340        6.99890        3.78050
C          0.69710        6.32440        3.82720
N         -0.39780        6.72320        4.54480
C         -0.29610        7.33340        5.80720
C         -1.26630        8.24650        6.22070
C         -1.17860        8.83140        7.46410
C         -0.11970        8.52900        8.31770
S         -0.10860        9.34630        9.87990
C          1.50640        8.91330       10.58890
C          0.84190        7.61120        7.91190
C          0.75050        7.01680        6.67010
C         -1.67180        6.38480        4.04970
C         -2.64060        5.82230        4.87940
C         -3.87000        5.47560        4.36710
C         -4.16090        5.68270        3.01860
S         -5.75620        5.18740        2.46460
C         -5.88040        5.92200        0.81170
C         -3.20010        6.25240        2.19270
C         -1.96880        6.60290        2.70760
C          0.73470        5.15430        3.04800
S         -0.44230        3.96350        2.62100
C          0.78530        3.03320        1.76210
C          2.02510        3.65270        1.76280
N          3.16710        3.21380        1.12690
C          4.41310        3.78920        1.47350
C          5.21440        4.35710        0.48420
C          6.39810        4.97390        0.82220
C          6.80690        5.03250        2.15240
S          8.30090        5.89740        2.50890
C          8.07670        6.34530        4.25630
C          6.04210        4.41690        3.13130
C          4.85060        3.80500        2.79250
C          3.16250        2.36440        0.01340
C          4.21560        1.46570       -0.14210
C          4.27700        0.62540       -1.23490
C          3.26520        0.65190       -2.18520
S          3.20760       -0.43430       -3.57810
C          4.83920       -1.22860       -3.58430
C          2.22000        1.56290       -2.04890
C          2.17810        2.42340       -0.97240
C          1.97990        4.86600        2.50640
S          3.15840        6.06380        2.91070
C          0.33620        1.80660        1.15480
C          0.70550        0.50580        1.44340
N          1.65010        0.15690        2.39900
C          1.68220        0.90230        3.58690
C          0.48730        1.29820        4.18290
C          0.48180        2.10780        5.30060
C          1.68180        2.52080        5.86010
S          1.80060        3.60800        7.24700
C          0.07560        3.86670        7.74490
C          2.88120        2.07860        5.30540
C          2.88530        1.28430        4.17860
C          2.54050       -0.89230        2.15360
C          3.13580       -1.59350        3.20040
C          4.02570       -2.62110        2.95370
C          4.31660       -2.99440        1.64900
S          5.42760       -4.29160        1.19920
C          6.02620       -4.93590        2.78170
C          3.70430       -2.31520        0.60030
C          2.84070       -1.27250        0.84480
C         -0.03150       -0.41370        0.65600
S         -0.06040       -2.12990        0.46910
C         -1.23700       -2.02640       -0.85160
C         -1.57800       -0.70700       -1.11090
N         -2.40510       -0.17590       -2.11520
C         -1.91150       -0.07900       -3.41840
C         -2.73000        0.32440       -4.47700
C         -2.25590        0.34070       -5.76840
C         -0.94280       -0.02360       -6.05030
S         -0.46560       -0.01020       -7.74960
C          1.28650       -0.47290       -7.71430
C         -0.10790       -0.37920       -5.00370
C         -0.58850       -0.40630       -3.70790
C         -3.46010        0.61380       -1.62960
C         -4.18180        0.15140       -0.53040
C         -5.27950        0.83860       -0.05420
C         -5.68060        2.01380       -0.67190
S         -7.13770        2.91290       -0.24030
C         -7.76560        2.05880        1.22810
C         -4.91200        2.52840       -1.71360
C         -3.80570        1.85050       -2.17570
C         -0.92630        0.17690       -0.21630
S         -0.96320        1.89040       -0.03280
C         -1.54720       -3.28770       -1.44340
C         -2.20640       -3.68200       -2.59820
N         -2.98130       -2.91410       -3.47930
C         -4.22260       -2.44950       -3.03940
C         -4.72430       -2.83960       -1.79420
C         -5.91330       -2.33400       -1.31870
C         -6.64640       -1.41980       -2.06790
S         -8.12610       -0.79150       -1.33660
C         -8.66400        0.50330       -2.48720
C         -6.18370       -1.06180       -3.32410
C         -4.99540       -1.57710       -3.80410
C         -2.62560       -3.09090       -4.82890
C         -1.26490       -3.19350       -5.13090
C         -0.84220       -3.41870       -6.42040
C         -1.76710       -3.52050       -7.44970
S         -1.16060       -3.78090       -9.09230
C         -2.30070       -2.75180      -10.06530
C         -3.12020       -3.45280       -7.15820
C         -3.54650       -3.25630       -5.85970
C         -2.01080       -5.06110       -2.85930
S         -2.38520       -6.02550       -4.22910
C         -1.56310       -7.41030       -3.49910
C         -1.11030       -7.11750       -2.18540
N         -0.52130       -7.99730       -1.31540
C          0.24250       -7.47410       -0.24820
C          1.33240       -6.64420       -0.49750
C          2.02740       -6.07800        0.55550
C          1.62990       -6.34130        1.85520
S          2.41960       -5.51860        3.22500
C          1.08680       -4.33960        3.59310
C          0.58320       -7.21410        2.11220
C         -0.11020       -7.78000        1.06450
C         -0.91580       -9.34420       -1.19050
C         -2.23740       -9.74270       -1.36780
C         -2.59990      -11.05820       -1.16800
C         -1.64620      -11.99780       -0.79080
S         -2.02130      -13.69110       -0.50130
C         -3.51290      -13.94480       -1.50570
C         -0.32560      -11.59670       -0.60220
C          0.03780      -10.28410       -0.80030
C         -1.30020       -5.75370       -1.89160
S         -0.84320       -4.67970       -0.60690
C         -1.26660       -8.57540       -4.21600
C         -1.27280       -8.76800       -5.58030
C         -1.57420       -7.76950       -6.61830
O         -2.28450       -6.78530       -6.53310
C         -0.87700       -8.23160       -7.83260
C         -0.70800       -7.57100       -9.03140
C          0.00860       -8.18960      -10.05170
C          0.23490       -7.51930      -11.36710
C          0.50680       -9.46990       -9.80720
F          1.20220      -10.07810      -10.78820
C          0.34390      -10.15650       -8.61280
C         -0.35630       -9.51660       -7.60460
C         -0.71190       -9.92310       -6.24720
C         -0.63510      -11.19990       -5.75110
C         -0.03050      -12.27400       -6.43380
N          0.46850      -13.17750       -6.93660
C         -1.28360      -11.61890       -4.57680
N         -1.87850      -12.04850       -3.69250
H          1.22630        8.75930        4.62920
H          7.38130        9.15730        3.44470
H          9.05380       12.31020        3.20410
H          9.40630       11.60450        4.77160
H          9.33720       10.56440        3.33910
H          4.73860       13.01630        5.13450
H         -2.07680        8.50540        5.55860
H         -1.92120        9.54640        7.78010
H          2.29840        9.20230        9.90430
H          1.54760        7.85200       10.81650
H          1.58430        9.48790       11.50660
H          1.66360        7.33890        8.55440
H          1.50130        6.30090        6.37100
H         -2.42440        5.66250        5.92560
H         -4.62200        5.03580        5.00390
H         -5.67610        6.98680        0.87070
H         -5.20210        5.41890        0.12890
H         -6.90360        5.75380        0.49170
H         -3.39550        6.42670        1.14750
H         -1.22660        7.05470        2.06600
H          4.88840        4.33320       -0.54530
H          7.00700        5.43970        0.06270
H          8.26590        5.48770        4.89570
H          8.80690        7.12090        4.46720
H          7.06630        6.72320        4.38450
H          6.35220        4.41780        4.16310
H          4.24240        3.35180        3.55830
H          4.99500        1.42580        0.60370
H          5.10520       -0.05890       -1.31590
H          4.87340       -1.82100       -4.49360
H          4.94830       -1.87780       -2.72020
H          5.61550       -0.46960       -3.60790
H          1.44920        1.60020       -2.80440
H          1.39620        3.16380       -0.90960
H         -0.45260        0.98350        3.75380
H         -0.46600        2.41020        5.71500
H         -0.37110        2.91980        8.03410
H          0.11240        4.53610        8.59870
H         -0.47800        4.33700        6.93730
H          3.81060        2.38110        5.76480
H          3.81930        0.96650        3.73980
H          2.89900       -1.33480        4.22190
H          4.46810       -3.13700        3.79000
H          6.71220       -5.73840        2.52900
H          5.19010       -5.32760        3.35360
H          6.55340       -4.15470        3.32180
H          3.91900       -2.61250       -0.41490
H          2.40550       -0.73900        0.01630
H         -3.74800        0.61800       -4.28680
H         -2.90470        0.63810       -6.57870
H          1.39370       -1.47590       -7.31330
H          1.84780        0.24860       -7.12780
H          1.61670       -0.45130       -8.74820
H          0.92370       -0.64040       -5.17040
H          0.08770       -0.69290       -2.91610
H         -3.88970       -0.77250       -0.05490
H         -5.82470        0.43360        0.78210
H         -8.64690        2.61420        1.53370
H         -7.01820        2.09500        2.01500
H         -8.03840        1.03860        0.97290
H         -5.19430        3.47130       -2.15860
H         -3.20040        2.28910       -2.95330
H         -4.18060       -3.54900       -1.18900
H         -6.28570       -2.64300       -0.35370
H         -8.96830        0.06050       -3.43130
H         -7.86490        1.22600       -2.62370
H         -9.51560        0.98250       -2.01440
H         -6.73770       -0.37850       -3.94790
H         -4.66170       -1.28520       -4.78480
H         -0.53600       -3.10650       -4.33970
H          0.21000       -3.52040       -6.63990
H         -3.25990       -3.24820      -10.17880
H         -2.40860       -1.79180       -9.57000
H         -1.83730       -2.62060      -11.03790
H         -3.85500       -3.58650       -7.93650
H         -4.60350       -3.28050       -5.64720
H          1.61940       -6.43290       -1.51690
H          2.86560       -5.42390        0.37260
H          0.17390       -4.88320        3.81690
H          1.40550       -3.76450        4.45550
H          0.94680       -3.68670        2.73580
H          0.30440       -7.43480        3.13160
H         -0.93980       -8.44460        1.25370
H         -2.98310       -9.01540       -1.65360
H         -3.63050      -11.34230       -1.30100
H         -3.35820      -13.47200       -2.47000
H         -3.61420      -15.01910       -1.62310
H         -4.38660      -13.54730       -0.99690
H          0.41030      -12.32890       -0.30850
H          1.06270       -9.97390       -0.65860
H         -0.85320       -9.38550       -3.62340
H         -1.11090       -6.57850       -9.16460
H          0.06110       -6.45030      -11.28150
H          1.24950       -7.69740      -11.71800
H         -0.44670       -7.92620      -12.11450
H          0.76870      -11.14090       -8.50350
