
  xtb     02102220393D
 energy: -325.746762406757 gnorm: 0.000398416748 xtb: 6.4.1 (unknown)
175193  0     0  0            999 V2000
    8.9417    3.8409   -0.5053 C   0  0  0  0  0  0  0  0  0  0  0  0
    9.0017    4.7909   -1.4891 C   0  0  0  0  0  0  0  0  0  0  0  0
   10.3054    5.2905   -1.9864 C   0  0  0  0  0  0  0  0  0  0  0  0
   11.4037    4.8328   -1.7628 O   0  0  0  0  0  0  0  0  0  0  0  0
    9.9763    6.4982   -2.7812 C   0  0  0  0  0  0  0  0  0  0  0  0
   10.8291    7.3993   -3.3855 C   0  0  0  0  0  0  0  0  0  0  0  0
   10.3003    8.4882   -4.0726 C   0  0  0  0  0  0  0  0  0  0  0  0
   11.1640    9.5012   -4.7512 C   0  0  0  0  0  0  0  0  0  0  0  0
    8.9115    8.6138   -4.1136 C   0  0  0  0  0  0  0  0  0  0  0  0
    8.3915    9.6735   -4.7654 F   0  0  0  0  0  0  0  0  0  0  0  0
    8.0319    7.7179   -3.5270 C   0  0  0  0  0  0  0  0  0  0  0  0
    8.5795    6.6419   -2.8498 C   0  0  0  0  0  0  0  0  0  0  0  0
    7.9579    5.5145   -2.1615 C   0  0  0  0  0  0  0  0  0  0  0  0
    6.6564    5.1030   -2.3334 C   0  0  0  0  0  0  0  0  0  0  0  0
    5.6704    5.8520   -3.0012 C   0  0  0  0  0  0  0  0  0  0  0  0
    4.8082    6.4277   -3.4965 N   0  0  0  0  0  0  0  0  0  0  0  0
    6.1648    3.8524   -1.9231 C   0  0  0  0  0  0  0  0  0  0  0  0
    5.7055    2.8298   -1.6636 N   0  0  0  0  0  0  0  0  0  0  0  0
    7.8558    3.5392    0.3476 C   0  0  0  0  0  0  0  0  0  0  0  0
    6.8253    4.4438    0.7035 C   0  0  0  0  0  0  0  0  0  0  0  0
    5.6646    4.0610    1.4851 C   0  0  0  0  0  0  0  0  0  0  0  0
    4.8109    5.0714    1.6235 N   0  0  0  0  0  0  0  0  0  0  0  0
    5.4052    6.3786    0.8989 S   0  0  0  0  0  4  0  0  0  0  0  0
    6.7706    5.7254    0.3469 N   0  0  0  0  0  0  0  0  0  0  0  0
    5.4549    2.7278    1.9146 C   0  0  0  0  0  0  0  0  0  0  0  0
    6.5242    1.8518    1.6132 C   0  0  0  0  0  0  0  0  0  0  0  0
    6.5299    0.5477    1.9022 N   0  0  0  0  0  0  0  0  0  0  0  0
    7.8702   -0.1167    1.3192 S   0  0  0  0  0  0  0  0  0  0  0  0
    8.5168    1.2049    0.6761 N   0  0  0  0  0  0  0  0  0  0  0  0
    7.7029    2.2433    0.8874 C   0  0  0  0  0  0  0  0  0  0  0  0
    4.2234    2.1908    2.3450 C   0  0  0  0  0  0  0  0  0  0  0  0
    3.0265    2.8204    2.7466 C   0  0  0  0  0  0  0  0  0  0  0  0
    2.9305    4.0533    3.3296 N   0  0  0  0  0  0  0  0  0  0  0  0
    1.7469    4.7909    3.1516 C   0  0  0  0  0  0  0  0  0  0  0  0
    1.1831    4.9055    1.8850 C   0  0  0  0  0  0  0  0  0  0  0  0
    0.0097    5.6090    1.6988 C   0  0  0  0  0  0  0  0  0  0  0  0
   -0.6184    6.2093    2.7829 C   0  0  0  0  0  0  0  0  0  0  0  0
   -2.1177    7.1256    2.6755 S   0  0  0  0  0  0  0  0  0  0  0  0
   -2.6467    6.9031    0.9536 C   0  0  0  0  0  0  0  0  0  0  0  0
   -0.0460    6.1071    4.0517 C   0  0  0  0  0  0  0  0  0  0  0  0
    1.1232    5.4062    4.2368 C   0  0  0  0  0  0  0  0  0  0  0  0
    3.9607    4.5822    4.1112 C   0  0  0  0  0  0  0  0  0  0  0  0
    4.1432    5.9625    4.1880 C   0  0  0  0  0  0  0  0  0  0  0  0
    5.1631    6.5023    4.9440 C   0  0  0  0  0  0  0  0  0  0  0  0
    6.0247    5.6700    5.6482 C   0  0  0  0  0  0  0  0  0  0  0  0
    7.3696    6.2335    6.6338 S   0  0  0  0  0  0  0  0  0  0  0  0
    7.3255    8.0390    6.4520 C   0  0  0  0  0  0  0  0  0  0  0  0
    5.8302    4.2891    5.5951 C   0  0  0  0  0  0  0  0  0  0  0  0
    4.8123    3.7515    4.8427 C   0  0  0  0  0  0  0  0  0  0  0  0
    1.9235    1.9552    2.5406 C   0  0  0  0  0  0  0  0  0  0  0  0
    0.1967    2.0971    2.6796 S   0  0  0  0  0  0  0  0  0  0  0  0
   -0.0077    0.4836    2.0185 C   0  0  0  0  0  0  0  0  0  0  0  0
    1.2012   -0.1597    1.7982 C   0  0  0  0  0  0  0  0  0  0  0  0
    1.3695   -1.4522    1.3330 N   0  0  0  0  0  0  0  0  0  0  0  0
    2.5360   -1.6829    0.5812 C   0  0  0  0  0  0  0  0  0  0  0  0
    2.8715   -0.7949   -0.4394 C   0  0  0  0  0  0  0  0  0  0  0  0
    4.1230   -0.8237   -1.0211 C   0  0  0  0  0  0  0  0  0  0  0  0
    5.0559   -1.7540   -0.5842 C   0  0  0  0  0  0  0  0  0  0  0  0
    6.7464   -1.7552   -1.0953 S   0  0  0  0  0  0  0  0  0  0  0  0
    6.9159   -0.2394   -2.0765 C   0  0  0  0  0  0  0  0  0  0  0  0
    4.6797   -2.7266    0.3420 C   0  0  0  0  0  0  0  0  0  0  0  0
    3.4289   -2.6986    0.9184 C   0  0  0  0  0  0  0  0  0  0  0  0
    0.4708   -2.4662    1.6811 C   0  0  0  0  0  0  0  0  0  0  0  0
   -0.1265   -2.4742    2.9434 C   0  0  0  0  0  0  0  0  0  0  0  0
   -1.1369   -3.3618    3.2280 C   0  0  0  0  0  0  0  0  0  0  0  0
   -1.5642   -4.2770    2.2670 C   0  0  0  0  0  0  0  0  0  0  0  0
   -2.9505   -5.2721    2.7141 S   0  0  0  0  0  0  0  0  0  0  0  0
   -3.3122   -6.2336    1.2215 C   0  0  0  0  0  0  0  0  0  0  0  0
   -0.9053   -4.3398    1.0472 C   0  0  0  0  0  0  0  0  0  0  0  0
    0.1017   -3.4379    0.7564 C   0  0  0  0  0  0  0  0  0  0  0  0
    2.2863    0.6919    2.1002 C   0  0  0  0  0  0  0  0  0  0  0  0
    3.9969    0.4765    2.0281 S   0  0  0  0  0  0  0  0  0  0  0  0
   -1.2757   -0.0989    1.6938 C   0  0  0  0  0  0  0  0  0  0  0  0
   -1.5342   -0.7568    0.5280 C   0  0  0  0  0  0  0  0  0  0  0  0
   -2.7649   -1.4500    0.5223 C   0  0  0  0  0  0  0  0  0  0  0  0
   -3.2724   -2.2749   -0.4982 C   0  0  0  0  0  0  0  0  0  0  0  0
   -2.6166   -2.3562   -1.7917 C   0  0  0  0  0  0  0  0  0  0  0  0
   -2.1743   -0.8921   -2.6299 S   0  0  0  0  0  0  0  0  0  0  0  0
   -1.5664   -1.7535   -4.0002 C   0  0  0  0  0  0  0  0  0  0  0  0
   -1.0454   -1.0424   -5.2000 C   0  0  0  0  0  0  0  0  0  0  0  0
   -2.1585   -0.8226   -6.2275 C   0  0  0  0  0  0  0  0  0  0  0  0
   -1.7090   -3.0948   -3.8104 C   0  0  0  0  0  0  0  0  0  0  0  0
   -1.2130   -4.2772   -4.9524 Cl  0  0  0  0  0  0  0  0  0  0  0  0
   -2.3007   -3.4397   -2.5652 C   0  0  0  0  0  0  0  0  0  0  0  0
   -2.5050   -5.0751   -2.1117 Cl  0  0  0  0  0  0  0  0  0  0  0  0
   -4.4543   -2.9518   -0.2241 C   0  0  0  0  0  0  0  0  0  0  0  0
   -5.1206   -2.8507    1.0292 C   0  0  0  0  0  0  0  0  0  0  0  0
   -4.6063   -2.0243    2.0617 C   0  0  0  0  0  0  0  0  0  0  0  0
   -5.2194   -1.9398    3.3644 C   0  0  0  0  0  0  0  0  0  0  0  0
   -5.2914   -0.8523    4.1965 C   0  0  0  0  0  0  0  0  0  0  0  0
   -5.9158   -1.1309    5.4237 C   0  0  0  0  0  0  0  0  0  0  0  0
   -6.3045   -2.4321    5.5530 C   0  0  0  0  0  0  0  0  0  0  0  0
   -7.0232   -3.0762    6.6867 C   0  0  0  0  0  0  0  0  0  0  0  0
   -8.4962   -3.3112    6.3425 C   0  0  0  0  0  0  0  0  0  0  0  0
   -5.9189   -3.3385    4.1336 S   0  0  0  0  0  0  0  0  0  0  0  0
   -3.4498   -1.3180    1.7556 C   0  0  0  0  0  0  0  0  0  0  0  0
   -2.5867   -0.2543    2.8392 S   0  0  0  0  0  0  0  0  0  0  0  0
   -6.3161   -3.5794    1.0198 C   0  0  0  0  0  0  0  0  0  0  0  0
   -6.5869   -4.2227   -0.1771 C   0  0  0  0  0  0  0  0  0  0  0  0
   -5.3231   -3.9448   -1.3566 S   0  0  0  0  0  0  0  0  0  0  0  0
   -7.7626   -4.9739   -0.3553 C   0  0  0  0  0  0  0  0  0  0  0  0
   -8.2314   -5.6499   -1.4507 C   0  0  0  0  0  0  0  0  0  0  0  0
   -7.5623   -5.7451   -2.7575 C   0  0  0  0  0  0  0  0  0  0  0  0
   -6.4831   -5.2860   -3.0789 O   0  0  0  0  0  0  0  0  0  0  0  0
   -8.4702   -6.5167   -3.6257 C   0  0  0  0  0  0  0  0  0  0  0  0
   -8.3077   -6.8574   -4.9370 C   0  0  0  0  0  0  0  0  0  0  0  0
   -9.3233   -7.5960   -5.5837 C   0  0  0  0  0  0  0  0  0  0  0  0
   -9.2117   -7.9690   -6.9371 C   0  0  0  0  0  0  0  0  0  0  0  0
  -10.2129   -8.6778   -7.5396 C   0  0  0  0  0  0  0  0  0  0  0  0
  -10.1069   -9.0302   -8.8284 F   0  0  0  0  0  0  0  0  0  0  0  0
  -11.3654   -9.0449   -6.8165 C   0  0  0  0  0  0  0  0  0  0  0  0
  -12.3312   -9.7388   -7.4336 F   0  0  0  0  0  0  0  0  0  0  0  0
  -11.5011   -8.6992   -5.5012 C   0  0  0  0  0  0  0  0  0  0  0  0
  -10.4875   -7.9671   -4.8508 C   0  0  0  0  0  0  0  0  0  0  0  0
  -10.6229   -7.6025   -3.4913 C   0  0  0  0  0  0  0  0  0  0  0  0
   -9.6266   -6.8846   -2.8836 C   0  0  0  0  0  0  0  0  0  0  0  0
   -9.4902   -6.3678   -1.5231 C   0  0  0  0  0  0  0  0  0  0  0  0
  -10.4058   -6.5496   -0.5178 C   0  0  0  0  0  0  0  0  0  0  0  0
  -11.6146   -7.2606   -0.6718 C   0  0  0  0  0  0  0  0  0  0  0  0
  -12.6139   -7.8230   -0.7281 N   0  0  0  0  0  0  0  0  0  0  0  0
  -10.2931   -6.0729    0.8049 C   0  0  0  0  0  0  0  0  0  0  0  0
  -10.2844   -5.7251    1.9000 N   0  0  0  0  0  0  0  0  0  0  0  0
    9.8452    3.2640   -0.3391 H   0  0  0  0  0  0  0  0  0  0  0  0
   11.8970    7.2546   -3.3235 H   0  0  0  0  0  0  0  0  0  0  0  0
   10.9357    9.5367   -5.8160 H   0  0  0  0  0  0  0  0  0  0  0  0
   12.2153    9.2622   -4.6206 H   0  0  0  0  0  0  0  0  0  0  0  0
   10.9699   10.4935   -4.3453 H   0  0  0  0  0  0  0  0  0  0  0  0
    6.9700    7.8858   -3.6028 H   0  0  0  0  0  0  0  0  0  0  0  0
    1.6812    4.4522    1.0412 H   0  0  0  0  0  0  0  0  0  0  0  0
   -0.3978    5.6863    0.7044 H   0  0  0  0  0  0  0  0  0  0  0  0
   -1.9390    7.3769    0.2796 H   0  0  0  0  0  0  0  0  0  0  0  0
   -2.7554    5.8447    0.7364 H   0  0  0  0  0  0  0  0  0  0  0  0
   -3.6107    7.3967    0.8790 H   0  0  0  0  0  0  0  0  0  0  0  0
   -0.5394    6.5778    4.8878 H   0  0  0  0  0  0  0  0  0  0  0  0
    1.5564    5.3191    5.2218 H   0  0  0  0  0  0  0  0  0  0  0  0
    3.4933    6.6160    3.6270 H   0  0  0  0  0  0  0  0  0  0  0  0
    5.2801    7.5736    4.9670 H   0  0  0  0  0  0  0  0  0  0  0  0
    8.1533    8.4112    7.0475 H   0  0  0  0  0  0  0  0  0  0  0  0
    7.4698    8.3111    5.4105 H   0  0  0  0  0  0  0  0  0  0  0  0
    6.3890    8.4298    6.8390 H   0  0  0  0  0  0  0  0  0  0  0  0
    6.4874    3.6458    6.1597 H   0  0  0  0  0  0  0  0  0  0  0  0
    4.6700    2.6819    4.8273 H   0  0  0  0  0  0  0  0  0  0  0  0
    2.1608   -0.0379   -0.7388 H   0  0  0  0  0  0  0  0  0  0  0  0
    4.3665   -0.0957   -1.7771 H   0  0  0  0  0  0  0  0  0  0  0  0
    6.5203    0.6162   -1.5361 H   0  0  0  0  0  0  0  0  0  0  0  0
    6.4135   -0.3593   -3.0320 H   0  0  0  0  0  0  0  0  0  0  0  0
    7.9827   -0.1111   -2.2346 H   0  0  0  0  0  0  0  0  0  0  0  0
    5.3991   -3.4741    0.6385 H   0  0  0  0  0  0  0  0  0  0  0  0
    3.1550   -3.4218    1.6716 H   0  0  0  0  0  0  0  0  0  0  0  0
    0.1900   -1.7597    3.6888 H   0  0  0  0  0  0  0  0  0  0  0  0
   -1.6219   -3.3473    4.1922 H   0  0  0  0  0  0  0  0  0  0  0  0
   -3.5046   -5.5645    0.3892 H   0  0  0  0  0  0  0  0  0  0  0  0
   -4.2062   -6.8049    1.4523 H   0  0  0  0  0  0  0  0  0  0  0  0
   -2.4896   -6.9081    1.0021 H   0  0  0  0  0  0  0  0  0  0  0  0
   -1.1837   -5.0652    0.3017 H   0  0  0  0  0  0  0  0  0  0  0  0
    0.5867   -3.4680   -0.2084 H   0  0  0  0  0  0  0  0  0  0  0  0
   -0.8454   -0.7597   -0.2961 H   0  0  0  0  0  0  0  0  0  0  0  0
   -0.2508   -1.6427   -5.6480 H   0  0  0  0  0  0  0  0  0  0  0  0
   -0.6302   -0.0794   -4.8990 H   0  0  0  0  0  0  0  0  0  0  0  0
   -1.7658   -0.3037   -7.0976 H   0  0  0  0  0  0  0  0  0  0  0  0
   -2.5699   -1.7768   -6.5464 H   0  0  0  0  0  0  0  0  0  0  0  0
   -2.9589   -0.2262   -5.7960 H   0  0  0  0  0  0  0  0  0  0  0  0
   -4.9468    0.1276    3.9195 H   0  0  0  0  0  0  0  0  0  0  0  0
   -6.0684   -0.3926    6.1908 H   0  0  0  0  0  0  0  0  0  0  0  0
   -6.9484   -2.4301    7.5639 H   0  0  0  0  0  0  0  0  0  0  0  0
   -6.5543   -4.0342    6.9232 H   0  0  0  0  0  0  0  0  0  0  0  0
   -9.0098   -3.7687    7.1839 H   0  0  0  0  0  0  0  0  0  0  0  0
   -8.9851   -2.3685    6.1073 H   0  0  0  0  0  0  0  0  0  0  0  0
   -8.5834   -3.9704    5.4821 H   0  0  0  0  0  0  0  0  0  0  0  0
   -6.9994   -3.6287    1.8480 H   0  0  0  0  0  0  0  0  0  0  0  0
   -8.3843   -4.9912    0.5315 H   0  0  0  0  0  0  0  0  0  0  0  0
   -7.4178   -6.5649   -5.4733 H   0  0  0  0  0  0  0  0  0  0  0  0
   -8.3356   -7.6953   -7.5039 H   0  0  0  0  0  0  0  0  0  0  0  0
  -12.3898   -8.9887   -4.9624 H   0  0  0  0  0  0  0  0  0  0  0  0
  -11.5167   -7.8997   -2.9676 H   0  0  0  0  0  0  0  0  0  0  0  0
  1  2  2  0  0  0  0
  2  3  1  0  0  0  0
  3  4  2  0  0  0  0
  3  5  1  0  0  0  0
  5  6  2  0  0  0  0
  6  7  1  0  0  0  0
  7  8  1  0  0  0  0
  7  9  2  0  0  0  0
  9 10  1  0  0  0  0
  9 11  1  0  0  0  0
 11 12  2  0  0  0  0
 12 13  1  0  0  0  0
 13 14  2  0  0  0  0
 14 15  1  0  0  0  0
 15 16  3  0  0  0  0
 14 17  1  0  0  0  0
 17 18  3  0  0  0  0
  1 19  1  0  0  0  0
 19 20  2  0  0  0  0
 20 21  1  0  0  0  0
 21 22  1  0  0  0  0
 22 23  2  0  0  0  0
 23 24  2  0  0  0  0
 21 25  2  0  0  0  0
 25 26  1  0  0  0  0
 26 27  2  0  0  0  0
 27 28  1  0  0  0  0
 28 29  1  0  0  0  0
 29 30  2  0  0  0  0
 25 31  1  0  0  0  0
 31 32  2  0  0  0  0
 32 33  1  0  0  0  0
 33 34  1  0  0  0  0
 34 35  2  0  0  0  0
 35 36  1  0  0  0  0
 36 37  2  0  0  0  0
 37 38  1  0  0  0  0
 38 39  1  0  0  0  0
 37 40  1  0  0  0  0
 40 41  2  0  0  0  0
 33 42  1  0  0  0  0
 42 43  2  0  0  0  0
 43 44  1  0  0  0  0
 44 45  2  0  0  0  0
 45 46  1  0  0  0  0
 46 47  1  0  0  0  0
 45 48  1  0  0  0  0
 48 49  2  0  0  0  0
 32 50  1  0  0  0  0
 50 51  1  0  0  0  0
 51 52  1  0  0  0  0
 52 53  2  0  0  0  0
 53 54  1  0  0  0  0
 54 55  1  0  0  0  0
 55 56  2  0  0  0  0
 56 57  1  0  0  0  0
 57 58  2  0  0  0  0
 58 59  1  0  0  0  0
 59 60  1  0  0  0  0
 58 61  1  0  0  0  0
 61 62  2  0  0  0  0
 54 63  1  0  0  0  0
 63 64  2  0  0  0  0
 64 65  1  0  0  0  0
 65 66  2  0  0  0  0
 66 67  1  0  0  0  0
 67 68  1  0  0  0  0
 66 69  1  0  0  0  0
 69 70  2  0  0  0  0
 53 71  1  0  0  0  0
 71 72  1  0  0  0  0
 52 73  1  0  0  0  0
 73 74  2  0  0  0  0
 74 75  1  0  0  0  0
 75 76  2  0  0  0  0
 76 77  1  0  0  0  0
 77 78  1  0  0  0  0
 78 79  1  0  0  0  0
 79 80  1  0  0  0  0
 80 81  1  0  0  0  0
 79 82  2  0  0  0  0
 82 83  1  0  0  0  0
 82 84  1  0  0  0  0
 84 85  1  0  0  0  0
 76 86  1  0  0  0  0
 86 87  2  0  0  0  0
 87 88  1  0  0  0  0
 88 89  1  0  0  0  0
 89 90  2  0  0  0  0
 90 91  1  0  0  0  0
 91 92  2  0  0  0  0
 92 93  1  0  0  0  0
 93 94  1  0  0  0  0
 92 95  1  0  0  0  0
 88 96  2  0  0  0  0
 96 97  1  0  0  0  0
 87 98  1  0  0  0  0
 98 99  2  0  0  0  0
 99100  1  0  0  0  0
 99101  1  0  0  0  0
101102  2  0  0  0  0
102103  1  0  0  0  0
103104  2  0  0  0  0
103105  1  0  0  0  0
105106  2  0  0  0  0
106107  1  0  0  0  0
107108  2  0  0  0  0
108109  1  0  0  0  0
109110  1  0  0  0  0
109111  2  0  0  0  0
111112  1  0  0  0  0
111113  1  0  0  0  0
113114  2  0  0  0  0
114115  1  0  0  0  0
115116  2  0  0  0  0
116117  1  0  0  0  0
117118  2  0  0  0  0
118119  1  0  0  0  0
119120  3  0  0  0  0
118121  1  0  0  0  0
121122  3  0  0  0  0
 13  2  1  0  0  0  0
 30 19  1  0  0  0  0
 72 31  1  0  0  0  0
 97 73  1  0  0  0  0
117102  1  0  0  0  0
 12  5  1  0  0  0  0
 24 20  1  0  0  0  0
 30 26  1  0  0  0  0
 41 34  1  0  0  0  0
 49 42  1  0  0  0  0
 71 50  2  0  0  0  0
 96 75  1  0  0  0  0
116105  1  0  0  0  0
 62 55  1  0  0  0  0
 70 63  1  0  0  0  0
 84 77  2  0  0  0  0
100 86  1  0  0  0  0
114107  1  0  0  0  0
 95 89  1  0  0  0  0
  1123  1  0  0  0  0
  6124  1  0  0  0  0
  8125  1  0  0  0  0
  8126  1  0  0  0  0
  8127  1  0  0  0  0
 11128  1  0  0  0  0
 35129  1  0  0  0  0
 36130  1  0  0  0  0
 39131  1  0  0  0  0
 39132  1  0  0  0  0
 39133  1  0  0  0  0
 40134  1  0  0  0  0
 41135  1  0  0  0  0
 43136  1  0  0  0  0
 44137  1  0  0  0  0
 47138  1  0  0  0  0
 47139  1  0  0  0  0
 47140  1  0  0  0  0
 48141  1  0  0  0  0
 49142  1  0  0  0  0
 56143  1  0  0  0  0
 57144  1  0  0  0  0
 60145  1  0  0  0  0
 60146  1  0  0  0  0
 60147  1  0  0  0  0
 61148  1  0  0  0  0
 62149  1  0  0  0  0
 64150  1  0  0  0  0
 65151  1  0  0  0  0
 68152  1  0  0  0  0
 68153  1  0  0  0  0
 68154  1  0  0  0  0
 69155  1  0  0  0  0
 70156  1  0  0  0  0
 74157  1  0  0  0  0
 80158  1  0  0  0  0
 80159  1  0  0  0  0
 81160  1  0  0  0  0
 81161  1  0  0  0  0
 81162  1  0  0  0  0
 90163  1  0  0  0  0
 91164  1  0  0  0  0
 93165  1  0  0  0  0
 93166  1  0  0  0  0
 94167  1  0  0  0  0
 94168  1  0  0  0  0
 94169  1  0  0  0  0
 98170  1  0  0  0  0
101171  1  0  0  0  0
106172  1  0  0  0  0
108173  1  0  0  0  0
113174  1  0  0  0  0
115175  1  0  0  0  0
M  END
