
  xtb     02032222543D
 energy: -302.856484923091 gnorm: 0.000419787886 xtb: 6.4.1 (unknown)
167182  0     0  0            999 V2000
    0.6035    6.8623    3.3797 C   0  0  0  0  0  0  0  0  0  0  0  0
   -0.1646    7.9310    3.7228 C   0  0  0  0  0  0  0  0  0  0  0  0
   -1.5225    8.2466    3.2367 C   0  0  0  0  0  0  0  0  0  0  0  0
   -2.1586    7.6572    2.3842 O   0  0  0  0  0  0  0  0  0  0  0  0
   -1.9251    9.4799    3.9373 C   0  0  0  0  0  0  0  0  0  0  0  0
   -3.1273   10.1558    3.8632 C   0  0  0  0  0  0  0  0  0  0  0  0
   -3.3092   11.3114    4.6140 C   0  0  0  0  0  0  0  0  0  0  0  0
   -4.5810   12.0934    4.5859 C   0  0  0  0  0  0  0  0  0  0  0  0
   -2.2450   11.7336    5.4142 C   0  0  0  0  0  0  0  0  0  0  0  0
   -2.4138   12.8491    6.1487 F   0  0  0  0  0  0  0  0  0  0  0  0
   -1.0270   11.0802    5.4991 C   0  0  0  0  0  0  0  0  0  0  0  0
   -0.8643    9.9303    4.7413 C   0  0  0  0  0  0  0  0  0  0  0  0
    0.2721    9.0286    4.5774 C   0  0  0  0  0  0  0  0  0  0  0  0
    1.5175    9.2250    5.1077 C   0  0  0  0  0  0  0  0  0  0  0  0
    2.6621    8.4276    4.8939 C   0  0  0  0  0  0  0  0  0  0  0  0
    3.6645    7.8793    4.7732 N   0  0  0  0  0  0  0  0  0  0  0  0
    1.8570   10.3210    5.9323 C   0  0  0  0  0  0  0  0  0  0  0  0
    2.2019   11.1834    6.6061 N   0  0  0  0  0  0  0  0  0  0  0  0
    0.2920    5.6846    2.6328 C   0  0  0  0  0  0  0  0  0  0  0  0
    1.3801    5.0906    1.9514 C   0  0  0  0  0  0  0  0  0  0  0  0
    2.6419    5.5946    1.9776 N   0  0  0  0  0  0  0  0  0  0  0  0
    3.4830    4.8845    1.3294 C   0  0  0  0  0  0  0  0  0  0  0  0
    4.9331    5.1762    1.2291 C   0  0  0  0  0  0  0  0  0  0  0  0
    5.2599    6.5963    1.6781 C   0  0  0  0  0  0  0  0  0  0  0  0
    2.7973    3.4445    0.5593 S   0  0  0  0  0  0  0  0  0  0  0  0
    1.2522    3.8965    1.2132 C   0  0  0  0  0  0  0  0  0  0  0  0
    0.0667    3.1709    1.1886 C   0  0  0  0  0  0  0  0  0  0  0  0
   -1.0240    3.7551    1.8485 C   0  0  0  0  0  0  0  0  0  0  0  0
   -0.9164    4.9826    2.5520 C   0  0  0  0  0  0  0  0  0  0  0  0
   -2.4180    5.3013    3.3421 S   0  0  0  0  0  0  0  0  0  0  0  0
   -3.0778    3.8310    2.6206 C   0  0  0  0  0  0  0  0  0  0  0  0
   -4.4935    3.4487    2.8480 C   0  0  0  0  0  0  0  0  0  0  0  0
   -4.7109    2.8696    4.2474 C   0  0  0  0  0  0  0  0  0  0  0  0
   -2.2551    3.1765    1.8948 N   0  0  0  0  0  0  0  0  0  0  0  0
   -0.0619    1.8388    0.6485 C   0  0  0  0  0  0  0  0  0  0  0  0
   -0.6022    0.7569    1.3209 C   0  0  0  0  0  0  0  0  0  0  0  0
   -0.9276    0.7425    2.6667 N   0  0  0  0  0  0  0  0  0  0  0  0
   -0.2039    1.5509    3.5557 C   0  0  0  0  0  0  0  0  0  0  0  0
   -0.8456    2.2837    4.5542 C   0  0  0  0  0  0  0  0  0  0  0  0
   -0.1428    3.1962    5.3081 C   0  0  0  0  0  0  0  0  0  0  0  0
    1.2206    3.3925    5.0979 C   0  0  0  0  0  0  0  0  0  0  0  0
    1.9899    4.6818    6.0241 S   0  0  0  0  0  0  0  0  0  0  0  0
    3.6579    4.7811    5.3201 C   0  0  0  0  0  0  0  0  0  0  0  0
    1.8836    2.5894    4.1794 C   0  0  0  0  0  0  0  0  0  0  0  0
    1.1767    1.6782    3.4206 C   0  0  0  0  0  0  0  0  0  0  0  0
   -2.0701    0.0565    3.0882 C   0  0  0  0  0  0  0  0  0  0  0  0
   -3.1825   -0.0440    2.2572 C   0  0  0  0  0  0  0  0  0  0  0  0
   -4.3048   -0.7398    2.6620 C   0  0  0  0  0  0  0  0  0  0  0  0
   -4.3349   -1.3437    3.9113 C   0  0  0  0  0  0  0  0  0  0  0  0
   -5.7168   -2.2477    4.5384 S   0  0  0  0  0  0  0  0  0  0  0  0
   -6.7535   -2.5166    3.0720 C   0  0  0  0  0  0  0  0  0  0  0  0
   -3.2304   -1.2291    4.7539 C   0  0  0  0  0  0  0  0  0  0  0  0
   -2.1088   -0.5421    4.3483 C   0  0  0  0  0  0  0  0  0  0  0  0
   -0.6706   -0.3767    0.4726 C   0  0  0  0  0  0  0  0  0  0  0  0
   -1.2208   -2.0004    0.6779 S   0  0  0  0  0  0  0  0  0  0  0  0
   -0.8233   -2.3548   -0.9899 C   0  0  0  0  0  0  0  0  0  0  0  0
   -0.1988   -1.2976   -1.6403 C   0  0  0  0  0  0  0  0  0  0  0  0
    0.3807   -1.3296   -2.8965 N   0  0  0  0  0  0  0  0  0  0  0  0
    0.9311   -2.4948   -3.4451 C   0  0  0  0  0  0  0  0  0  0  0  0
    0.7955   -2.7465   -4.8132 C   0  0  0  0  0  0  0  0  0  0  0  0
    1.2286   -3.9352   -5.3527 C   0  0  0  0  0  0  0  0  0  0  0  0
    1.8206   -4.9057   -4.5468 C   0  0  0  0  0  0  0  0  0  0  0  0
    2.2541   -6.4200   -5.3465 S   0  0  0  0  0  0  0  0  0  0  0  0
    3.1705   -7.3424   -4.0837 C   0  0  0  0  0  0  0  0  0  0  0  0
    2.0198   -4.6350   -3.1993 C   0  0  0  0  0  0  0  0  0  0  0  0
    1.5857   -3.4394   -2.6575 C   0  0  0  0  0  0  0  0  0  0  0  0
    0.3896   -0.1432   -3.6516 C   0  0  0  0  0  0  0  0  0  0  0  0
    1.5299    0.2334   -4.3605 C   0  0  0  0  0  0  0  0  0  0  0  0
    1.5415    1.4098   -5.0739 C   0  0  0  0  0  0  0  0  0  0  0  0
    0.4199    2.2387   -5.0929 C   0  0  0  0  0  0  0  0  0  0  0  0
    0.5622    3.7278   -6.0272 S   0  0  0  0  0  0  0  0  0  0  0  0
   -0.9635    4.6328   -5.6413 C   0  0  0  0  0  0  0  0  0  0  0  0
   -0.7230    1.8569   -4.4040 C   0  0  0  0  0  0  0  0  0  0  0  0
   -0.7363    0.6728   -3.6925 C   0  0  0  0  0  0  0  0  0  0  0  0
   -0.1503   -0.1608   -0.7942 C   0  0  0  0  0  0  0  0  0  0  0  0
    0.4621    1.4475   -0.9745 S   0  0  0  0  0  0  0  0  0  0  0  0
   -1.0476   -3.6718   -1.5172 C   0  0  0  0  0  0  0  0  0  0  0  0
   -0.6892   -4.8164   -0.7881 C   0  0  0  0  0  0  0  0  0  0  0  0
   -0.2884   -4.8062    0.5122 N   0  0  0  0  0  0  0  0  0  0  0  0
    0.0668   -5.9569    0.9309 C   0  0  0  0  0  0  0  0  0  0  0  0
    0.5054   -6.2642    2.3120 C   0  0  0  0  0  0  0  0  0  0  0  0
   -0.5153   -7.1535    3.0246 C   0  0  0  0  0  0  0  0  0  0  0  0
   -0.0248   -7.2443   -0.2855 S   0  0  0  0  0  0  0  0  0  0  0  0
   -0.6108   -6.0738   -1.4192 C   0  0  0  0  0  0  0  0  0  0  0  0
   -0.8914   -6.2858   -2.7786 C   0  0  0  0  0  0  0  0  0  0  0  0
   -1.3998   -5.1584   -3.4614 C   0  0  0  0  0  0  0  0  0  0  0  0
   -1.5010   -3.9069   -2.8147 C   0  0  0  0  0  0  0  0  0  0  0  0
   -2.2063   -2.7467   -3.8955 S   0  0  0  0  0  0  0  0  0  0  0  0
   -2.2365   -3.9936   -5.1341 C   0  0  0  0  0  0  0  0  0  0  0  0
   -2.7928   -3.7085   -6.4765 C   0  0  0  0  0  0  0  0  0  0  0  0
   -4.3233   -3.6810   -6.4328 C   0  0  0  0  0  0  0  0  0  0  0  0
   -1.7839   -5.1310   -4.7626 N   0  0  0  0  0  0  0  0  0  0  0  0
   -0.5059   -7.5182   -3.3723 C   0  0  0  0  0  0  0  0  0  0  0  0
   -0.6770   -8.0274   -4.6206 C   0  0  0  0  0  0  0  0  0  0  0  0
    0.2957   -9.0433   -5.0992 C   0  0  0  0  0  0  0  0  0  0  0  0
    1.0699   -9.6819   -4.4273 O   0  0  0  0  0  0  0  0  0  0  0  0
    0.1483   -9.0395   -6.5734 C   0  0  0  0  0  0  0  0  0  0  0  0
    0.9525   -9.6418   -7.5244 C   0  0  0  0  0  0  0  0  0  0  0  0
    2.2525  -10.6501   -7.0759 Cl  0  0  0  0  0  0  0  0  0  0  0  0
    0.6832   -9.3938   -8.8773 C   0  0  0  0  0  0  0  0  0  0  0  0
    1.6373  -10.1356  -10.0872 Cl  0  0  0  0  0  0  0  0  0  0  0  0
   -0.3394   -8.5178   -9.2377 C   0  0  0  0  0  0  0  0  0  0  0  0
   -0.6010   -8.1710  -10.8926 Cl  0  0  0  0  0  0  0  0  0  0  0  0
   -1.1475   -7.9051   -8.2675 C   0  0  0  0  0  0  0  0  0  0  0  0
   -2.2921   -6.7364   -8.7755 Cl  0  0  0  0  0  0  0  0  0  0  0  0
   -0.9322   -8.2063   -6.9311 C   0  0  0  0  0  0  0  0  0  0  0  0
   -1.5904   -7.7557   -5.7069 C   0  0  0  0  0  0  0  0  0  0  0  0
   -2.9096   -7.4465   -5.5237 C   0  0  0  0  0  0  0  0  0  0  0  0
   -3.4332   -7.1887   -4.2359 C   0  0  0  0  0  0  0  0  0  0  0  0
   -3.9030   -6.9911   -3.2081 N   0  0  0  0  0  0  0  0  0  0  0  0
   -3.9323   -7.4710   -6.4921 C   0  0  0  0  0  0  0  0  0  0  0  0
   -4.8481   -7.5119   -7.1832 N   0  0  0  0  0  0  0  0  0  0  0  0
    1.6484    6.8975    3.6615 H   0  0  0  0  0  0  0  0  0  0  0  0
   -3.9146    9.7811    3.2270 H   0  0  0  0  0  0  0  0  0  0  0  0
   -4.9979   12.1702    5.5896 H   0  0  0  0  0  0  0  0  0  0  0  0
   -4.3893   13.1079    4.2375 H   0  0  0  0  0  0  0  0  0  0  0  0
   -5.3095   11.6241    3.9313 H   0  0  0  0  0  0  0  0  0  0  0  0
   -0.2595   11.4785    6.1416 H   0  0  0  0  0  0  0  0  0  0  0  0
    5.4718    4.4547    1.8529 H   0  0  0  0  0  0  0  0  0  0  0  0
    5.2574    5.0106    0.1984 H   0  0  0  0  0  0  0  0  0  0  0  0
    6.3332    6.7602    1.6369 H   0  0  0  0  0  0  0  0  0  0  0  0
    4.9144    6.7668    2.6935 H   0  0  0  0  0  0  0  0  0  0  0  0
    4.7701    7.3172    1.0296 H   0  0  0  0  0  0  0  0  0  0  0  0
   -4.7705    2.7076    2.0971 H   0  0  0  0  0  0  0  0  0  0  0  0
   -5.1199    4.3348    2.7245 H   0  0  0  0  0  0  0  0  0  0  0  0
   -4.1826    1.9250    4.3545 H   0  0  0  0  0  0  0  0  0  0  0  0
   -4.3576    3.5644    5.0063 H   0  0  0  0  0  0  0  0  0  0  0  0
   -5.7697    2.6869    4.4108 H   0  0  0  0  0  0  0  0  0  0  0  0
   -1.9063    2.1635    4.7073 H   0  0  0  0  0  0  0  0  0  0  0  0
   -0.6492    3.7922    6.0519 H   0  0  0  0  0  0  0  0  0  0  0  0
    3.5898    4.9342    4.2471 H   0  0  0  0  0  0  0  0  0  0  0  0
    4.2222    3.8864    5.5670 H   0  0  0  0  0  0  0  0  0  0  0  0
    4.1169    5.6513    5.7788 H   0  0  0  0  0  0  0  0  0  0  0  0
    2.9491    2.6714    4.0356 H   0  0  0  0  0  0  0  0  0  0  0  0
    1.6986    1.0757    2.6912 H   0  0  0  0  0  0  0  0  0  0  0  0
   -3.1722    0.4493    1.2976 H   0  0  0  0  0  0  0  0  0  0  0  0
   -5.1525   -0.7929    1.9981 H   0  0  0  0  0  0  0  0  0  0  0  0
   -7.5279   -3.2103    3.3839 H   0  0  0  0  0  0  0  0  0  0  0  0
   -7.2063   -1.5824    2.7526 H   0  0  0  0  0  0  0  0  0  0  0  0
   -6.1567   -2.9586    2.2798 H   0  0  0  0  0  0  0  0  0  0  0  0
   -3.2625   -1.6958    5.7264 H   0  0  0  0  0  0  0  0  0  0  0  0
   -1.2518   -0.4690    5.0009 H   0  0  0  0  0  0  0  0  0  0  0  0
    0.3231   -2.0087   -5.4446 H   0  0  0  0  0  0  0  0  0  0  0  0
    1.0952   -4.1373   -6.4043 H   0  0  0  0  0  0  0  0  0  0  0  0
    2.5230   -7.5707   -3.2426 H   0  0  0  0  0  0  0  0  0  0  0  0
    3.4739   -8.2683   -4.5621 H   0  0  0  0  0  0  0  0  0  0  0  0
    4.0438   -6.7752   -3.7754 H   0  0  0  0  0  0  0  0  0  0  0  0
    2.5094   -5.3486   -2.5560 H   0  0  0  0  0  0  0  0  0  0  0  0
    1.7450   -3.2435   -1.6075 H   0  0  0  0  0  0  0  0  0  0  0  0
    2.4045   -0.3992   -4.3384 H   0  0  0  0  0  0  0  0  0  0  0  0
    2.4241    1.7103   -5.6171 H   0  0  0  0  0  0  0  0  0  0  0  0
   -1.0506    4.7648   -4.5669 H   0  0  0  0  0  0  0  0  0  0  0  0
   -0.8597    5.5989   -6.1254 H   0  0  0  0  0  0  0  0  0  0  0  0
   -1.8239    4.1095   -6.0482 H   0  0  0  0  0  0  0  0  0  0  0  0
   -1.6121    2.4659   -4.4153 H   0  0  0  0  0  0  0  0  0  0  0  0
   -1.6312    0.3726   -3.1674 H   0  0  0  0  0  0  0  0  0  0  0  0
    0.6208   -5.3202    2.8465 H   0  0  0  0  0  0  0  0  0  0  0  0
    1.4703   -6.7761    2.2794 H   0  0  0  0  0  0  0  0  0  0  0  0
   -1.4797   -6.6540    3.0755 H   0  0  0  0  0  0  0  0  0  0  0  0
   -0.1796   -7.3657    4.0359 H   0  0  0  0  0  0  0  0  0  0  0  0
   -0.6369   -8.0949    2.4932 H   0  0  0  0  0  0  0  0  0  0  0  0
   -2.4227   -2.7418   -6.8250 H   0  0  0  0  0  0  0  0  0  0  0  0
   -2.4549   -4.4877   -7.1607 H   0  0  0  0  0  0  0  0  0  0  0  0
   -4.6704   -2.9050   -5.7540 H   0  0  0  0  0  0  0  0  0  0  0  0
   -4.7163   -3.4804   -7.4255 H   0  0  0  0  0  0  0  0  0  0  0  0
   -4.7123   -4.6389   -6.0959 H   0  0  0  0  0  0  0  0  0  0  0  0
    0.1661   -8.1104   -2.7534 H   0  0  0  0  0  0  0  0  0  0  0  0
  1  2  2  0  0  0  0
  2  3  1  0  0  0  0
  3  4  2  0  0  0  0
  3  5  1  0  0  0  0
  5  6  2  0  0  0  0
  6  7  1  0  0  0  0
  7  8  1  0  0  0  0
  7  9  2  0  0  0  0
  9 10  1  0  0  0  0
  9 11  1  0  0  0  0
 11 12  2  0  0  0  0
 12 13  1  0  0  0  0
 13 14  2  0  0  0  0
 14 15  1  0  0  0  0
 15 16  3  0  0  0  0
 14 17  1  0  0  0  0
 17 18  3  0  0  0  0
  1 19  1  0  0  0  0
 19 20  2  0  0  0  0
 20 21  1  0  0  0  0
 21 22  2  0  0  0  0
 22 23  1  0  0  0  0
 23 24  1  0  0  0  0
 22 25  1  0  0  0  0
 25 26  1  0  0  0  0
 26 27  2  0  0  0  0
 27 28  1  0  0  0  0
 28 29  2  0  0  0  0
 29 30  1  0  0  0  0
 30 31  1  0  0  0  0
 31 32  1  0  0  0  0
 32 33  1  0  0  0  0
 31 34  2  0  0  0  0
 27 35  1  0  0  0  0
 35 36  2  0  0  0  0
 36 37  1  0  0  0  0
 37 38  1  0  0  0  0
 38 39  2  0  0  0  0
 39 40  1  0  0  0  0
 40 41  2  0  0  0  0
 41 42  1  0  0  0  0
 42 43  1  0  0  0  0
 41 44  1  0  0  0  0
 44 45  2  0  0  0  0
 37 46  1  0  0  0  0
 46 47  2  0  0  0  0
 47 48  1  0  0  0  0
 48 49  2  0  0  0  0
 49 50  1  0  0  0  0
 50 51  1  0  0  0  0
 49 52  1  0  0  0  0
 52 53  2  0  0  0  0
 36 54  1  0  0  0  0
 54 55  1  0  0  0  0
 55 56  1  0  0  0  0
 56 57  2  0  0  0  0
 57 58  1  0  0  0  0
 58 59  1  0  0  0  0
 59 60  2  0  0  0  0
 60 61  1  0  0  0  0
 61 62  2  0  0  0  0
 62 63  1  0  0  0  0
 63 64  1  0  0  0  0
 62 65  1  0  0  0  0
 65 66  2  0  0  0  0
 58 67  1  0  0  0  0
 67 68  2  0  0  0  0
 68 69  1  0  0  0  0
 69 70  2  0  0  0  0
 70 71  1  0  0  0  0
 71 72  1  0  0  0  0
 70 73  1  0  0  0  0
 73 74  2  0  0  0  0
 57 75  1  0  0  0  0
 75 76  1  0  0  0  0
 56 77  1  0  0  0  0
 77 78  2  0  0  0  0
 78 79  1  0  0  0  0
 79 80  2  0  0  0  0
 80 81  1  0  0  0  0
 81 82  1  0  0  0  0
 80 83  1  0  0  0  0
 83 84  1  0  0  0  0
 84 85  2  0  0  0  0
 85 86  1  0  0  0  0
 86 87  2  0  0  0  0
 87 88  1  0  0  0  0
 88 89  1  0  0  0  0
 89 90  1  0  0  0  0
 90 91  1  0  0  0  0
 89 92  2  0  0  0  0
 85 93  1  0  0  0  0
 93 94  2  0  0  0  0
 94 95  1  0  0  0  0
 95 96  2  0  0  0  0
 95 97  1  0  0  0  0
 97 98  2  0  0  0  0
 98 99  1  0  0  0  0
 98100  1  0  0  0  0
100101  1  0  0  0  0
100102  2  0  0  0  0
102103  1  0  0  0  0
102104  1  0  0  0  0
104105  1  0  0  0  0
104106  2  0  0  0  0
106107  1  0  0  0  0
107108  2  0  0  0  0
108109  1  0  0  0  0
109110  3  0  0  0  0
108111  1  0  0  0  0
111112  3  0  0  0  0
 13  2  1  0  0  0  0
 29 19  1  0  0  0  0
 76 35  1  0  0  0  0
 87 77  1  0  0  0  0
107 94  1  0  0  0  0
 12  5  1  0  0  0  0
 26 20  1  0  0  0  0
 34 28  1  0  0  0  0
 45 38  1  0  0  0  0
 53 46  1  0  0  0  0
 75 54  2  0  0  0  0
 84 78  1  0  0  0  0
 92 86  1  0  0  0  0
106 97  1  0  0  0  0
 66 59  1  0  0  0  0
 74 67  1  0  0  0  0
  1113  1  0  0  0  0
  6114  1  0  0  0  0
  8115  1  0  0  0  0
  8116  1  0  0  0  0
  8117  1  0  0  0  0
 11118  1  0  0  0  0
 23119  1  0  0  0  0
 23120  1  0  0  0  0
 24121  1  0  0  0  0
 24122  1  0  0  0  0
 24123  1  0  0  0  0
 32124  1  0  0  0  0
 32125  1  0  0  0  0
 33126  1  0  0  0  0
 33127  1  0  0  0  0
 33128  1  0  0  0  0
 39129  1  0  0  0  0
 40130  1  0  0  0  0
 43131  1  0  0  0  0
 43132  1  0  0  0  0
 43133  1  0  0  0  0
 44134  1  0  0  0  0
 45135  1  0  0  0  0
 47136  1  0  0  0  0
 48137  1  0  0  0  0
 51138  1  0  0  0  0
 51139  1  0  0  0  0
 51140  1  0  0  0  0
 52141  1  0  0  0  0
 53142  1  0  0  0  0
 60143  1  0  0  0  0
 61144  1  0  0  0  0
 64145  1  0  0  0  0
 64146  1  0  0  0  0
 64147  1  0  0  0  0
 65148  1  0  0  0  0
 66149  1  0  0  0  0
 68150  1  0  0  0  0
 69151  1  0  0  0  0
 72152  1  0  0  0  0
 72153  1  0  0  0  0
 72154  1  0  0  0  0
 73155  1  0  0  0  0
 74156  1  0  0  0  0
 81157  1  0  0  0  0
 81158  1  0  0  0  0
 82159  1  0  0  0  0
 82160  1  0  0  0  0
 82161  1  0  0  0  0
 90162  1  0  0  0  0
 90163  1  0  0  0  0
 91164  1  0  0  0  0
 91165  1  0  0  0  0
 91166  1  0  0  0  0
 93167  1  0  0  0  0
M  END
