
  xtb     02102221473D
 energy: -270.326135730069 gnorm: 0.000710712011 xtb: 6.4.1 (unknown)
155169  0     0  0            999 V2000
   -6.1116    0.4870   -8.7445 C   0  0  0  0  0  0  0  0  0  0  0  0
   -7.2867   -0.1890   -8.6444 C   0  0  0  0  0  0  0  0  0  0  0  0
   -7.6781   -1.1705   -7.5964 C   0  0  0  0  0  0  0  0  0  0  0  0
   -7.0908   -1.4596   -6.5765 O   0  0  0  0  0  0  0  0  0  0  0  0
   -8.9133   -1.8060   -8.0917 C   0  0  0  0  0  0  0  0  0  0  0  0
   -9.6541   -2.8072   -7.4926 C   0  0  0  0  0  0  0  0  0  0  0  0
  -10.7978   -3.2812   -8.1233 C   0  0  0  0  0  0  0  0  0  0  0  0
  -11.6525   -4.3539   -7.5342 C   0  0  0  0  0  0  0  0  0  0  0  0
  -11.1375   -2.7128   -9.3544 C   0  0  0  0  0  0  0  0  0  0  0  0
  -12.2386   -3.1712   -9.9756 F   0  0  0  0  0  0  0  0  0  0  0  0
  -10.4128   -1.7100   -9.9760 C   0  0  0  0  0  0  0  0  0  0  0  0
   -9.2776   -1.2468   -9.3275 C   0  0  0  0  0  0  0  0  0  0  0  0
   -8.3094   -0.2176   -9.6847 C   0  0  0  0  0  0  0  0  0  0  0  0
   -8.4001    0.6131  -10.7679 C   0  0  0  0  0  0  0  0  0  0  0  0
   -7.5136    1.6674  -11.0791 C   0  0  0  0  0  0  0  0  0  0  0  0
   -6.8554    2.5512  -11.4022 N   0  0  0  0  0  0  0  0  0  0  0  0
   -9.4305    0.5434  -11.7315 C   0  0  0  0  0  0  0  0  0  0  0  0
  -10.2334    0.5363  -12.5509 N   0  0  0  0  0  0  0  0  0  0  0  0
   -5.0642    0.6797   -7.7787 C   0  0  0  0  0  0  0  0  0  0  0  0
   -5.2830    0.7003   -6.3892 C   0  0  0  0  0  0  0  0  0  0  0  0
   -4.2167    0.9420   -5.5582 C   0  0  0  0  0  0  0  0  0  0  0  0
   -4.1852    1.0013   -4.0713 C   0  0  0  0  0  0  0  0  0  0  0  0
   -5.1078    0.8665   -3.3037 O   0  0  0  0  0  0  0  0  0  0  0  0
   -2.7562    1.2490   -3.7459 C   0  0  0  0  0  0  0  0  0  0  0  0
   -2.0160    1.3719   -4.9389 C   0  0  0  0  0  0  0  0  0  0  0  0
   -2.9184    1.1710   -6.0603 C   0  0  0  0  0  0  0  0  0  0  0  0
   -2.6989    1.1693   -7.4267 C   0  0  0  0  0  0  0  0  0  0  0  0
   -3.7729    0.9396   -8.2668 C   0  0  0  0  0  0  0  0  0  0  0  0
   -0.6594    1.6314   -4.8845 C   0  0  0  0  0  0  0  0  0  0  0  0
   -0.0404    1.6670   -3.6446 C   0  0  0  0  0  0  0  0  0  0  0  0
   -0.7509    1.4400   -2.4650 C   0  0  0  0  0  0  0  0  0  0  0  0
   -2.1476    1.2934   -2.5165 C   0  0  0  0  0  0  0  0  0  0  0  0
   -0.0563    1.2678   -1.2074 C   0  0  0  0  0  0  0  0  0  0  0  0
   -0.2943    0.2917   -0.2530 C   0  0  0  0  0  0  0  0  0  0  0  0
   -1.2201   -0.7337   -0.3548 N   0  0  0  0  0  0  0  0  0  0  0  0
   -1.5650   -1.2626   -1.6081 C   0  0  0  0  0  0  0  0  0  0  0  0
   -2.8889   -1.5737   -1.9069 C   0  0  0  0  0  0  0  0  0  0  0  0
   -3.2535   -1.9655   -3.1806 C   0  0  0  0  0  0  0  0  0  0  0  0
   -2.2943   -2.0541   -4.1799 C   0  0  0  0  0  0  0  0  0  0  0  0
   -2.6517   -2.4213   -5.8680 S   0  0  0  0  0  0  0  0  0  0  0  0
   -4.3875   -2.9442   -5.8473 C   0  0  0  0  0  0  0  0  0  0  0  0
   -0.9567   -1.8164   -3.8663 C   0  0  0  0  0  0  0  0  0  0  0  0
   -0.5935   -1.4355   -2.5958 C   0  0  0  0  0  0  0  0  0  0  0  0
   -1.8487   -1.2033    0.8069 C   0  0  0  0  0  0  0  0  0  0  0  0
   -2.1213   -2.5595    0.9591 C   0  0  0  0  0  0  0  0  0  0  0  0
   -2.7300   -3.0324    2.1046 C   0  0  0  0  0  0  0  0  0  0  0  0
   -3.0708   -2.1543    3.1252 C   0  0  0  0  0  0  0  0  0  0  0  0
   -3.8420   -2.6378    4.6369 S   0  0  0  0  0  0  0  0  0  0  0  0
   -3.9593   -4.4446    4.5125 C   0  0  0  0  0  0  0  0  0  0  0  0
   -2.8065   -0.7947    2.9737 C   0  0  0  0  0  0  0  0  0  0  0  0
   -2.2080   -0.3223    1.8276 C   0  0  0  0  0  0  0  0  0  0  0  0
    0.6091    0.4213    0.8350 C   0  0  0  0  0  0  0  0  0  0  0  0
    0.8765   -0.4739    2.2913 S   0  0  0  0  0  0  0  0  0  0  0  0
    2.1941    0.5993    2.7249 C   0  0  0  0  0  0  0  0  0  0  0  0
    2.4563    1.5510    1.7487 C   0  0  0  0  0  0  0  0  0  0  0  0
    3.5509    2.3991    1.7587 N   0  0  0  0  0  0  0  0  0  0  0  0
    3.4484    3.6832    1.2172 C   0  0  0  0  0  0  0  0  0  0  0  0
    2.2562    4.3967    1.3085 C   0  0  0  0  0  0  0  0  0  0  0  0
    2.1401    5.6552    0.7506 C   0  0  0  0  0  0  0  0  0  0  0  0
    3.2229    6.2285    0.0995 C   0  0  0  0  0  0  0  0  0  0  0  0
    3.2009    7.8266   -0.6492 S   0  0  0  0  0  0  0  0  0  0  0  0
    1.4700    8.3540   -0.5048 C   0  0  0  0  0  0  0  0  0  0  0  0
    4.4249    5.5256    0.0233 C   0  0  0  0  0  0  0  0  0  0  0  0
    4.5380    4.2683    0.5698 C   0  0  0  0  0  0  0  0  0  0  0  0
    4.7621    1.9312    2.2960 C   0  0  0  0  0  0  0  0  0  0  0  0
    5.5430    2.7389    3.1220 C   0  0  0  0  0  0  0  0  0  0  0  0
    6.6422    2.2125    3.7640 C   0  0  0  0  0  0  0  0  0  0  0  0
    6.9823    0.8711    3.5989 C   0  0  0  0  0  0  0  0  0  0  0  0
    8.3092    0.2519    4.5884 S   0  0  0  0  0  0  0  0  0  0  0  0
    8.2745   -1.5367    4.2855 C   0  0  0  0  0  0  0  0  0  0  0  0
    6.2639    0.0900    2.7050 C   0  0  0  0  0  0  0  0  0  0  0  0
    5.1667    0.6208    2.0579 C   0  0  0  0  0  0  0  0  0  0  0  0
    1.5259    1.4497    0.6864 C   0  0  0  0  0  0  0  0  0  0  0  0
    1.3186    2.2839   -0.8120 S   0  0  0  0  0  0  0  0  0  0  0  0
    2.9145    0.4465    3.9514 C   0  0  0  0  0  0  0  0  0  0  0  0
    3.3058    1.4840    4.7763 C   0  0  0  0  0  0  0  0  0  0  0  0
    4.1216    1.0784    5.8276 C   0  0  0  0  0  0  0  0  0  0  0  0
    4.6754    2.0126    6.8066 C   0  0  0  0  0  0  0  0  0  0  0  0
    3.8354    2.9403    7.4203 C   0  0  0  0  0  0  0  0  0  0  0  0
    4.3364    3.8257    8.3550 C   0  0  0  0  0  0  0  0  0  0  0  0
    5.6828    3.8079    8.6799 C   0  0  0  0  0  0  0  0  0  0  0  0
    6.5287    2.9059    8.0576 C   0  0  0  0  0  0  0  0  0  0  0  0
    6.0320    2.0133    7.1269 C   0  0  0  0  0  0  0  0  0  0  0  0
    4.3690   -0.3067    5.8163 C   0  0  0  0  0  0  0  0  0  0  0  0
    3.5530   -1.0731    4.4726 S   0  0  0  0  0  0  0  0  0  0  0  0
    5.1262   -0.9462    6.8038 C   0  0  0  0  0  0  0  0  0  0  0  0
    5.5969   -2.2342    6.8735 C   0  0  0  0  0  0  0  0  0  0  0  0
    5.4374   -3.2668    5.8463 C   0  0  0  0  0  0  0  0  0  0  0  0
    4.7861   -3.2044    4.8169 O   0  0  0  0  0  0  0  0  0  0  0  0
    6.2498   -4.4145    6.2937 C   0  0  0  0  0  0  0  0  0  0  0  0
    6.4517   -5.6252    5.6614 C   0  0  0  0  0  0  0  0  0  0  0  0
    7.2613   -6.5825    6.2624 C   0  0  0  0  0  0  0  0  0  0  0  0
    7.5234   -7.9149    5.6405 C   0  0  0  0  0  0  0  0  0  0  0  0
    7.8353   -6.2585    7.4929 C   0  0  0  0  0  0  0  0  0  0  0  0
    8.6240   -7.1777    8.0811 F   0  0  0  0  0  0  0  0  0  0  0  0
    7.6475   -5.0520    8.1480 C   0  0  0  0  0  0  0  0  0  0  0  0
    6.8364   -4.1114    7.5339 C   0  0  0  0  0  0  0  0  0  0  0  0
    6.4318   -2.7638    7.9328 C   0  0  0  0  0  0  0  0  0  0  0  0
    6.7864   -2.1476    9.1048 C   0  0  0  0  0  0  0  0  0  0  0  0
    7.6100   -2.7398   10.0857 C   0  0  0  0  0  0  0  0  0  0  0  0
    8.2754   -3.1632   10.9198 N   0  0  0  0  0  0  0  0  0  0  0  0
    6.3886   -0.8595    9.5218 C   0  0  0  0  0  0  0  0  0  0  0  0
    6.1158    0.1712    9.9499 N   0  0  0  0  0  0  0  0  0  0  0  0
   -5.8997    0.9448   -9.7042 H   0  0  0  0  0  0  0  0  0  0  0  0
   -9.3411   -3.2086   -6.5407 H   0  0  0  0  0  0  0  0  0  0  0  0
  -11.7297   -5.1941   -8.2235 H   0  0  0  0  0  0  0  0  0  0  0  0
  -11.2424   -4.7018   -6.5909 H   0  0  0  0  0  0  0  0  0  0  0  0
  -12.6622   -3.9797   -7.3684 H   0  0  0  0  0  0  0  0  0  0  0  0
  -10.7455   -1.3314  -10.9281 H   0  0  0  0  0  0  0  0  0  0  0  0
   -6.2668    0.5556   -5.9747 H   0  0  0  0  0  0  0  0  0  0  0  0
   -1.7152    1.3473   -7.8329 H   0  0  0  0  0  0  0  0  0  0  0  0
   -3.6156    0.9413   -9.3360 H   0  0  0  0  0  0  0  0  0  0  0  0
   -0.0807    1.7685   -5.7850 H   0  0  0  0  0  0  0  0  0  0  0  0
    1.0268    1.8251   -3.5832 H   0  0  0  0  0  0  0  0  0  0  0  0
   -2.7300    1.2115   -1.6121 H   0  0  0  0  0  0  0  0  0  0  0  0
   -3.6487   -1.4693   -1.1470 H   0  0  0  0  0  0  0  0  0  0  0  0
   -4.2931   -2.1614   -3.3862 H   0  0  0  0  0  0  0  0  0  0  0  0
   -5.0400   -2.1068   -5.6210 H   0  0  0  0  0  0  0  0  0  0  0  0
   -4.5139   -3.7543   -5.1353 H   0  0  0  0  0  0  0  0  0  0  0  0
   -4.5954   -3.3016   -6.8512 H   0  0  0  0  0  0  0  0  0  0  0  0
   -0.2106   -1.9266   -4.6381 H   0  0  0  0  0  0  0  0  0  0  0  0
    0.4442   -1.2477   -2.3645 H   0  0  0  0  0  0  0  0  0  0  0  0
   -1.8494   -3.2474    0.1721 H   0  0  0  0  0  0  0  0  0  0  0  0
   -2.9241   -4.0892    2.1898 H   0  0  0  0  0  0  0  0  0  0  0  0
   -4.4071   -4.7718    5.4455 H   0  0  0  0  0  0  0  0  0  0  0  0
   -2.9670   -4.8738    4.4092 H   0  0  0  0  0  0  0  0  0  0  0  0
   -4.6000   -4.7217    3.6808 H   0  0  0  0  0  0  0  0  0  0  0  0
   -3.0844   -0.1149    3.7642 H   0  0  0  0  0  0  0  0  0  0  0  0
   -2.0220    0.7354    1.7135 H   0  0  0  0  0  0  0  0  0  0  0  0
    1.4130    3.9664    1.8289 H   0  0  0  0  0  0  0  0  0  0  0  0
    1.2013    6.1772    0.8403 H   0  0  0  0  0  0  0  0  0  0  0  0
    1.4125    9.3084   -1.0188 H   0  0  0  0  0  0  0  0  0  0  0  0
    1.2034    8.4838    0.5401 H   0  0  0  0  0  0  0  0  0  0  0  0
    0.8226    7.6315   -0.9928 H   0  0  0  0  0  0  0  0  0  0  0  0
    5.2646    5.9779   -0.4815 H   0  0  0  0  0  0  0  0  0  0  0  0
    5.4675    3.7248    0.4932 H   0  0  0  0  0  0  0  0  0  0  0  0
    5.2648    3.7693    3.2840 H   0  0  0  0  0  0  0  0  0  0  0  0
    7.2280    2.8279    4.4289 H   0  0  0  0  0  0  0  0  0  0  0  0
    8.9617   -1.9708    5.0058 H   0  0  0  0  0  0  0  0  0  0  0  0
    7.2723   -1.9206    4.4510 H   0  0  0  0  0  0  0  0  0  0  0  0
    8.6158   -1.7527    3.2771 H   0  0  0  0  0  0  0  0  0  0  0  0
    6.5318   -0.9359    2.5135 H   0  0  0  0  0  0  0  0  0  0  0  0
    4.5982   -0.0006    1.3820 H   0  0  0  0  0  0  0  0  0  0  0  0
    3.0126    2.5060    4.6126 H   0  0  0  0  0  0  0  0  0  0  0  0
    2.7822    2.9414    7.1795 H   0  0  0  0  0  0  0  0  0  0  0  0
    3.6728    4.5295    8.8355 H   0  0  0  0  0  0  0  0  0  0  0  0
    6.0715    4.4966    9.4145 H   0  0  0  0  0  0  0  0  0  0  0  0
    7.5807    2.8929    8.2989 H   0  0  0  0  0  0  0  0  0  0  0  0
    6.7038    1.3328    6.6253 H   0  0  0  0  0  0  0  0  0  0  0  0
    5.4059   -0.2882    7.6172 H   0  0  0  0  0  0  0  0  0  0  0  0
    5.9797   -5.8197    4.7103 H   0  0  0  0  0  0  0  0  0  0  0  0
    7.1706   -8.7105    6.2961 H   0  0  0  0  0  0  0  0  0  0  0  0
    8.5940   -8.0617    5.5019 H   0  0  0  0  0  0  0  0  0  0  0  0
    7.0239   -7.9984    4.6797 H   0  0  0  0  0  0  0  0  0  0  0  0
    8.1306   -4.8871    9.0967 H   0  0  0  0  0  0  0  0  0  0  0  0
  1  2  2  0  0  0  0
  2  3  1  0  0  0  0
  3  4  2  0  0  0  0
  3  5  1  0  0  0  0
  5  6  2  0  0  0  0
  6  7  1  0  0  0  0
  7  8  1  0  0  0  0
  7  9  2  0  0  0  0
  9 10  1  0  0  0  0
  9 11  1  0  0  0  0
 11 12  2  0  0  0  0
 12 13  1  0  0  0  0
 13 14  2  0  0  0  0
 14 15  1  0  0  0  0
 15 16  3  0  0  0  0
 14 17  1  0  0  0  0
 17 18  3  0  0  0  0
  1 19  1  0  0  0  0
 19 20  2  0  0  0  0
 20 21  1  0  0  0  0
 21 22  1  0  0  0  0
 22 23  2  0  0  0  0
 22 24  1  0  0  0  0
 24 25  2  0  0  0  0
 25 26  1  0  0  0  0
 26 27  1  0  0  0  0
 27 28  2  0  0  0  0
 25 29  1  0  0  0  0
 29 30  2  0  0  0  0
 30 31  1  0  0  0  0
 31 32  2  0  0  0  0
 31 33  1  0  0  0  0
 33 34  2  0  0  0  0
 34 35  1  0  0  0  0
 35 36  1  0  0  0  0
 36 37  2  0  0  0  0
 37 38  1  0  0  0  0
 38 39  2  0  0  0  0
 39 40  1  0  0  0  0
 40 41  1  0  0  0  0
 39 42  1  0  0  0  0
 42 43  2  0  0  0  0
 35 44  1  0  0  0  0
 44 45  2  0  0  0  0
 45 46  1  0  0  0  0
 46 47  2  0  0  0  0
 47 48  1  0  0  0  0
 48 49  1  0  0  0  0
 47 50  1  0  0  0  0
 50 51  2  0  0  0  0
 34 52  1  0  0  0  0
 52 53  1  0  0  0  0
 53 54  1  0  0  0  0
 54 55  2  0  0  0  0
 55 56  1  0  0  0  0
 56 57  1  0  0  0  0
 57 58  2  0  0  0  0
 58 59  1  0  0  0  0
 59 60  2  0  0  0  0
 60 61  1  0  0  0  0
 61 62  1  0  0  0  0
 60 63  1  0  0  0  0
 63 64  2  0  0  0  0
 56 65  1  0  0  0  0
 65 66  2  0  0  0  0
 66 67  1  0  0  0  0
 67 68  2  0  0  0  0
 68 69  1  0  0  0  0
 69 70  1  0  0  0  0
 68 71  1  0  0  0  0
 71 72  2  0  0  0  0
 55 73  1  0  0  0  0
 73 74  1  0  0  0  0
 54 75  1  0  0  0  0
 75 76  2  0  0  0  0
 76 77  1  0  0  0  0
 77 78  1  0  0  0  0
 78 79  2  0  0  0  0
 79 80  1  0  0  0  0
 80 81  2  0  0  0  0
 81 82  1  0  0  0  0
 82 83  2  0  0  0  0
 77 84  2  0  0  0  0
 84 85  1  0  0  0  0
 84 86  1  0  0  0  0
 86 87  2  0  0  0  0
 87 88  1  0  0  0  0
 88 89  2  0  0  0  0
 88 90  1  0  0  0  0
 90 91  2  0  0  0  0
 91 92  1  0  0  0  0
 92 93  1  0  0  0  0
 92 94  2  0  0  0  0
 94 95  1  0  0  0  0
 94 96  1  0  0  0  0
 96 97  2  0  0  0  0
 97 98  1  0  0  0  0
 98 99  2  0  0  0  0
 99100  1  0  0  0  0
100101  3  0  0  0  0
 99102  1  0  0  0  0
102103  3  0  0  0  0
 13  2  1  0  0  0  0
 28 19  1  0  0  0  0
 74 33  1  0  0  0  0
 85 75  1  0  0  0  0
 98 87  1  0  0  0  0
 12  5  1  0  0  0  0
 26 21  2  0  0  0  0
 43 36  1  0  0  0  0
 51 44  1  0  0  0  0
 73 52  2  0  0  0  0
 83 78  1  0  0  0  0
 97 90  1  0  0  0  0
 32 24  1  0  0  0  0
 64 57  1  0  0  0  0
 72 65  1  0  0  0  0
  1104  1  0  0  0  0
  6105  1  0  0  0  0
  8106  1  0  0  0  0
  8107  1  0  0  0  0
  8108  1  0  0  0  0
 11109  1  0  0  0  0
 20110  1  0  0  0  0
 27111  1  0  0  0  0
 28112  1  0  0  0  0
 29113  1  0  0  0  0
 30114  1  0  0  0  0
 32115  1  0  0  0  0
 37116  1  0  0  0  0
 38117  1  0  0  0  0
 41118  1  0  0  0  0
 41119  1  0  0  0  0
 41120  1  0  0  0  0
 42121  1  0  0  0  0
 43122  1  0  0  0  0
 45123  1  0  0  0  0
 46124  1  0  0  0  0
 49125  1  0  0  0  0
 49126  1  0  0  0  0
 49127  1  0  0  0  0
 50128  1  0  0  0  0
 51129  1  0  0  0  0
 58130  1  0  0  0  0
 59131  1  0  0  0  0
 62132  1  0  0  0  0
 62133  1  0  0  0  0
 62134  1  0  0  0  0
 63135  1  0  0  0  0
 64136  1  0  0  0  0
 66137  1  0  0  0  0
 67138  1  0  0  0  0
 70139  1  0  0  0  0
 70140  1  0  0  0  0
 70141  1  0  0  0  0
 71142  1  0  0  0  0
 72143  1  0  0  0  0
 76144  1  0  0  0  0
 79145  1  0  0  0  0
 80146  1  0  0  0  0
 81147  1  0  0  0  0
 82148  1  0  0  0  0
 83149  1  0  0  0  0
 86150  1  0  0  0  0
 91151  1  0  0  0  0
 93152  1  0  0  0  0
 93153  1  0  0  0  0
 93154  1  0  0  0  0
 96155  1  0  0  0  0
M  END
