
  xtb     02102219213D
 energy: -199.938235166533 gnorm: 0.000724494338 xtb: 6.4.1 (unknown)
100112  0     0  0            999 V2000
   -8.0299    2.2428    3.7272 C   0  0  0  0  0  0  0  0  0  0  0  0
   -9.2377    2.1360    3.1056 C   0  0  0  0  0  0  0  0  0  0  0  0
  -10.4839    2.4282    3.8672 C   0  0  0  0  0  0  0  0  0  0  0  0
  -10.5691    2.9665    4.9464 O   0  0  0  0  0  0  0  0  0  0  0  0
  -11.5771    1.8706    3.0421 C   0  0  0  0  0  0  0  0  0  0  0  0
  -12.9227    1.7728    3.3378 C   0  0  0  0  0  0  0  0  0  0  0  0
  -13.7845    1.1837    2.4185 C   0  0  0  0  0  0  0  0  0  0  0  0
  -15.2508    1.0488    2.6688 C   0  0  0  0  0  0  0  0  0  0  0  0
  -13.2327    0.7117    1.2258 C   0  0  0  0  0  0  0  0  0  0  0  0
  -14.0579    0.1259    0.3375 F   0  0  0  0  0  0  0  0  0  0  0  0
  -11.8898    0.8061    0.8989 C   0  0  0  0  0  0  0  0  0  0  0  0
  -11.0499    1.3997    1.8264 C   0  0  0  0  0  0  0  0  0  0  0  0
   -9.6186    1.6853    1.7883 C   0  0  0  0  0  0  0  0  0  0  0  0
   -8.8519    1.7320    0.6528 C   0  0  0  0  0  0  0  0  0  0  0  0
   -7.5510    2.2685    0.6031 C   0  0  0  0  0  0  0  0  0  0  0  0
   -6.4978    2.7151    0.5015 N   0  0  0  0  0  0  0  0  0  0  0  0
   -9.2918    1.2999   -0.6140 C   0  0  0  0  0  0  0  0  0  0  0  0
   -9.5841    0.9334   -1.6620 N   0  0  0  0  0  0  0  0  0  0  0  0
   -6.7767    1.6897    3.3582 C   0  0  0  0  0  0  0  0  0  0  0  0
   -6.5909    0.5461    2.5535 C   0  0  0  0  0  0  0  0  0  0  0  0
   -5.2770    0.0711    2.1811 C   0  0  0  0  0  0  0  0  0  0  0  0
   -5.3449   -1.0240    1.4231 N   0  0  0  0  0  0  0  0  0  0  0  0
   -6.8788   -1.4275    1.2092 S   0  0  0  0  0  4  0  0  0  0  0  0
   -7.5501   -0.2413    2.0583 N   0  0  0  0  0  0  0  0  0  0  0  0
   -4.0799    0.7114    2.5641 C   0  0  0  0  0  0  0  0  0  0  0  0
   -4.2608    1.8098    3.4343 C   0  0  0  0  0  0  0  0  0  0  0  0
   -3.2999    2.5607    3.9794 N   0  0  0  0  0  0  0  0  0  0  0  0
   -3.9709    3.6983    4.8893 S   0  0  0  0  0  0  0  0  0  0  0  0
   -5.5071    3.3172    4.6505 N   0  0  0  0  0  0  0  0  0  0  0  0
   -5.5771    2.2625    3.8369 C   0  0  0  0  0  0  0  0  0  0  0  0
   -2.8219    0.2873    2.0640 C   0  0  0  0  0  0  0  0  0  0  0  0
   -1.5910    0.8586    2.3112 C   0  0  0  0  0  0  0  0  0  0  0  0
   -0.5352    0.2498    1.6126 C   0  0  0  0  0  0  0  0  0  0  0  0
    0.8285    0.6072    1.6141 C   0  0  0  0  0  0  0  0  0  0  0  0
    1.3399    1.7611    2.4197 C   0  0  0  0  0  0  0  0  0  0  0  0
    1.1306    3.0786    1.6695 C   0  0  0  0  0  0  0  0  0  0  0  0
    1.6535   -0.1228    0.7865 C   0  0  0  0  0  0  0  0  0  0  0  0
    1.1951   -1.2087   -0.0145 C   0  0  0  0  0  0  0  0  0  0  0  0
   -0.1610   -1.5897    0.0116 C   0  0  0  0  0  0  0  0  0  0  0  0
   -0.6842   -2.7077   -0.8361 C   0  0  0  0  0  0  0  0  0  0  0  0
   -1.0011   -2.2125   -2.2490 C   0  0  0  0  0  0  0  0  0  0  0  0
   -0.9916   -0.8377    0.8125 C   0  0  0  0  0  0  0  0  0  0  0  0
   -2.7189   -1.0628    0.9633 S   0  0  0  0  0  0  0  0  0  0  0  0
    2.2315   -1.7620   -0.7839 C   0  0  0  0  0  0  0  0  0  0  0  0
    3.4476   -1.1374   -0.6076 C   0  0  0  0  0  0  0  0  0  0  0  0
    3.3647    0.1618    0.5553 S   0  0  0  0  0  0  0  0  0  0  0  0
    4.6614   -1.4282   -1.2840 C   0  0  0  0  0  0  0  0  0  0  0  0
    4.7976   -2.4439   -2.2584 C   0  0  0  0  0  0  0  0  0  0  0  0
    6.0321   -2.6446   -2.9899 C   0  0  0  0  0  0  0  0  0  0  0  0
    5.9274   -3.6409   -3.8713 N   0  0  0  0  0  0  0  0  0  0  0  0
    4.4586   -4.2709   -3.7826 S   0  0  0  0  0  4  0  0  0  0  0  0
    3.8593   -3.3141   -2.6429 N   0  0  0  0  0  0  0  0  0  0  0  0
    7.1709   -1.8270   -2.8237 C   0  0  0  0  0  0  0  0  0  0  0  0
    7.0664   -0.8842   -1.7818 C   0  0  0  0  0  0  0  0  0  0  0  0
    8.0448   -0.1058   -1.3158 N   0  0  0  0  0  0  0  0  0  0  0  0
    7.4753    0.8037   -0.1312 S   0  0  0  0  0  0  0  0  0  0  0  0
    5.9719    0.2496   -0.1034 N   0  0  0  0  0  0  0  0  0  0  0  0
    5.8395   -0.6916   -1.0406 C   0  0  0  0  0  0  0  0  0  0  0  0
    8.3218   -2.0136   -3.6346 C   0  0  0  0  0  0  0  0  0  0  0  0
    9.1813   -1.0319   -4.0333 C   0  0  0  0  0  0  0  0  0  0  0  0
    8.8608    0.4186   -4.0575 C   0  0  0  0  0  0  0  0  0  0  0  0
    7.8400    0.9671   -3.7015 O   0  0  0  0  0  0  0  0  0  0  0  0
    9.9950    1.0572   -4.7567 C   0  0  0  0  0  0  0  0  0  0  0  0
   10.1763    2.3950   -5.0484 C   0  0  0  0  0  0  0  0  0  0  0  0
   11.3093    2.7959   -5.7474 C   0  0  0  0  0  0  0  0  0  0  0  0
   11.5756    4.2252   -6.0892 C   0  0  0  0  0  0  0  0  0  0  0  0
   12.2143    1.8039   -6.1314 C   0  0  0  0  0  0  0  0  0  0  0  0
   13.3098    2.1818   -6.8166 F   0  0  0  0  0  0  0  0  0  0  0  0
   12.0544    0.4558   -5.8567 C   0  0  0  0  0  0  0  0  0  0  0  0
   10.9212    0.0782   -5.1533 C   0  0  0  0  0  0  0  0  0  0  0  0
   10.4524   -1.2277   -4.7012 C   0  0  0  0  0  0  0  0  0  0  0  0
   11.1379   -2.4084   -4.8139 C   0  0  0  0  0  0  0  0  0  0  0  0
   10.7109   -3.6453   -4.2851 C   0  0  0  0  0  0  0  0  0  0  0  0
   10.4486   -4.6805   -3.8634 N   0  0  0  0  0  0  0  0  0  0  0  0
   12.3870   -2.5371   -5.4567 C   0  0  0  0  0  0  0  0  0  0  0  0
   13.3998   -2.7042   -5.9702 N   0  0  0  0  0  0  0  0  0  0  0  0
   -8.0301    2.7991    4.6595 H   0  0  0  0  0  0  0  0  0  0  0  0
  -13.2959    2.1531    4.2764 H   0  0  0  0  0  0  0  0  0  0  0  0
  -15.5075    1.4002    3.6637 H   0  0  0  0  0  0  0  0  0  0  0  0
  -15.5569    0.0086    2.5648 H   0  0  0  0  0  0  0  0  0  0  0  0
  -15.8104    1.6257    1.9328 H   0  0  0  0  0  0  0  0  0  0  0  0
  -11.5426    0.4139   -0.0429 H   0  0  0  0  0  0  0  0  0  0  0  0
   -1.4884    1.7002    2.9709 H   0  0  0  0  0  0  0  0  0  0  0  0
    2.4067    1.6201    2.6046 H   0  0  0  0  0  0  0  0  0  0  0  0
    0.8239    1.8016    3.3800 H   0  0  0  0  0  0  0  0  0  0  0  0
    1.6605    3.0573    0.7204 H   0  0  0  0  0  0  0  0  0  0  0  0
    0.0740    3.2427    1.4724 H   0  0  0  0  0  0  0  0  0  0  0  0
    1.5092    3.9097    2.2590 H   0  0  0  0  0  0  0  0  0  0  0  0
    0.0514   -3.5117   -0.8867 H   0  0  0  0  0  0  0  0  0  0  0  0
   -1.5963   -3.0999   -0.3818 H   0  0  0  0  0  0  0  0  0  0  0  0
   -1.7498   -1.4251   -2.2110 H   0  0  0  0  0  0  0  0  0  0  0  0
   -1.3874   -3.0286   -2.8541 H   0  0  0  0  0  0  0  0  0  0  0  0
   -0.1069   -1.8175   -2.7253 H   0  0  0  0  0  0  0  0  0  0  0  0
    2.1187   -2.5848   -1.4652 H   0  0  0  0  0  0  0  0  0  0  0  0
    8.4662   -3.0261   -3.9912 H   0  0  0  0  0  0  0  0  0  0  0  0
    9.4404    3.1178   -4.7303 H   0  0  0  0  0  0  0  0  0  0  0  0
   12.4842    4.5661   -5.5933 H   0  0  0  0  0  0  0  0  0  0  0  0
   11.7332    4.3328   -7.1616 H   0  0  0  0  0  0  0  0  0  0  0  0
   10.7467    4.8569   -5.7838 H   0  0  0  0  0  0  0  0  0  0  0  0
   12.7983   -0.2452   -6.1977 H   0  0  0  0  0  0  0  0  0  0  0  0
  1  2  2  0  0  0  0
  2  3  1  0  0  0  0
  3  4  2  0  0  0  0
  3  5  1  0  0  0  0
  5  6  2  0  0  0  0
  6  7  1  0  0  0  0
  7  8  1  0  0  0  0
  7  9  2  0  0  0  0
  9 10  1  0  0  0  0
  9 11  1  0  0  0  0
 11 12  2  0  0  0  0
 12 13  1  0  0  0  0
 13 14  2  0  0  0  0
 14 15  1  0  0  0  0
 15 16  3  0  0  0  0
 14 17  1  0  0  0  0
 17 18  3  0  0  0  0
  1 19  1  0  0  0  0
 19 20  2  0  0  0  0
 20 21  1  0  0  0  0
 21 22  1  0  0  0  0
 22 23  2  0  0  0  0
 23 24  2  0  0  0  0
 21 25  2  0  0  0  0
 25 26  1  0  0  0  0
 26 27  2  0  0  0  0
 27 28  1  0  0  0  0
 28 29  1  0  0  0  0
 29 30  2  0  0  0  0
 25 31  1  0  0  0  0
 31 32  2  0  0  0  0
 32 33  1  0  0  0  0
 33 34  2  0  0  0  0
 34 35  1  0  0  0  0
 35 36  1  0  0  0  0
 34 37  1  0  0  0  0
 37 38  2  0  0  0  0
 38 39  1  0  0  0  0
 39 40  1  0  0  0  0
 40 41  1  0  0  0  0
 39 42  2  0  0  0  0
 42 43  1  0  0  0  0
 38 44  1  0  0  0  0
 44 45  2  0  0  0  0
 45 46  1  0  0  0  0
 45 47  1  0  0  0  0
 47 48  2  0  0  0  0
 48 49  1  0  0  0  0
 49 50  1  0  0  0  0
 50 51  2  0  0  0  0
 51 52  2  0  0  0  0
 49 53  2  0  0  0  0
 53 54  1  0  0  0  0
 54 55  2  0  0  0  0
 55 56  1  0  0  0  0
 56 57  1  0  0  0  0
 57 58  2  0  0  0  0
 53 59  1  0  0  0  0
 59 60  2  0  0  0  0
 60 61  1  0  0  0  0
 61 62  2  0  0  0  0
 61 63  1  0  0  0  0
 63 64  2  0  0  0  0
 64 65  1  0  0  0  0
 65 66  1  0  0  0  0
 65 67  2  0  0  0  0
 67 68  1  0  0  0  0
 67 69  1  0  0  0  0
 69 70  2  0  0  0  0
 70 71  1  0  0  0  0
 71 72  2  0  0  0  0
 72 73  1  0  0  0  0
 73 74  3  0  0  0  0
 72 75  1  0  0  0  0
 75 76  3  0  0  0  0
 13  2  1  0  0  0  0
 30 19  1  0  0  0  0
 43 31  1  0  0  0  0
 58 47  1  0  0  0  0
 71 60  1  0  0  0  0
 12  5  1  0  0  0  0
 24 20  1  0  0  0  0
 30 26  1  0  0  0  0
 42 33  1  0  0  0  0
 52 48  1  0  0  0  0
 58 54  1  0  0  0  0
 70 63  1  0  0  0  0
 46 37  1  0  0  0  0
  1 77  1  0  0  0  0
  6 78  1  0  0  0  0
  8 79  1  0  0  0  0
  8 80  1  0  0  0  0
  8 81  1  0  0  0  0
 11 82  1  0  0  0  0
 32 83  1  0  0  0  0
 35 84  1  0  0  0  0
 35 85  1  0  0  0  0
 36 86  1  0  0  0  0
 36 87  1  0  0  0  0
 36 88  1  0  0  0  0
 40 89  1  0  0  0  0
 40 90  1  0  0  0  0
 41 91  1  0  0  0  0
 41 92  1  0  0  0  0
 41 93  1  0  0  0  0
 44 94  1  0  0  0  0
 59 95  1  0  0  0  0
 64 96  1  0  0  0  0
 66 97  1  0  0  0  0
 66 98  1  0  0  0  0
 66 99  1  0  0  0  0
 69100  1  0  0  0  0
M  END
