167

C          0.60350        6.86230        3.37970
C         -0.16460        7.93100        3.72280
C         -1.52250        8.24660        3.23670
O         -2.15860        7.65720        2.38420
C         -1.92510        9.47990        3.93730
C         -3.12730       10.15580        3.86320
C         -3.30920       11.31140        4.61400
C         -4.58100       12.09340        4.58590
C         -2.24500       11.73360        5.41420
F         -2.41380       12.84910        6.14870
C         -1.02700       11.08020        5.49910
C         -0.86430        9.93030        4.74130
C          0.27210        9.02860        4.57740
C          1.51750        9.22500        5.10770
C          2.66210        8.42760        4.89390
N          3.66450        7.87930        4.77320
C          1.85700       10.32100        5.93230
N          2.20190       11.18340        6.60610
C          0.29200        5.68460        2.63280
C          1.38010        5.09060        1.95140
N          2.64190        5.59460        1.97760
C          3.48300        4.88450        1.32940
C          4.93310        5.17620        1.22910
C          5.25990        6.59630        1.67810
S          2.79730        3.44450        0.55930
C          1.25220        3.89650        1.21320
C          0.06670        3.17090        1.18860
C         -1.02400        3.75510        1.84850
C         -0.91640        4.98260        2.55200
S         -2.41800        5.30130        3.34210
C         -3.07780        3.83100        2.62060
C         -4.49350        3.44870        2.84800
C         -4.71090        2.86960        4.24740
N         -2.25510        3.17650        1.89480
C         -0.06190        1.83880        0.64850
C         -0.60220        0.75690        1.32090
N         -0.92760        0.74250        2.66670
C         -0.20390        1.55090        3.55570
C         -0.84560        2.28370        4.55420
C         -0.14280        3.19620        5.30810
C          1.22060        3.39250        5.09790
S          1.98990        4.68180        6.02410
C          3.65790        4.78110        5.32010
C          1.88360        2.58940        4.17940
C          1.17670        1.67820        3.42060
C         -2.07010        0.05650        3.08820
C         -3.18250       -0.04400        2.25720
C         -4.30480       -0.73980        2.66200
C         -4.33490       -1.34370        3.91130
S         -5.71680       -2.24770        4.53840
C         -6.75350       -2.51660        3.07200
C         -3.23040       -1.22910        4.75390
C         -2.10880       -0.54210        4.34830
C         -0.67060       -0.37670        0.47260
S         -1.22080       -2.00040        0.67790
C         -0.82330       -2.35480       -0.98990
C         -0.19880       -1.29760       -1.64030
N          0.38070       -1.32960       -2.89650
C          0.93110       -2.49480       -3.44510
C          0.79550       -2.74650       -4.81320
C          1.22860       -3.93520       -5.35270
C          1.82060       -4.90570       -4.54680
S          2.25410       -6.42000       -5.34650
C          3.17050       -7.34240       -4.08370
C          2.01980       -4.63500       -3.19930
C          1.58570       -3.43940       -2.65750
C          0.38960       -0.14320       -3.65160
C          1.52990        0.23340       -4.36050
C          1.54150        1.40980       -5.07390
C          0.41990        2.23870       -5.09290
S          0.56220        3.72780       -6.02720
C         -0.96350        4.63280       -5.64130
C         -0.72300        1.85690       -4.40400
C         -0.73630        0.67280       -3.69250
C         -0.15030       -0.16080       -0.79420
S          0.46210        1.44750       -0.97450
C         -1.04760       -3.67180       -1.51720
C         -0.68920       -4.81640       -0.78810
N         -0.28840       -4.80620        0.51220
C          0.06680       -5.95690        0.93090
C          0.50540       -6.26420        2.31200
C         -0.51530       -7.15350        3.02460
S         -0.02480       -7.24430       -0.28550
C         -0.61080       -6.07380       -1.41920
C         -0.89140       -6.28580       -2.77860
C         -1.39980       -5.15840       -3.46140
C         -1.50100       -3.90690       -2.81470
S         -2.20630       -2.74670       -3.89550
C         -2.23650       -3.99360       -5.13410
C         -2.79280       -3.70850       -6.47650
C         -4.32330       -3.68100       -6.43280
N         -1.78390       -5.13100       -4.76260
C         -0.50590       -7.51820       -3.37230
C         -0.67700       -8.02740       -4.62060
C          0.29570       -9.04330       -5.09920
O          1.06990       -9.68190       -4.42730
C          0.14830       -9.03950       -6.57340
C          0.95250       -9.64180       -7.52440
Cl         2.25250      -10.65010       -7.07590
C          0.68320       -9.39380       -8.87730
Cl         1.63730      -10.13560      -10.08720
C         -0.33940       -8.51780       -9.23770
Cl        -0.60100       -8.17100      -10.89260
C         -1.14750       -7.90510       -8.26750
Cl        -2.29210       -6.73640       -8.77550
C         -0.93220       -8.20630       -6.93110
C         -1.59040       -7.75570       -5.70690
C         -2.90960       -7.44650       -5.52370
C         -3.43320       -7.18870       -4.23590
N         -3.90300       -6.99110       -3.20810
C         -3.93230       -7.47100       -6.49210
N         -4.84810       -7.51190       -7.18320
H          1.64840        6.89750        3.66150
H         -3.91460        9.78110        3.22700
H         -4.99790       12.17020        5.58960
H         -4.38930       13.10790        4.23750
H         -5.30950       11.62410        3.93130
H         -0.25950       11.47850        6.14160
H          5.47180        4.45470        1.85290
H          5.25740        5.01060        0.19840
H          6.33320        6.76020        1.63690
H          4.91440        6.76680        2.69350
H          4.77010        7.31720        1.02960
H         -4.77050        2.70760        2.09710
H         -5.11990        4.33480        2.72450
H         -4.18260        1.92500        4.35450
H         -4.35760        3.56440        5.00630
H         -5.76970        2.68690        4.41080
H         -1.90630        2.16350        4.70730
H         -0.64920        3.79220        6.05190
H          3.58980        4.93420        4.24710
H          4.22220        3.88640        5.56700
H          4.11690        5.65130        5.77880
H          2.94910        2.67140        4.03560
H          1.69860        1.07570        2.69120
H         -3.17220        0.44930        1.29760
H         -5.15250       -0.79290        1.99810
H         -7.52790       -3.21030        3.38390
H         -7.20630       -1.58240        2.75260
H         -6.15670       -2.95860        2.27980
H         -3.26250       -1.69580        5.72640
H         -1.25180       -0.46900        5.00090
H          0.32310       -2.00870       -5.44460
H          1.09520       -4.13730       -6.40430
H          2.52300       -7.57070       -3.24260
H          3.47390       -8.26830       -4.56210
H          4.04380       -6.77520       -3.77540
H          2.50940       -5.34860       -2.55600
H          1.74500       -3.24350       -1.60750
H          2.40450       -0.39920       -4.33840
H          2.42410        1.71030       -5.61710
H         -1.05060        4.76480       -4.56690
H         -0.85970        5.59890       -6.12540
H         -1.82390        4.10950       -6.04820
H         -1.61210        2.46590       -4.41530
H         -1.63120        0.37260       -3.16740
H          0.62080       -5.32020        2.84650
H          1.47030       -6.77610        2.27940
H         -1.47970       -6.65400        3.07550
H         -0.17960       -7.36570        4.03590
H         -0.63690       -8.09490        2.49320
H         -2.42270       -2.74180       -6.82500
H         -2.45490       -4.48770       -7.16070
H         -4.67040       -2.90500       -5.75400
H         -4.71630       -3.48040       -7.42550
H         -4.71230       -4.63890       -6.09590
H          0.16610       -8.11040       -2.75340
