139

C          7.06490       -0.70740        1.89170
C          7.30660       -2.01200        2.24090
C          6.42270       -3.14830        1.90630
O          5.34210       -3.13130        1.34900
C          7.19660       -4.36110        2.25120
C          6.82470       -5.68420        2.11930
C          7.71550       -6.68690        2.48670
C          7.37600       -8.13820        2.38040
C          8.96520       -6.29380        2.96730
F          9.83790       -7.25900        3.31730
C          9.36670       -4.97460        3.10410
C          8.46090       -3.99230        2.73910
C          8.54530       -2.53450        2.76500
C          9.57530       -1.79720        3.29270
C         10.76320       -2.35640        3.80370
N         11.75370       -2.75960        4.22210
C          9.56050       -0.39430        3.43360
N          9.60870        0.73850        3.61820
C          5.79260       -0.16860        1.60280
C          5.63100        0.87700        0.66300
C          4.33740        1.38080        0.24470
N          4.45350        2.24460       -0.76360
S          6.00960        2.44200       -1.11930
N          6.62230        1.42290       -0.03800
C          3.12870        0.91570        0.81660
C          3.31090       -0.07800        1.81320
N          2.31600       -0.63150        2.50720
S          2.92700       -1.68270        3.56170
N          4.47480       -1.48640        3.19900
C          4.59200       -0.60520        2.20480
C          1.81800        1.24270        0.40790
C          1.31450        2.24360       -0.45280
N          1.92780        3.41510       -0.81100
C          2.82090        4.09590        0.01230
C          3.75980        4.97150       -0.54590
C          4.67330        5.61620        0.25210
C          4.68050        5.41400        1.63360
S          5.92270        6.25910        2.54730
C          5.84350        5.50400        4.19570
C          3.71770        4.58600        2.19920
C          2.79460        3.94510        1.39860
C          1.58460        3.96130       -2.06530
C          1.64360        3.16030       -3.20510
C          1.28180        3.67450       -4.42870
C          0.85130        4.99700       -4.54000
S          0.39790        5.53440       -6.15320
C         -0.19950        7.23050       -5.90380
C          0.80730        5.80040       -3.40670
C          1.17190        5.28400       -2.17890
C         -0.00360        1.92700       -0.86120
S         -1.16760        2.67020       -1.92100
C         -2.30060        1.37030       -1.60950
C         -1.84920        0.48490       -0.62560
N         -2.59720       -0.48620        0.00010
C         -3.97470       -0.36530        0.19260
C         -4.77840       -1.50330        0.26450
C         -6.14740       -1.38720        0.37340
C         -6.74940       -0.13050        0.37780
S         -8.51060       -0.07310        0.37140
C         -8.88750        1.65970       -0.02250
C         -5.94930        1.00630        0.38920
C         -4.57820        0.88700        0.32110
C         -1.87430       -1.54610        0.58160
C         -2.01400       -1.85300        1.93440
C         -1.13960       -2.73470        2.52840
C         -0.12120       -3.33080        1.78480
S          1.04150       -4.30880        2.67790
C          2.40510       -4.55190        1.50570
C         -0.05610       -3.11570        0.41400
C         -0.92750       -2.22500       -0.18090
C         -0.52650        0.79740       -0.24990
S          0.56880        0.10150        0.89000
C         -3.53390        1.26850       -2.30470
C         -4.36300        2.37210       -2.58140
C         -5.74950        2.19960       -2.96370
N         -6.39110        3.36730       -3.00010
S         -5.36330        4.55060       -2.64420
N         -4.05680        3.65400       -2.37750
C         -6.33850        0.92890       -3.17480
C         -5.41100       -0.13440       -3.19530
N         -5.62100       -1.36420       -3.66030
S         -4.31480       -2.25220       -3.41260
N         -3.38030       -1.12680       -2.74550
C         -4.06360        0.01950       -2.69340
C         -7.74580        0.84750       -3.32440
C         -8.59860       -0.18490       -3.05710
C         -8.29250       -1.48270       -2.39050
O         -7.22790       -1.90030       -1.98070
C         -9.59200       -2.13620       -2.27830
S        -10.17010       -3.60970       -1.63780
C        -11.80590       -3.16900       -2.06000
C        -12.92250       -4.10010       -1.76040
C        -11.88020       -1.94250       -2.65590
C        -10.61110       -1.34310       -2.78050
C        -10.03770       -0.11280       -3.28200
C        -10.76230        0.89280       -3.86780
C        -12.16370        0.80490       -4.00570
N        -13.30470        0.76400       -4.12430
C        -10.26590        2.10020       -4.39840
N         -9.96280        3.10780       -4.86000
H          7.89900       -0.02920        1.76000
H          5.84760       -5.93310        1.73320
H          7.45880       -8.61580        3.35630
H          6.36680       -8.27310        2.00190
H          8.07710       -8.64010        1.71420
H         10.35400       -4.75710        3.47710
H          3.79320        5.10420       -1.61570
H          5.41000        6.27330       -0.18330
H          6.69040        5.90750        4.74230
H          4.91910        5.78170        4.69470
H          5.94150        4.42590        4.10910
H          3.67060        4.43780        3.26610
H          2.04470        3.32090        1.86010
H          1.98190        2.13920       -3.11640
H          1.32710        3.06190       -5.31570
H          0.61200        7.86670       -5.56280
H         -1.02780        7.23040       -5.20160
H         -0.54250        7.56400       -6.87820
H          0.48410        6.82670       -3.46350
H          1.12740        5.90700       -1.29800
H         -4.32200       -2.47990        0.20810
H         -6.76350       -2.26990        0.42180
H         -8.64900        2.29920        0.82240
H         -9.95640        1.69150       -0.21140
H         -8.34470        1.96080       -0.91470
H         -6.38300        1.99100        0.46410
H         -3.96910        1.77790        0.35820
H         -2.77520       -1.35880        2.51920
H         -1.20720       -2.94250        3.58490
H          2.10990       -5.24400        0.72210
H          2.72480       -3.59970        1.09430
H          3.21710       -4.97760        2.08690
H          0.68240       -3.61390       -0.19260
H         -0.86560       -2.02250       -1.23980
H         -8.18960        1.79120       -3.62270
H        -12.76700       -5.05750       -2.25670
H        -12.98730       -4.28890       -0.68920
H        -13.86330       -3.67520       -2.10070
H        -12.80400       -1.50250       -2.98300
