203

C         11.28950       -1.62530        3.70330
C         11.84720       -2.02880        4.88540
C         11.17960       -2.36370        6.16600
O         10.04080       -2.14060        6.52010
C         12.20610       -3.04660        6.97910
C         12.05860       -3.62760        8.22350
C         13.15250       -4.23740        8.82620
C         13.06810       -4.88990       10.16690
C         14.36170       -4.22600        8.12720
F         15.42500       -4.82060        8.70000
C         14.53740       -3.64450        6.88240
C         13.43360       -3.04200        6.29890
C         13.26130       -2.34520        5.02840
C         14.27770       -1.99600        4.17950
C         15.63190       -2.32940        4.39740
N         16.74750       -2.57260        4.51350
C         14.14970       -1.21900        3.00770
N         14.14750       -0.57430        2.05740
C          9.95920       -1.30450        3.35980
C          8.82050       -1.14210        4.11150
C          7.67920       -0.82310        3.35460
C          6.36790       -0.60200        3.83480
C          6.01970       -0.70100        5.23650
C          5.20930        0.13590        5.95520
C          5.05030       -0.26320        7.29440
C          5.71720       -1.41170        7.59990
C          5.72830       -2.16010        8.88750
C          4.74650       -3.33400        8.84710
S          6.57560       -2.01800        6.22810
C          5.41330       -0.28960        2.87990
C          5.67920       -0.22350        1.48820
C          6.99280       -0.41340        1.00620
C          7.34350       -0.29460       -0.39420
C          8.49730        0.21870       -0.92170
C          8.53650        0.18760       -2.32770
C          7.42560       -0.36030       -2.88990
C          7.13150       -0.59690       -4.33060
C          7.40140       -2.05290       -4.71730
S          6.29690       -0.85170       -1.67290
C          7.96090       -0.70330        1.96610
S          9.64090       -1.01360        1.64900
C          4.51310        0.07610        0.74800
C          3.39840        0.26090        1.51570
S          3.73290        0.02340        3.22070
C          2.08870        0.65380        1.12310
C          1.65430        1.36130        0.00780
N          2.39710        1.83090       -1.06210
C          3.68760        2.34070       -0.95940
C          4.54350        2.28340       -2.06290
C          5.85700        2.67720       -1.94560
C          6.35100        3.13040       -0.72510
S          8.06850        3.53180       -0.63730
C          8.43900        3.27840        1.12410
C          5.48880        3.25700        0.35440
C          4.16950        2.86850        0.23720
C          1.70600        1.87430       -2.29470
C          1.56220        3.06980       -2.99150
C          0.71790        3.13600       -4.08160
C          0.01030        2.00950       -4.48220
S         -1.20480        2.07410       -5.76530
C         -1.97390        3.69320       -5.44480
C          0.23030        0.78990       -3.85170
C          1.07500        0.72300       -2.76450
C          0.24720        1.54500        0.06170
S         -0.89100        2.30480       -0.99150
C         -2.21760        1.82920        0.05520
C         -1.79410        1.11090        1.16380
N         -2.61100        0.48240        2.08680
C         -3.83860       -0.07440        1.69220
C         -4.94420        0.00930        2.53460
C         -6.18400       -0.43320        2.11640
C         -6.33620       -0.97190        0.84580
S         -7.88660       -1.48300        0.17230
C         -8.89190       -1.80320        1.65160
C         -5.22270       -1.10440        0.02020
C         -3.98480       -0.67250        0.44010
C         -2.11600        0.24810        3.37600
C         -1.35610        1.21980        4.02390
C         -0.77640        0.95760        5.24960
C         -0.95570       -0.28030        5.84990
S         -0.19750       -0.72200        7.38380
C          1.32000        0.27910        7.37100
C         -1.77220       -1.22880        5.23950
C         -2.34510       -0.97100        4.01460
C         -0.37730        0.99480        1.16640
S          0.77070        0.25350        2.22150
C         -3.53430        2.03240       -0.46530
C         -3.88000        1.84690       -1.77130
C         -5.27500        1.86920       -1.99490
C         -5.95690        1.51450       -3.16890
C         -5.25490        1.09920       -4.37430
S         -5.61030        1.83380       -5.91060
C         -4.51070        0.79620       -6.75510
C         -4.33190        0.90140       -8.22920
C         -3.61510        2.19230       -8.62540
C         -3.90040       -0.05270       -5.88240
Cl        -2.74450       -1.23360       -6.33810
C         -4.31970        0.11540       -4.53550
Cl        -3.74960       -0.90360       -3.28000
C         -7.34530        1.52190       -3.11700
C         -8.06810        1.84980       -1.93830
C         -7.38370        2.19440       -0.74530
C         -8.05850        2.47910        0.49930
C         -7.66020        3.33290        1.49430
C         -8.51530        3.33300        2.61100
C         -9.56410        2.47160        2.49190
C        -10.68630        2.23310        3.44210
C        -11.98260        2.86980        2.93540
S         -9.51870        1.65430        0.96710
C         -5.99730        2.19440       -0.81830
S         -4.91190        2.46420        0.52160
C         -9.44900        1.75840       -2.16260
C         -9.79490        1.33670       -3.43380
S         -8.38560        1.06490       -4.43280
C        -11.14420        1.14820       -3.79770
C        -11.69750        0.69850       -4.96240
C        -10.95990        0.31710       -6.18600
O         -9.75840        0.36100       -6.35800
C        -11.98170       -0.11820       -7.14780
C        -11.80640       -0.58900       -8.45280
O        -10.55310       -0.66320       -8.92360
C        -10.33320       -1.14320      -10.22910
C        -12.95960       -0.94680       -9.16220
C        -14.21070       -0.83250       -8.58360
C        -14.38500       -0.36470       -7.28790
C        -13.25730       -0.00660       -6.56860
C        -13.11290        0.50360       -5.20510
C        -14.14730        0.73610       -4.33560
C        -14.03000        1.21590       -3.01390
N        -14.03770        1.59900       -1.93040
C        -15.50880        0.52340       -4.63940
N        -16.63520        0.37790       -4.80810
H         11.96350       -1.57400        2.85560
H         11.09770       -3.60570        8.71470
H         12.06260       -4.81540       10.57050
H         13.76680       -4.41970       10.85820
H         13.34630       -5.94060       10.09140
H         15.50650       -3.68430        6.41360
H          8.82110       -1.25080        5.17940
H          4.77680        1.03190        5.54720
H          4.46970        0.28970        8.01150
H          6.73410       -2.53870        9.08180
H          5.45350       -1.47970        9.69660
H          5.02110       -4.02640        8.05460
H          3.73620       -2.97800        8.65840
H          4.75640       -3.86720        9.79430
H          9.28450        0.64740       -0.32960
H          9.36100        0.57160       -2.90120
H          6.08530       -0.35870       -4.53740
H          7.76060        0.06380       -4.93110
H          8.44230       -2.30620       -4.53020
H          6.77270       -2.72050       -4.13230
H          7.18850       -2.20880       -5.77180
H          4.48980        0.12480       -0.32190
H          4.17600        1.89670       -3.00180
H          6.52490        2.60920       -2.79030
H          8.09370        4.12400        1.71210
H          9.51970        3.20370        1.19480
H          7.97630        2.35380        1.45770
H          5.83590        3.65300        1.29550
H          3.50560        2.97660        1.08140
H          2.08500        3.95150       -2.65160
H          0.59010        4.07410       -4.59860
H         -2.03090        3.84840       -4.37190
H         -1.40790        4.48680       -5.92390
H         -2.97220        3.64430       -5.86820
H         -0.29160       -0.08840       -4.19860
H          1.21620       -0.21040       -2.23950
H         -4.83430        0.45700        3.51100
H         -7.02820       -0.32540        2.77850
H         -9.77640       -2.32380        1.29880
H         -9.18250       -0.86850        2.12170
H         -8.33410       -2.43430        2.33660
H         -5.34370       -1.54770       -0.95570
H         -3.12760       -0.78710       -0.20620
H         -1.21650        2.18500        3.55950
H         -0.18500        1.72300        5.72600
H          1.96420       -0.15710        8.12790
H          1.78980        0.20680        6.39460
H          1.09930        1.31110        7.62840
H         -1.92730       -2.17970        5.72520
H         -2.94900       -1.72240        3.52840
H         -3.15570        1.62100       -2.53220
H         -5.31300        0.87180       -8.70920
H         -3.75240        0.04110       -8.56760
H         -3.50250        2.23990       -9.70520
H         -2.62850        2.22670       -8.17040
H         -4.18740        3.05670       -8.29620
H         -6.80360        3.97680        1.41150
H         -8.35610        3.95010        3.47740
H        -10.84470        1.15890        3.56990
H        -10.42100        2.65790        4.41260
H        -12.78790        2.69850        3.64490
H        -11.85240        3.94210        2.80850
H        -12.26610        2.43970        1.97760
H        -10.19970        1.99140       -1.42950
H        -11.82850        1.39020       -2.99330
H         -9.25430       -1.11510      -10.37040
H        -10.81350       -0.50560      -10.97800
H        -10.68650       -2.17270      -10.34360
H        -12.88450       -1.31740      -10.17210
H        -15.07870       -1.11750       -9.15900
H        -15.37480       -0.29060       -6.87150
