95

C          6.33000        2.14030        4.32300
C          6.86650        2.89120        3.32640
C          6.39150        2.84670        1.91370
O          5.56000        2.11330        1.43080
C          7.03620        3.99840        1.25250
C          6.88780        4.42250       -0.05380
C          7.55380        5.56500       -0.48160
C          7.43820        6.08340       -1.87720
C          8.34790        6.23580        0.45220
F          8.98990        7.34750        0.04860
C          8.51110        5.83430        1.76770
C          7.83920        4.69130        2.17420
C          7.78040        4.01000        3.46270
C          8.51330        4.32300        4.57510
C          8.48870        3.58960        5.78090
N          8.53490        3.03430        6.78440
C          9.41140        5.40870        4.64830
N         10.14870        6.28030        4.76510
C          5.53420        0.97330        4.09800
C          5.83790       -0.00470        3.13570
C          4.93540       -1.10110        2.85470
N          5.45190       -1.94840        1.96470
S          6.86610       -1.39240        1.48180
N          6.95530       -0.09190        2.40970
C          3.66150       -1.22160        3.44720
C          3.41330       -0.31640        4.49800
N          2.30380       -0.21680        5.23710
S          2.44640        1.01460        6.25400
N          3.89520        1.52360        5.80830
C          4.35800        0.73700        4.83330
C          2.68940       -2.05770        2.80820
C          2.57780       -2.20980        1.42820
C          1.37320       -2.92250        1.16340
C          0.78740       -3.30060        2.43120
O         -0.18560       -3.96080        2.71830
N          1.64770       -2.72210        3.39240
C          1.47280       -3.00250        4.79220
C          1.19000       -2.98650       -0.20480
N          2.26060       -2.37410       -0.79870
C          2.45900       -2.12690       -2.20040
C          3.14350       -1.81210        0.15970
O          4.10980       -1.15520       -0.16310
C          0.01900       -3.44530       -0.92960
C         -1.23750       -3.07420       -0.42340
C         -2.35220       -3.33820       -1.18090
C         -3.76180       -2.91520       -0.94870
O         -4.21840       -2.34350        0.00830
C         -4.47410       -3.33970       -2.18600
C         -3.58360       -4.03840       -3.02680
C         -2.26190       -4.01690       -2.41350
C         -1.03450       -4.46290       -2.86680
C          0.09980       -4.15730       -2.12710
C         -4.03350       -4.56100       -4.22590
C         -5.34750       -4.32440       -4.60050
C         -6.20260       -3.54030       -3.81930
C         -5.76570       -3.07720       -2.56710
C         -7.52020       -3.21530       -4.31660
C         -8.09650       -1.99120       -4.23090
C         -7.36470       -0.73560       -3.89080
O         -6.21750       -0.60780       -3.53480
C         -8.31470        0.35850       -4.18530
C         -8.10140        1.71840       -4.06400
C         -9.14130        2.56500       -4.40880
F         -8.98290        3.88810       -4.30580
C        -10.35610        2.04890       -4.86700
F        -11.33920        2.89000       -5.19960
C        -10.56910        0.68480       -4.99030
C         -9.53300       -0.17060       -4.64280
C         -9.44190       -1.62790       -4.65810
C        -10.45970       -2.48870       -4.95860
C        -10.36940       -3.89790       -4.91130
N        -10.37470       -5.04500       -4.88850
C        -11.75500       -2.07860       -5.34620
N        -12.82030       -1.80540       -5.67170
H          6.43220        2.44640        5.35660
H          6.25710        3.86420       -0.72880
H          6.78590        5.45050       -2.47160
H          7.04060        7.09790       -1.86850
H          8.42060        6.12580       -2.34610
H          9.13580        6.41650        2.42490
H          0.64030       -3.70190        4.86960
H          2.37560       -3.45700        5.20390
H          1.24460       -2.09240        5.34630
H          2.89890       -2.99400       -2.69820
H          3.16000       -1.29460       -2.27900
H          1.51800       -1.86690       -2.68550
H         -1.31920       -2.55350        0.51740
H         -0.94660       -5.01220       -3.79180
H          1.06310       -4.49170       -2.48000
H         -3.37910       -5.12990       -4.86850
H         -5.70800       -4.70560       -5.54510
H         -6.42980       -2.53960       -1.90950
H         -8.04280       -4.01080       -4.83360
H         -7.16040        2.10950       -3.71090
H        -11.52280        0.33860       -5.35340
