126

C          6.56880       -1.68230        5.77660
C          7.79640       -2.26900        5.68980
C          8.77670       -2.29140        4.57350
O          8.64630       -1.90810        3.42970
C         10.00910       -2.87460        5.13600
C         11.22150       -3.06830        4.50190
C         12.27700       -3.63480        5.20570
C         13.61340       -3.88010        4.58700
C         12.04910       -3.97830        6.54110
F         13.06770       -4.51970        7.23350
C         10.84320       -3.79850        7.19770
C          9.80040       -3.23710        6.47580
C          8.41930       -2.93470        6.83260
C          7.81370       -3.30480        8.00240
C          6.44800       -3.15490        8.33520
N          5.36020       -3.12420        8.70210
C          8.48510       -3.96170        9.05770
N          8.96970       -4.48990        9.95380
C          5.70100       -1.05090        4.83420
C          5.89390       -0.93950        3.46060
C          4.93280       -0.39690        2.61980
C          3.70570        0.05570        3.08880
C          3.48160       -0.01010        4.49650
N          2.31630        0.43670        4.98880
C          2.12000        0.38200        6.27970
C          3.10710       -0.12800        7.14150
N          4.24750       -0.57680        6.68970
C          4.46950       -0.54200        5.36410
C          2.66730        0.53410        2.22530
C          2.72030        0.67870        0.86290
C          1.49720        1.07840        0.28160
C          1.22430        1.28410       -1.08500
C          2.28900        1.25850       -2.09490
C          3.45680        1.99320       -1.90680
C          4.44330        1.98400       -2.87790
C          4.26880        1.27080       -4.04720
C          3.09680        0.54590       -4.24850
S          2.93570       -0.32470       -5.77530
C          1.12330       -0.56580       -5.92430
C          0.77780       -0.86300       -7.37090
C          2.12170        0.52290       -3.26410
C         -0.09850        1.52670       -1.41420
C         -1.12860        1.64990       -0.44630
C         -0.83420        1.53540        0.92410
C         -1.85960        1.75830        1.95000
C         -2.69510        2.87060        1.89350
C         -3.63520        3.07820        2.88830
C         -3.73460        2.20620        3.95450
C         -2.89150        1.10020        4.02450
S         -3.05400        0.05210        5.43840
C         -1.45450       -0.83410        5.52040
C         -1.48770       -2.18190        4.82380
C         -1.97720        0.86660        3.01160
C          0.47360        1.21150        1.25360
S          1.08910        0.92230        2.86600
C         -2.39810        1.83600       -1.04170
C         -2.37420        1.89180       -2.40570
S         -0.73440        1.72380       -3.02550
C         -3.47500        1.98750       -3.32510
C         -3.26030        1.87240       -4.69160
C         -4.30210        1.80600       -5.60660
C         -5.62310        1.82510       -5.19590
C         -5.89160        2.07760       -3.81840
N         -7.15800        2.30620       -3.43030
C         -7.38960        2.51260       -2.16300
C         -6.34600        2.51980       -1.22190
N         -5.09980        2.37570       -1.58330
C         -4.82470        2.15070       -2.87980
C         -6.70550        1.63440       -6.12490
C         -7.81700        0.91130       -5.84580
C         -7.94070       -0.02850       -4.69410
O         -7.07310       -0.38590       -3.92820
C         -9.31500       -0.55880       -4.76870
C         -9.94140       -1.43550       -3.90370
C        -11.24580       -1.83860       -4.16290
C        -11.98720       -2.77800       -3.27020
C        -11.86030       -1.33090       -5.31100
F        -13.12230       -1.71750       -5.57180
C        -11.25290       -0.45940       -6.19880
C         -9.95200       -0.06570       -5.92020
C         -9.03800        0.82060       -6.63270
C         -9.30690        1.46260       -7.81030
C        -10.52190        1.34060       -8.51950
N        -11.48240        1.28130       -9.14420
C         -8.41780        2.31920       -8.49440
N         -7.75390        3.02340       -9.11200
H          6.11600       -1.68990        6.76250
H         11.33710       -2.78070        3.46790
H         14.38770       -3.35220        5.14280
H         13.85540       -4.94170        4.62580
H         13.62760       -3.54910        3.55280
H         10.75740       -4.09190        8.23060
H          6.81510       -1.29580        3.02920
H          5.14580       -0.35380        1.56330
H          1.17400        0.75270        6.64840
H          2.96250       -0.17000        8.21190
H          3.59830        0.47930        0.27580
H          3.57670        2.58890       -1.01410
H          5.34940        2.55210       -2.72820
H          5.02620        1.27200       -4.81560
H          0.83330       -1.39560       -5.27880
H          0.64690        0.35460       -5.58620
H          1.07280       -0.03410       -8.00990
H         -0.29460       -1.01910       -7.46960
H          1.29360       -1.75850       -7.70950
H          1.23640       -0.08100       -3.37860
H         -2.59100        3.58140        1.08800
H         -4.28370        3.94060        2.84130
H         -4.45140        2.37360        4.74350
H         -0.69200       -0.17530        5.10660
H         -1.27410       -0.96490        6.58790
H         -2.23630       -2.82450        5.28130
H         -0.51480       -2.66280        4.91020
H         -1.73020       -2.07730        3.76870
H         -1.35750       -0.01400        3.01790
H         -3.31360        1.89430       -0.48440
H         -2.24520        1.79150       -5.05300
H         -4.07780        1.66470       -6.65370
H         -8.41550        2.70510       -1.87960
H         -6.52830        2.68260       -0.16820
H         -6.59720        2.11480       -7.08840
H         -9.41400       -1.79760       -3.03420
H        -12.30470       -3.65660       -3.83080
H        -12.88690       -2.29900       -2.88490
H        -11.36570       -3.09180       -2.43690
H        -11.79990       -0.12230       -7.06370
