158

C         -6.00660       -8.81110        6.66350
C         -5.42170       -8.73790        7.89330
C         -5.51620       -9.87790        8.83930
O         -6.24570      -10.83980        8.75210
C         -4.49000       -9.60590        9.86950
C         -4.08530      -10.40480       10.92090
C         -3.07590       -9.96130       11.76850
C         -2.59280      -10.77040       12.92750
C         -2.51300       -8.71080       11.50540
F         -1.52320       -8.28220       12.31190
C         -2.90700       -7.88360       10.46630
C         -3.91580       -8.34320        9.63670
C         -4.59070       -7.72220        8.50000
C         -4.64800       -6.37390        8.25530
C         -3.86980       -5.41930        8.93890
N         -3.24100       -4.60600        9.44970
C         -5.56270       -5.78430        7.35860
N         -6.32840       -5.25770        6.68370
C         -5.71620       -8.05230        5.51000
S         -4.15480       -7.30430        5.23650
C         -4.71290       -6.63820        3.75460
C         -4.04960       -5.77750        2.85330
C         -4.76940       -5.30640        1.76000
Ge        -6.61140       -6.01170        1.85600
C         -7.89940       -4.55980        2.35010
C         -7.39410       -3.73450        3.52420
C         -7.10950       -7.18060        0.29960
C         -7.19860       -6.40190       -1.00390
C         -6.03150       -6.98840        3.46950
C         -6.57360       -7.80830        4.44580
C         -4.02600       -4.41950        0.98890
C         -2.74690       -4.21000        1.47390
S         -2.45020       -5.13840        2.91710
C         -1.76230       -3.31560        0.96700
C         -1.87230       -2.47870       -0.10840
C         -0.75220       -1.63150       -0.28790
C         -0.55820       -0.64800       -1.27400
C         -1.58220       -0.36060       -2.28600
C         -1.25170       -0.29330       -3.63650
C         -2.20520       -0.03530       -4.60080
C         -3.53780        0.16500       -4.24530
O         -4.55480        0.43440       -5.08430
C         -4.34670        0.44990       -6.48600
C         -4.27160       -0.95410       -7.07600
C         -3.86920        0.10170       -2.88030
C         -5.30560        0.29970       -2.49090
F         -5.50090        0.18510       -1.16520
F         -6.11970       -0.61290       -3.05510
F         -5.78750        1.50320       -2.83480
C         -2.90740       -0.14830       -1.91930
C          0.64070        0.04600       -1.23320
C          1.65500       -0.20730       -0.27550
C          1.47020       -1.20520        0.69790
C          2.51700       -1.51490        1.67930
C          2.23220       -1.61300        3.03810
C          3.21480       -1.91470        3.96000
C          4.52990       -2.12630        3.55000
O          5.56380       -2.42370        4.35420
C          5.34760       -2.59060        5.74620
C          6.68150       -2.97110        6.36630
C          4.81850       -2.02080        2.17810
C          3.82770       -1.72610        1.26070
C          6.23710       -2.23110        1.73470
F          7.08700       -1.34710        2.28930
F          6.38800       -2.09140        0.40510
F          6.70890       -3.45100        2.03440
C          0.25680       -1.87470        0.67940
S         -0.22600       -3.12960        1.78940
C          2.74110        0.69270       -0.40510
C          2.58050        1.60580       -1.40870
S          1.07040        1.38140       -2.26910
C          3.46590        2.66450       -1.76380
S          2.91520        4.00090       -2.73410
C          4.46320        4.74940       -2.60820
C          4.89800        5.99440       -3.11570
C          6.22660        6.35870       -2.84840
Ge         7.10330        4.92020       -1.81850
C          8.48290        3.93530       -2.88870
C          7.97340        3.57260       -4.27500
C          7.65690        5.45410        0.03540
C          7.87740        4.25320        0.94260
C          5.36320        3.98950       -1.86700
C          4.78950        2.81480       -1.39150
C          6.51730        7.60060       -3.36430
C          5.43840        8.21640       -4.01660
S          4.02350        7.18210       -3.98950
C          5.53850        9.49720       -4.56980
C          4.59520       10.28010       -5.19150
C          3.19550        9.91200       -5.42680
O          2.64540        8.85810       -5.15970
C          2.56680       11.08520       -6.06320
C          1.25590       11.24800       -6.46440
C          0.86380       12.45000       -7.04350
C         -0.53660       12.70000       -7.49910
C          1.83600       13.44060       -7.19020
F          1.46610       14.60870       -7.74930
C          3.15750       13.30140       -6.79680
C          3.52830       12.09710       -6.22070
C          4.80810       11.62070       -5.69650
C          5.97640       12.33970       -5.70240
C          6.09530       13.64790       -6.21650
N          6.26430       14.71040       -6.61740
C          7.22250       11.89840       -5.21230
N          8.27240       11.62230       -4.83530
H         -6.75210       -9.59170        6.54480
H         -4.55500      -11.36370       11.07870
H         -1.51780      -10.93050       12.85330
H         -3.09600      -11.73190       12.96430
H         -2.77680      -10.23650       13.85950
H         -2.42110       -6.93150       10.32820
H         -8.85650       -5.02060        2.59380
H         -8.05460       -3.92330        1.47890
H         -8.11340       -2.95810        3.77650
H         -6.44850       -3.25520        3.27680
H         -7.23980       -4.35610        4.40380
H         -6.36030       -7.96780        0.21780
H         -8.06400       -7.65770        0.51990
H         -7.95730       -5.62500       -0.93860
H         -6.24570       -5.92970       -1.23290
H         -7.45930       -7.06500       -1.82670
H         -7.58170       -8.18440        4.42880
H         -4.40480       -3.92740        0.11090
H         -2.72870       -2.46900       -0.75620
H         -0.23100       -0.46490       -3.94280
H         -1.90040        0.00720       -5.63350
H         -5.22410        0.97140       -6.87640
H         -3.45460        1.03550       -6.73610
H         -3.41470       -1.49900       -6.68730
H         -4.18860       -0.89080       -8.15720
H         -5.17320       -1.50560       -6.82210
H         -3.18740       -0.15650       -0.87710
H          1.22690       -1.43230        3.38650
H          2.95260       -1.97940        5.00320
H          4.60570       -3.38180        5.91530
H          4.97510       -1.65340        6.18040
H          7.41140       -2.18790        6.18230
H          6.56490       -3.11000        7.43700
H          7.04550       -3.89300        5.92160
H          4.07170       -1.68230        0.21030
H          3.58740        0.69510        0.25650
H          8.76310        3.03470       -2.34310
H          9.37170        4.56130       -2.96370
H          8.73840        3.03900       -4.83580
H          7.70220        4.46840       -4.83060
H          7.09270        2.93680       -4.20510
H          6.87870        6.09740        0.44540
H          8.56830        6.04690       -0.03460
H          8.66230        3.61020        0.55020
H          6.96560        3.66590        1.02760
H          8.16960        4.57770        1.93950
H          5.31610        2.08240       -0.80550
H          7.47600        8.08380       -3.28070
H          6.52740        9.92580       -4.45980
H          0.54800       10.44520       -6.32460
H         -1.16570       11.83600       -7.30680
H         -0.55070       12.92240       -8.56560
H         -0.95040       13.56580       -6.98300
H          3.84050       14.12070       -6.94750
