
  xtb     02112204533D
 energy: -342.113467520923 gnorm: 0.000598909315 xtb: 6.4.1 (unknown)
204222  0     0  0            999 V2000
   -4.9598   -1.9046    6.1341 C   0  0  0  0  0  0  0  0  0  0  0  0
   -5.7329   -3.0450    6.0258 C   0  0  0  0  0  0  0  0  0  0  0  0
   -6.3196   -3.5125    4.7657 C   0  0  0  0  0  0  0  0  0  0  0  0
   -6.1877   -3.0232    3.6558 O   0  0  0  0  0  0  0  0  0  0  0  0
   -7.2183   -4.6275    5.1348 C   0  0  0  0  0  0  0  0  0  0  0  0
   -8.0186   -5.3994    4.3191 C   0  0  0  0  0  0  0  0  0  0  0  0
   -8.7839   -6.4187    4.8780 C   0  0  0  0  0  0  0  0  0  0  0  0
   -9.6682   -7.2981    4.0543 C   0  0  0  0  0  0  0  0  0  0  0  0
   -8.7039   -6.6020    6.2576 C   0  0  0  0  0  0  0  0  0  0  0  0
   -9.4440   -7.5856    6.8083 F   0  0  0  0  0  0  0  0  0  0  0  0
   -7.9120   -5.8368    7.1001 C   0  0  0  0  0  0  0  0  0  0  0  0
   -7.1563   -4.8323    6.5225 C   0  0  0  0  0  0  0  0  0  0  0  0
   -6.2172   -3.8698    7.0948 C   0  0  0  0  0  0  0  0  0  0  0  0
   -5.7553   -3.8671    8.3884 C   0  0  0  0  0  0  0  0  0  0  0  0
   -6.1754   -4.7776    9.3746 C   0  0  0  0  0  0  0  0  0  0  0  0
   -6.4682   -5.5096   10.2104 N   0  0  0  0  0  0  0  0  0  0  0  0
   -4.7429   -3.0083    8.8587 C   0  0  0  0  0  0  0  0  0  0  0  0
   -3.9019   -2.3606    9.2982 N   0  0  0  0  0  0  0  0  0  0  0  0
   -4.1948   -1.3427    5.1134 C   0  0  0  0  0  0  0  0  0  0  0  0
   -3.6221   -1.9158    3.9566 C   0  0  0  0  0  0  0  0  0  0  0  0
   -3.5296   -3.2440    3.6638 N   0  0  0  0  0  0  0  0  0  0  0  0
   -3.3402   -3.6495    2.3243 C   0  0  0  0  0  0  0  0  0  0  0  0
   -4.1482   -3.1389    1.3148 C   0  0  0  0  0  0  0  0  0  0  0  0
   -3.9545   -3.5365    0.0071 C   0  0  0  0  0  0  0  0  0  0  0  0
   -2.9613   -4.4509   -0.3222 C   0  0  0  0  0  0  0  0  0  0  0  0
   -2.7310   -4.8587   -1.7445 C   0  0  0  0  0  0  0  0  0  0  0  0
   -2.1726   -4.9700    0.6988 C   0  0  0  0  0  0  0  0  0  0  0  0
   -2.3546   -4.5791    2.0104 C   0  0  0  0  0  0  0  0  0  0  0  0
   -3.5817   -4.2483    4.6420 C   0  0  0  0  0  0  0  0  0  0  0  0
   -4.2760   -5.4275    4.3823 C   0  0  0  0  0  0  0  0  0  0  0  0
   -4.3653   -6.4104    5.3506 C   0  0  0  0  0  0  0  0  0  0  0  0
   -3.7640   -6.2515    6.5916 C   0  0  0  0  0  0  0  0  0  0  0  0
   -3.8957   -7.2903    7.6598 C   0  0  0  0  0  0  0  0  0  0  0  0
   -3.0341   -5.0876    6.8259 C   0  0  0  0  0  0  0  0  0  0  0  0
   -2.9407   -4.0979    5.8709 C   0  0  0  0  0  0  0  0  0  0  0  0
   -3.0193   -0.9134    3.1631 C   0  0  0  0  0  0  0  0  0  0  0  0
   -2.1242   -0.9538    1.6886 S   0  0  0  0  0  0  0  0  0  0  0  0
   -1.8685    0.7855    1.7662 C   0  0  0  0  0  0  0  0  0  0  0  0
   -2.3901    1.3503    2.9205 C   0  0  0  0  0  0  0  0  0  0  0  0
   -2.2317    2.6670    3.2987 N   0  0  0  0  0  0  0  0  0  0  0  0
   -3.1024    3.2601    4.2316 C   0  0  0  0  0  0  0  0  0  0  0  0
   -2.5970    4.0973    5.2243 C   0  0  0  0  0  0  0  0  0  0  0  0
   -3.4480    4.6843    6.1376 C   0  0  0  0  0  0  0  0  0  0  0  0
   -4.8191    4.4536    6.0976 C   0  0  0  0  0  0  0  0  0  0  0  0
   -5.7282    5.0719    7.1144 C   0  0  0  0  0  0  0  0  0  0  0  0
   -5.3140    3.6170    5.1073 C   0  0  0  0  0  0  0  0  0  0  0  0
   -4.4725    3.0258    4.1844 C   0  0  0  0  0  0  0  0  0  0  0  0
   -1.0986    3.3889    2.8876 C   0  0  0  0  0  0  0  0  0  0  0  0
   -1.2205    4.7332    2.5493 C   0  0  0  0  0  0  0  0  0  0  0  0
   -0.1122    5.4520    2.1457 C   0  0  0  0  0  0  0  0  0  0  0  0
    1.1383    4.8515    2.0488 C   0  0  0  0  0  0  0  0  0  0  0  0
    2.3224    5.6199    1.5463 C   0  0  0  0  0  0  0  0  0  0  0  0
    1.2536    3.5154    2.4103 C   0  0  0  0  0  0  0  0  0  0  0  0
    0.1580    2.7919    2.8362 C   0  0  0  0  0  0  0  0  0  0  0  0
   -3.0569    0.3676    3.6982 C   0  0  0  0  0  0  0  0  0  0  0  0
   -3.8275    0.3854    5.2422 S   0  0  0  0  0  0  0  0  0  0  0  0
   -1.1072    1.3575    0.6874 C   0  0  0  0  0  0  0  0  0  0  0  0
   -1.4354    2.3328   -0.2384 C   0  0  0  0  0  0  0  0  0  0  0  0
   -2.6276    3.0274   -0.2983 N   0  0  0  0  0  0  0  0  0  0  0  0
   -3.8263    2.4795    0.1856 C   0  0  0  0  0  0  0  0  0  0  0  0
   -4.7610    3.3146    0.7979 C   0  0  0  0  0  0  0  0  0  0  0  0
   -5.9428    2.8003    1.2799 C   0  0  0  0  0  0  0  0  0  0  0  0
   -6.2100    1.4332    1.1951 C   0  0  0  0  0  0  0  0  0  0  0  0
   -7.7251    0.8948    1.9216 S   0  0  0  0  0  0  0  0  0  0  0  0
   -7.7273   -0.9064    1.7148 C   0  0  0  0  0  0  0  0  0  0  0  0
   -5.2945    0.6035    0.5632 C   0  0  0  0  0  0  0  0  0  0  0  0
   -4.1239    1.1273    0.0459 C   0  0  0  0  0  0  0  0  0  0  0  0
   -2.6850    4.2609   -0.9687 C   0  0  0  0  0  0  0  0  0  0  0  0
   -3.7617    4.5537   -1.8080 C   0  0  0  0  0  0  0  0  0  0  0  0
   -3.8163    5.7558   -2.4743 C   0  0  0  0  0  0  0  0  0  0  0  0
   -2.7976    6.6964   -2.3258 C   0  0  0  0  0  0  0  0  0  0  0  0
   -2.9745    8.1961   -3.2401 S   0  0  0  0  0  0  0  0  0  0  0  0
   -1.3929    9.0499   -2.9837 C   0  0  0  0  0  0  0  0  0  0  0  0
   -1.7310    6.4149   -1.4856 C   0  0  0  0  0  0  0  0  0  0  0  0
   -1.6767    5.2070   -0.8158 C   0  0  0  0  0  0  0  0  0  0  0  0
   -0.3901    2.4895   -1.1904 C   0  0  0  0  0  0  0  0  0  0  0  0
   -0.2010    3.4361   -2.6285 S   0  0  0  0  0  0  0  0  0  0  0  0
    1.3650    2.7090   -2.9326 C   0  0  0  0  0  0  0  0  0  0  0  0
    1.6914    1.7375   -2.0025 C   0  0  0  0  0  0  0  0  0  0  0  0
    2.7964    0.8983   -2.0550 N   0  0  0  0  0  0  0  0  0  0  0  0
    3.4254    0.5349   -0.8575 C   0  0  0  0  0  0  0  0  0  0  0  0
    3.5481    1.4528    0.1815 C   0  0  0  0  0  0  0  0  0  0  0  0
    4.1592    1.0972    1.3684 C   0  0  0  0  0  0  0  0  0  0  0  0
    4.6579   -0.1862    1.5369 C   0  0  0  0  0  0  0  0  0  0  0  0
    5.4542   -0.7559    3.0059 S   0  0  0  0  0  0  0  0  0  0  0  0
    5.2427    0.6157    4.1770 C   0  0  0  0  0  0  0  0  0  0  0  0
    4.5468   -1.1049    0.4940 C   0  0  0  0  0  0  0  0  0  0  0  0
    3.9383   -0.7518   -0.6880 C   0  0  0  0  0  0  0  0  0  0  0  0
    3.2911    0.4349   -3.2831 C   0  0  0  0  0  0  0  0  0  0  0  0
    2.4198    0.1257   -4.3244 C   0  0  0  0  0  0  0  0  0  0  0  0
    2.9011   -0.2299   -5.5685 C   0  0  0  0  0  0  0  0  0  0  0  0
    4.2695   -0.2949   -5.7930 C   0  0  0  0  0  0  0  0  0  0  0  0
    4.9978   -0.6825   -7.3533 S   0  0  0  0  0  0  0  0  0  0  0  0
    3.5823   -0.6607   -8.4955 C   0  0  0  0  0  0  0  0  0  0  0  0
    5.1474   -0.0471   -4.7394 C   0  0  0  0  0  0  0  0  0  0  0  0
    4.6655    0.3115   -3.4999 C   0  0  0  0  0  0  0  0  0  0  0  0
    0.6843    1.6369   -1.0082 C   0  0  0  0  0  0  0  0  0  0  0  0
    0.4501    0.5992    0.3460 S   0  0  0  0  0  0  0  0  0  0  0  0
    2.1475    3.0473   -4.1008 C   0  0  0  0  0  0  0  0  0  0  0  0
    3.5460    3.1065   -3.9827 C   0  0  0  0  0  0  0  0  0  0  0  0
    4.2996    3.1256   -5.1274 C   0  0  0  0  0  0  0  0  0  0  0  0
    5.7736    2.9945   -5.2619 C   0  0  0  0  0  0  0  0  0  0  0  0
    6.6060    3.0660   -4.3909 O   0  0  0  0  0  0  0  0  0  0  0  0
    5.9771    2.7453   -6.7120 C   0  0  0  0  0  0  0  0  0  0  0  0
    4.7464    2.8787   -7.3891 C   0  0  0  0  0  0  0  0  0  0  0  0
    3.7022    3.1158   -6.4035 C   0  0  0  0  0  0  0  0  0  0  0  0
    2.3271    3.2183   -6.5153 C   0  0  0  0  0  0  0  0  0  0  0  0
    1.5608    3.1844   -5.3593 C   0  0  0  0  0  0  0  0  0  0  0  0
    4.6960    2.6989   -8.7604 C   0  0  0  0  0  0  0  0  0  0  0  0
    5.8480    2.3000   -9.4183 C   0  0  0  0  0  0  0  0  0  0  0  0
    7.0435    2.0551   -8.7312 C   0  0  0  0  0  0  0  0  0  0  0  0
    7.1187    2.3462   -7.3588 C   0  0  0  0  0  0  0  0  0  0  0  0
    8.1594    1.5029   -9.4555 C   0  0  0  0  0  0  0  0  0  0  0  0
    9.0483    0.5899   -8.9896 C   0  0  0  0  0  0  0  0  0  0  0  0
    8.8967   -0.2262   -7.7476 C   0  0  0  0  0  0  0  0  0  0  0  0
    8.1000   -0.0963   -6.8474 O   0  0  0  0  0  0  0  0  0  0  0  0
    9.9056   -1.2975   -7.8649 C   0  0  0  0  0  0  0  0  0  0  0  0
   10.1326   -2.3472   -6.9955 C   0  0  0  0  0  0  0  0  0  0  0  0
   11.1436   -3.2588   -7.2746 C   0  0  0  0  0  0  0  0  0  0  0  0
   11.4513   -4.4128   -6.3788 C   0  0  0  0  0  0  0  0  0  0  0  0
   11.8847   -3.0621   -8.4432 C   0  0  0  0  0  0  0  0  0  0  0  0
   12.8614   -3.9435   -8.7246 F   0  0  0  0  0  0  0  0  0  0  0  0
   11.6768   -2.0206   -9.3315 C   0  0  0  0  0  0  0  0  0  0  0  0
   10.6651   -1.1196   -9.0329 C   0  0  0  0  0  0  0  0  0  0  0  0
   10.1867    0.0652   -9.7332 C   0  0  0  0  0  0  0  0  0  0  0  0
   10.7541    0.6174  -10.8488 C   0  0  0  0  0  0  0  0  0  0  0  0
   10.3204    1.8025  -11.4819 C   0  0  0  0  0  0  0  0  0  0  0  0
   10.0363    2.7600  -12.0481 N   0  0  0  0  0  0  0  0  0  0  0  0
   11.8794    0.0795  -11.5102 C   0  0  0  0  0  0  0  0  0  0  0  0
   12.7874   -0.3115  -12.0925 N   0  0  0  0  0  0  0  0  0  0  0  0
   -4.9732   -1.3577    7.0693 H   0  0  0  0  0  0  0  0  0  0  0  0
   -8.0428   -5.2148    3.2555 H   0  0  0  0  0  0  0  0  0  0  0  0
   -9.3928   -8.3435    4.1892 H   0  0  0  0  0  0  0  0  0  0  0  0
  -10.7044   -7.1931    4.3747 H   0  0  0  0  0  0  0  0  0  0  0  0
   -9.5949   -7.0426    3.0012 H   0  0  0  0  0  0  0  0  0  0  0  0
   -7.9144   -6.0393    8.1584 H   0  0  0  0  0  0  0  0  0  0  0  0
   -4.9383   -2.4558    1.5805 H   0  0  0  0  0  0  0  0  0  0  0  0
   -4.5891   -3.1366   -0.7709 H   0  0  0  0  0  0  0  0  0  0  0  0
   -3.6230   -4.6998   -2.3455 H   0  0  0  0  0  0  0  0  0  0  0  0
   -2.4441   -5.9060   -1.8063 H   0  0  0  0  0  0  0  0  0  0  0  0
   -1.9229   -4.2647   -2.1727 H   0  0  0  0  0  0  0  0  0  0  0  0
   -1.4003   -5.6871    0.4617 H   0  0  0  0  0  0  0  0  0  0  0  0
   -1.7340   -4.9855    2.7955 H   0  0  0  0  0  0  0  0  0  0  0  0
   -4.7526   -5.5627    3.4228 H   0  0  0  0  0  0  0  0  0  0  0  0
   -4.9240   -7.3104    5.1384 H   0  0  0  0  0  0  0  0  0  0  0  0
   -4.5444   -6.9298    8.4588 H   0  0  0  0  0  0  0  0  0  0  0  0
   -2.9257   -7.5128    8.1003 H   0  0  0  0  0  0  0  0  0  0  0  0
   -4.3225   -8.2072    7.2620 H   0  0  0  0  0  0  0  0  0  0  0  0
   -2.5366   -4.9544    7.7753 H   0  0  0  0  0  0  0  0  0  0  0  0
   -2.3720   -3.2035    6.0759 H   0  0  0  0  0  0  0  0  0  0  0  0
   -1.5340    4.2816    5.2783 H   0  0  0  0  0  0  0  0  0  0  0  0
   -3.0390    5.3276    6.9033 H   0  0  0  0  0  0  0  0  0  0  0  0
   -5.7227    4.4759    8.0276 H   0  0  0  0  0  0  0  0  0  0  0  0
   -5.3992    6.0770    7.3696 H   0  0  0  0  0  0  0  0  0  0  0  0
   -6.7501    5.1161    6.7460 H   0  0  0  0  0  0  0  0  0  0  0  0
   -6.3747    3.4207    5.0499 H   0  0  0  0  0  0  0  0  0  0  0  0
   -4.8799    2.3903    3.4157 H   0  0  0  0  0  0  0  0  0  0  0  0
   -2.1888    5.2082    2.6036 H   0  0  0  0  0  0  0  0  0  0  0  0
   -0.2235    6.4964    1.8903 H   0  0  0  0  0  0  0  0  0  0  0  0
    3.2512    5.1901    1.9140 H   0  0  0  0  0  0  0  0  0  0  0  0
    2.3484    5.5958    0.4553 H   0  0  0  0  0  0  0  0  0  0  0  0
    2.2695    6.6614    1.8556 H   0  0  0  0  0  0  0  0  0  0  0  0
    2.2171    3.0310    2.3682 H   0  0  0  0  0  0  0  0  0  0  0  0
    0.2770    1.7627    3.1405 H   0  0  0  0  0  0  0  0  0  0  0  0
   -4.5506    4.3687    0.8962 H   0  0  0  0  0  0  0  0  0  0  0  0
   -6.6657    3.4475    1.7525 H   0  0  0  0  0  0  0  0  0  0  0  0
   -6.9437   -1.3613    2.3143 H   0  0  0  0  0  0  0  0  0  0  0  0
   -7.6332   -1.1617    0.6635 H   0  0  0  0  0  0  0  0  0  0  0  0
   -8.6950   -1.2339    2.0832 H   0  0  0  0  0  0  0  0  0  0  0  0
   -5.4827   -0.4520    0.4547 H   0  0  0  0  0  0  0  0  0  0  0  0
   -3.4402    0.4769   -0.4787 H   0  0  0  0  0  0  0  0  0  0  0  0
   -4.5504    3.8279   -1.9381 H   0  0  0  0  0  0  0  0  0  0  0  0
   -4.6448    5.9793   -3.1287 H   0  0  0  0  0  0  0  0  0  0  0  0
   -0.5741    8.4071   -3.2933 H   0  0  0  0  0  0  0  0  0  0  0  0
   -1.2916    9.3487   -1.9443 H   0  0  0  0  0  0  0  0  0  0  0  0
   -1.4309    9.9314   -3.6161 H   0  0  0  0  0  0  0  0  0  0  0  0
   -0.9332    7.1245   -1.3378 H   0  0  0  0  0  0  0  0  0  0  0  0
   -0.8482    4.9999   -0.1569 H   0  0  0  0  0  0  0  0  0  0  0  0
    3.1691    2.4567    0.0541 H   0  0  0  0  0  0  0  0  0  0  0  0
    4.2556    1.8346    2.1493 H   0  0  0  0  0  0  0  0  0  0  0  0
    5.6491    0.2602    5.1188 H   0  0  0  0  0  0  0  0  0  0  0  0
    4.1869    0.8424    4.2932 H   0  0  0  0  0  0  0  0  0  0  0  0
    5.8018    1.4850    3.8425 H   0  0  0  0  0  0  0  0  0  0  0  0
    4.9389   -2.1011    0.6298 H   0  0  0  0  0  0  0  0  0  0  0  0
    3.8488   -1.4699   -1.4890 H   0  0  0  0  0  0  0  0  0  0  0  0
    1.3533    0.1784   -4.1623 H   0  0  0  0  0  0  0  0  0  0  0  0
    2.1954   -0.4543   -6.3518 H   0  0  0  0  0  0  0  0  0  0  0  0
    3.0586    0.2864   -8.4092 H   0  0  0  0  0  0  0  0  0  0  0  0
    2.9209   -1.4983   -8.2946 H   0  0  0  0  0  0  0  0  0  0  0  0
    4.0068   -0.7604   -9.4894 H   0  0  0  0  0  0  0  0  0  0  0  0
    6.2092   -0.1130   -4.9196 H   0  0  0  0  0  0  0  0  0  0  0  0
    5.3567    0.5332   -2.7012 H   0  0  0  0  0  0  0  0  0  0  0  0
    4.0216    3.0998   -3.0143 H   0  0  0  0  0  0  0  0  0  0  0  0
    1.8465    3.2683   -7.4811 H   0  0  0  0  0  0  0  0  0  0  0  0
    0.4825    3.1970   -5.4291 H   0  0  0  0  0  0  0  0  0  0  0  0
    3.7769    2.8413   -9.3096 H   0  0  0  0  0  0  0  0  0  0  0  0
    5.8145    2.1181  -10.4832 H   0  0  0  0  0  0  0  0  0  0  0  0
    8.0478    2.2667   -6.8200 H   0  0  0  0  0  0  0  0  0  0  0  0
    8.2376    1.8108  -10.4917 H   0  0  0  0  0  0  0  0  0  0  0  0
    9.5253   -2.4479   -6.1090 H   0  0  0  0  0  0  0  0  0  0  0  0
   11.3701   -5.3489   -6.9303 H   0  0  0  0  0  0  0  0  0  0  0  0
   12.4754   -4.3415   -6.0135 H   0  0  0  0  0  0  0  0  0  0  0  0
   10.7720   -4.4366   -5.5320 H   0  0  0  0  0  0  0  0  0  0  0  0
   12.2927   -1.9467  -10.2125 H   0  0  0  0  0  0  0  0  0  0  0  0
  1  2  2  0  0  0  0
  2  3  1  0  0  0  0
  3  4  2  0  0  0  0
  3  5  1  0  0  0  0
  5  6  2  0  0  0  0
  6  7  1  0  0  0  0
  7  8  1  0  0  0  0
  7  9  2  0  0  0  0
  9 10  1  0  0  0  0
  9 11  1  0  0  0  0
 11 12  2  0  0  0  0
 12 13  1  0  0  0  0
 13 14  2  0  0  0  0
 14 15  1  0  0  0  0
 15 16  3  0  0  0  0
 14 17  1  0  0  0  0
 17 18  3  0  0  0  0
  1 19  1  0  0  0  0
 19 20  2  0  0  0  0
 20 21  1  0  0  0  0
 21 22  1  0  0  0  0
 22 23  2  0  0  0  0
 23 24  1  0  0  0  0
 24 25  2  0  0  0  0
 25 26  1  0  0  0  0
 25 27  1  0  0  0  0
 27 28  2  0  0  0  0
 21 29  1  0  0  0  0
 29 30  2  0  0  0  0
 30 31  1  0  0  0  0
 31 32  2  0  0  0  0
 32 33  1  0  0  0  0
 32 34  1  0  0  0  0
 34 35  2  0  0  0  0
 20 36  1  0  0  0  0
 36 37  1  0  0  0  0
 37 38  1  0  0  0  0
 38 39  2  0  0  0  0
 39 40  1  0  0  0  0
 40 41  1  0  0  0  0
 41 42  2  0  0  0  0
 42 43  1  0  0  0  0
 43 44  2  0  0  0  0
 44 45  1  0  0  0  0
 44 46  1  0  0  0  0
 46 47  2  0  0  0  0
 40 48  1  0  0  0  0
 48 49  2  0  0  0  0
 49 50  1  0  0  0  0
 50 51  2  0  0  0  0
 51 52  1  0  0  0  0
 51 53  1  0  0  0  0
 53 54  2  0  0  0  0
 39 55  1  0  0  0  0
 55 56  1  0  0  0  0
 38 57  1  0  0  0  0
 57 58  2  0  0  0  0
 58 59  1  0  0  0  0
 59 60  1  0  0  0  0
 60 61  2  0  0  0  0
 61 62  1  0  0  0  0
 62 63  2  0  0  0  0
 63 64  1  0  0  0  0
 64 65  1  0  0  0  0
 63 66  1  0  0  0  0
 66 67  2  0  0  0  0
 59 68  1  0  0  0  0
 68 69  2  0  0  0  0
 69 70  1  0  0  0  0
 70 71  2  0  0  0  0
 71 72  1  0  0  0  0
 72 73  1  0  0  0  0
 71 74  1  0  0  0  0
 74 75  2  0  0  0  0
 58 76  1  0  0  0  0
 76 77  1  0  0  0  0
 77 78  1  0  0  0  0
 78 79  2  0  0  0  0
 79 80  1  0  0  0  0
 80 81  1  0  0  0  0
 81 82  2  0  0  0  0
 82 83  1  0  0  0  0
 83 84  2  0  0  0  0
 84 85  1  0  0  0  0
 85 86  1  0  0  0  0
 84 87  1  0  0  0  0
 87 88  2  0  0  0  0
 80 89  1  0  0  0  0
 89 90  2  0  0  0  0
 90 91  1  0  0  0  0
 91 92  2  0  0  0  0
 92 93  1  0  0  0  0
 93 94  1  0  0  0  0
 92 95  1  0  0  0  0
 95 96  2  0  0  0  0
 79 97  1  0  0  0  0
 97 98  1  0  0  0  0
 78 99  1  0  0  0  0
 99100  2  0  0  0  0
100101  1  0  0  0  0
101102  1  0  0  0  0
102103  2  0  0  0  0
102104  1  0  0  0  0
104105  2  0  0  0  0
105106  1  0  0  0  0
106107  1  0  0  0  0
107108  2  0  0  0  0
105109  1  0  0  0  0
109110  2  0  0  0  0
110111  1  0  0  0  0
111112  2  0  0  0  0
111113  1  0  0  0  0
113114  2  0  0  0  0
114115  1  0  0  0  0
115116  2  0  0  0  0
115117  1  0  0  0  0
117118  2  0  0  0  0
118119  1  0  0  0  0
119120  1  0  0  0  0
119121  2  0  0  0  0
121122  1  0  0  0  0
121123  1  0  0  0  0
123124  2  0  0  0  0
124125  1  0  0  0  0
125126  2  0  0  0  0
126127  1  0  0  0  0
127128  3  0  0  0  0
126129  1  0  0  0  0
129130  3  0  0  0  0
 13  2  1  0  0  0  0
 56 19  1  0  0  0  0
 98 57  1  0  0  0  0
108 99  1  0  0  0  0
125114  1  0  0  0  0
 12  5  1  0  0  0  0
 28 22  1  0  0  0  0
 35 29  1  0  0  0  0
 55 36  2  0  0  0  0
 67 60  1  0  0  0  0
 75 68  1  0  0  0  0
 97 76  2  0  0  0  0
106101  2  0  0  0  0
124117  1  0  0  0  0
 47 41  1  0  0  0  0
 54 48  1  0  0  0  0
 88 81  1  0  0  0  0
 96 89  1  0  0  0  0
112104  1  0  0  0  0
  1131  1  0  0  0  0
  6132  1  0  0  0  0
  8133  1  0  0  0  0
  8134  1  0  0  0  0
  8135  1  0  0  0  0
 11136  1  0  0  0  0
 23137  1  0  0  0  0
 24138  1  0  0  0  0
 26139  1  0  0  0  0
 26140  1  0  0  0  0
 26141  1  0  0  0  0
 27142  1  0  0  0  0
 28143  1  0  0  0  0
 30144  1  0  0  0  0
 31145  1  0  0  0  0
 33146  1  0  0  0  0
 33147  1  0  0  0  0
 33148  1  0  0  0  0
 34149  1  0  0  0  0
 35150  1  0  0  0  0
 42151  1  0  0  0  0
 43152  1  0  0  0  0
 45153  1  0  0  0  0
 45154  1  0  0  0  0
 45155  1  0  0  0  0
 46156  1  0  0  0  0
 47157  1  0  0  0  0
 49158  1  0  0  0  0
 50159  1  0  0  0  0
 52160  1  0  0  0  0
 52161  1  0  0  0  0
 52162  1  0  0  0  0
 53163  1  0  0  0  0
 54164  1  0  0  0  0
 61165  1  0  0  0  0
 62166  1  0  0  0  0
 65167  1  0  0  0  0
 65168  1  0  0  0  0
 65169  1  0  0  0  0
 66170  1  0  0  0  0
 67171  1  0  0  0  0
 69172  1  0  0  0  0
 70173  1  0  0  0  0
 73174  1  0  0  0  0
 73175  1  0  0  0  0
 73176  1  0  0  0  0
 74177  1  0  0  0  0
 75178  1  0  0  0  0
 82179  1  0  0  0  0
 83180  1  0  0  0  0
 86181  1  0  0  0  0
 86182  1  0  0  0  0
 86183  1  0  0  0  0
 87184  1  0  0  0  0
 88185  1  0  0  0  0
 90186  1  0  0  0  0
 91187  1  0  0  0  0
 94188  1  0  0  0  0
 94189  1  0  0  0  0
 94190  1  0  0  0  0
 95191  1  0  0  0  0
 96192  1  0  0  0  0
100193  1  0  0  0  0
107194  1  0  0  0  0
108195  1  0  0  0  0
109196  1  0  0  0  0
110197  1  0  0  0  0
112198  1  0  0  0  0
113199  1  0  0  0  0
118200  1  0  0  0  0
120201  1  0  0  0  0
120202  1  0  0  0  0
120203  1  0  0  0  0
123204  1  0  0  0  0
M  END
