
  xtb     02112209463D
 energy: -401.230041826029 gnorm: 0.000787742871 xtb: 6.4.1 (unknown)
244265  0     0  0            999 V2000
    5.9798    2.2044    5.8014 C   0  0  0  0  0  0  0  0  0  0  0  0
    6.6431    1.1378    6.3567 C   0  0  0  0  0  0  0  0  0  0  0  0
    7.4726    1.3260    7.5674 C   0  0  0  0  0  0  0  0  0  0  0  0
    7.7829    2.3733    8.0910 O   0  0  0  0  0  0  0  0  0  0  0  0
    7.7819   -0.0438    8.0375 C   0  0  0  0  0  0  0  0  0  0  0  0
    8.4345   -0.4385    9.1874 C   0  0  0  0  0  0  0  0  0  0  0  0
    8.5999   -1.7945    9.4496 C   0  0  0  0  0  0  0  0  0  0  0  0
    9.2901   -2.2911   10.6785 C   0  0  0  0  0  0  0  0  0  0  0  0
    8.1000   -2.6982    8.5120 C   0  0  0  0  0  0  0  0  0  0  0  0
    8.2438   -4.0151    8.7643 F   0  0  0  0  0  0  0  0  0  0  0  0
    7.4535   -2.3294    7.3437 C   0  0  0  0  0  0  0  0  0  0  0  0
    7.2850   -0.9758    7.1123 C   0  0  0  0  0  0  0  0  0  0  0  0
    6.6520   -0.2546    6.0109 C   0  0  0  0  0  0  0  0  0  0  0  0
    6.3473   -0.7859    4.7781 C   0  0  0  0  0  0  0  0  0  0  0  0
    6.0495   -0.0196    3.6386 C   0  0  0  0  0  0  0  0  0  0  0  0
    5.8386    0.5310    2.6511 N   0  0  0  0  0  0  0  0  0  0  0  0
    6.3758   -2.1592    4.4759 C   0  0  0  0  0  0  0  0  0  0  0  0
    6.3399   -3.2625    4.1568 N   0  0  0  0  0  0  0  0  0  0  0  0
    4.8323    2.2183    4.9990 C   0  0  0  0  0  0  0  0  0  0  0  0
    3.7969    1.2822    4.8031 C   0  0  0  0  0  0  0  0  0  0  0  0
    3.5794    0.1088    5.4744 N   0  0  0  0  0  0  0  0  0  0  0  0
    2.6767   -0.8306    4.8894 C   0  0  0  0  0  0  0  0  0  0  0  0
    3.0002   -1.4844    3.7058 C   0  0  0  0  0  0  0  0  0  0  0  0
    2.1034   -2.3689    3.1388 C   0  0  0  0  0  0  0  0  0  0  0  0
    0.8706   -2.6142    3.7318 C   0  0  0  0  0  0  0  0  0  0  0  0
   -0.1150   -3.5320    3.0793 C   0  0  0  0  0  0  0  0  0  0  0  0
    0.5667   -1.9718    4.9266 C   0  0  0  0  0  0  0  0  0  0  0  0
    1.4601   -1.0930    5.5079 C   0  0  0  0  0  0  0  0  0  0  0  0
    3.9609   -0.1518    6.7965 C   0  0  0  0  0  0  0  0  0  0  0  0
    4.1296    0.8581    7.7414 C   0  0  0  0  0  0  0  0  0  0  0  0
    4.5280    0.5475    9.0262 C   0  0  0  0  0  0  0  0  0  0  0  0
    4.7527   -0.7683    9.4147 C   0  0  0  0  0  0  0  0  0  0  0  0
    5.1973   -1.0886   10.8068 C   0  0  0  0  0  0  0  0  0  0  0  0
    4.5312   -1.7749    8.4819 C   0  0  0  0  0  0  0  0  0  0  0  0
    4.1469   -1.4779    7.1911 C   0  0  0  0  0  0  0  0  0  0  0  0
    2.9362    1.7232    3.7693 C   0  0  0  0  0  0  0  0  0  0  0  0
    1.5799    1.0162    2.9699 S   0  0  0  0  0  0  0  0  0  0  0  0
    1.5428    2.3366    1.8088 C   0  0  0  0  0  0  0  0  0  0  0  0
    2.4995    3.2932    2.0642 C   0  0  0  0  0  0  0  0  0  0  0  0
    2.6951    4.4298    1.2953 N   0  0  0  0  0  0  0  0  0  0  0  0
    2.9225    5.6585    1.9117 C   0  0  0  0  0  0  0  0  0  0  0  0
    3.6086    6.6765    1.2530 C   0  0  0  0  0  0  0  0  0  0  0  0
    3.8244    7.8887    1.8796 C   0  0  0  0  0  0  0  0  0  0  0  0
    3.3853    8.1195    3.1773 C   0  0  0  0  0  0  0  0  0  0  0  0
    3.6359    9.4262    3.8657 C   0  0  0  0  0  0  0  0  0  0  0  0
    2.7076    7.0968    3.8304 C   0  0  0  0  0  0  0  0  0  0  0  0
    2.4648    5.8897    3.2089 C   0  0  0  0  0  0  0  0  0  0  0  0
    2.8309    4.2541   -0.0968 C   0  0  0  0  0  0  0  0  0  0  0  0
    3.6978    3.2801   -0.5840 C   0  0  0  0  0  0  0  0  0  0  0  0
    3.8237    3.0833   -1.9456 C   0  0  0  0  0  0  0  0  0  0  0  0
    3.0906    3.8416   -2.8498 C   0  0  0  0  0  0  0  0  0  0  0  0
    3.2034    3.5985   -4.3229 C   0  0  0  0  0  0  0  0  0  0  0  0
    2.2359    4.8190   -2.3520 C   0  0  0  0  0  0  0  0  0  0  0  0
    2.1062    5.0311   -0.9933 C   0  0  0  0  0  0  0  0  0  0  0  0
    3.2709    2.9435    3.2040 C   0  0  0  0  0  0  0  0  0  0  0  0
    4.6197    3.6612    3.9919 S   0  0  0  0  0  0  0  0  0  0  0  0
    0.6560    2.0935    0.6965 C   0  0  0  0  0  0  0  0  0  0  0  0
   -0.7157    1.9692    0.7890 C   0  0  0  0  0  0  0  0  0  0  0  0
   -1.4381    2.5070    1.8509 N   0  0  0  0  0  0  0  0  0  0  0  0
   -2.3095    1.6889    2.5741 C   0  0  0  0  0  0  0  0  0  0  0  0
   -2.0288    0.3334    2.7479 C   0  0  0  0  0  0  0  0  0  0  0  0
   -2.8600   -0.4536    3.5124 C   0  0  0  0  0  0  0  0  0  0  0  0
   -3.9932    0.0894    4.1123 C   0  0  0  0  0  0  0  0  0  0  0  0
   -4.9551   -0.9944    5.1278 S   0  0  0  0  0  0  0  0  0  0  0  0
   -6.3200    0.0419    5.7211 C   0  0  0  0  0  0  0  0  0  0  0  0
   -4.3006    1.4267    3.9066 C   0  0  0  0  0  0  0  0  0  0  0  0
   -3.4665    2.2165    3.1413 C   0  0  0  0  0  0  0  0  0  0  0  0
   -1.1556    3.8183    2.2506 C   0  0  0  0  0  0  0  0  0  0  0  0
   -0.8272    4.7824    1.2998 C   0  0  0  0  0  0  0  0  0  0  0  0
   -0.5798    6.0894    1.6690 C   0  0  0  0  0  0  0  0  0  0  0  0
   -0.6604    6.4649    3.0020 C   0  0  0  0  0  0  0  0  0  0  0  0
   -0.4181    8.1140    3.5818 S   0  0  0  0  0  0  0  0  0  0  0  0
    0.1533    9.0151    2.1155 C   0  0  0  0  0  0  0  0  0  0  0  0
   -0.9656    5.5007    3.9602 C   0  0  0  0  0  0  0  0  0  0  0  0
   -1.2022    4.1943    3.5937 C   0  0  0  0  0  0  0  0  0  0  0  0
   -1.2553    1.2874   -0.3282 C   0  0  0  0  0  0  0  0  0  0  0  0
   -2.8194    0.7285   -0.8314 S   0  0  0  0  0  0  0  0  0  0  0  0
   -2.1256   -0.0153   -2.2667 C   0  0  0  0  0  0  0  0  0  0  0  0
   -0.7615    0.2039   -2.3539 C   0  0  0  0  0  0  0  0  0  0  0  0
    0.0960   -0.3270   -3.3401 N   0  0  0  0  0  0  0  0  0  0  0  0
    1.0521   -1.1808   -2.7400 C   0  0  0  0  0  0  0  0  0  0  0  0
    2.4093   -0.8808   -2.6974 C   0  0  0  0  0  0  0  0  0  0  0  0
    3.2690   -1.6430   -1.9285 C   0  0  0  0  0  0  0  0  0  0  0  0
    2.7806   -2.7083   -1.1834 C   0  0  0  0  0  0  0  0  0  0  0  0
    3.7777   -3.6764   -0.0896 S   0  0  0  0  0  0  0  0  0  0  0  0
    5.1499   -2.5631    0.3269 C   0  0  0  0  0  0  0  0  0  0  0  0
    1.4325   -3.0483   -1.2746 C   0  0  0  0  0  0  0  0  0  0  0  0
    0.5775   -2.2911   -2.0432 C   0  0  0  0  0  0  0  0  0  0  0  0
    0.3882    0.4229   -4.4770 C   0  0  0  0  0  0  0  0  0  0  0  0
   -0.1934    1.6695   -4.6902 C   0  0  0  0  0  0  0  0  0  0  0  0
    0.0569    2.3806   -5.8495 C   0  0  0  0  0  0  0  0  0  0  0  0
    0.9036    1.8599   -6.8161 C   0  0  0  0  0  0  0  0  0  0  0  0
    1.3225    2.6822   -8.3254 S   0  0  0  0  0  0  0  0  0  0  0  0
    0.5089    4.2983   -8.1811 C   0  0  0  0  0  0  0  0  0  0  0  0
    1.4794    0.6072   -6.6119 C   0  0  0  0  0  0  0  0  0  0  0  0
    1.2221   -0.1055   -5.4641 C   0  0  0  0  0  0  0  0  0  0  0  0
   -0.2813    0.9181   -1.2443 C   0  0  0  0  0  0  0  0  0  0  0  0
    1.3003    1.4213   -0.7882 S   0  0  0  0  0  0  0  0  0  0  0  0
   -2.8843   -0.7524   -3.2082 C   0  0  0  0  0  0  0  0  0  0  0  0
   -4.2190   -1.1340   -3.1635 C   0  0  0  0  0  0  0  0  0  0  0  0
   -5.0693   -0.9520   -2.0755 N   0  0  0  0  0  0  0  0  0  0  0  0
   -4.7760   -1.5997   -0.8666 C   0  0  0  0  0  0  0  0  0  0  0  0
   -5.4292   -1.2192    0.3047 C   0  0  0  0  0  0  0  0  0  0  0  0
   -5.2212   -1.9172    1.4768 C   0  0  0  0  0  0  0  0  0  0  0  0
   -4.3376   -2.9891    1.5310 C   0  0  0  0  0  0  0  0  0  0  0  0
   -4.1864   -3.8099    2.7747 C   0  0  0  0  0  0  0  0  0  0  0  0
   -3.6358   -3.3157    0.3782 C   0  0  0  0  0  0  0  0  0  0  0  0
   -3.8533   -2.6420   -0.8067 C   0  0  0  0  0  0  0  0  0  0  0  0
   -6.4005   -0.6375   -2.4175 C   0  0  0  0  0  0  0  0  0  0  0  0
   -7.4863   -1.3593   -1.9329 C   0  0  0  0  0  0  0  0  0  0  0  0
   -8.7629   -1.0532   -2.3583 C   0  0  0  0  0  0  0  0  0  0  0  0
   -8.9932   -0.0361   -3.2764 C   0  0  0  0  0  0  0  0  0  0  0  0
  -10.3764    0.2426   -3.7769 C   0  0  0  0  0  0  0  0  0  0  0  0
   -7.9043    0.6855   -3.7477 C   0  0  0  0  0  0  0  0  0  0  0  0
   -6.6232    0.3949   -3.3244 C   0  0  0  0  0  0  0  0  0  0  0  0
   -4.5940   -1.8303   -4.3346 C   0  0  0  0  0  0  0  0  0  0  0  0
   -6.0861   -2.4822   -4.9066 S   0  0  0  0  0  0  0  0  0  0  0  0
   -5.2550   -3.1691   -6.3086 C   0  0  0  0  0  0  0  0  0  0  0  0
   -3.8832   -2.8075   -6.3436 C   0  0  0  0  0  0  0  0  0  0  0  0
   -2.9747   -3.1600   -7.3057 N   0  0  0  0  0  0  0  0  0  0  0  0
   -3.2957   -3.2356   -8.6723 C   0  0  0  0  0  0  0  0  0  0  0  0
   -4.2258   -2.3638   -9.2334 C   0  0  0  0  0  0  0  0  0  0  0  0
   -4.5414   -2.4594  -10.5738 C   0  0  0  0  0  0  0  0  0  0  0  0
   -3.9298   -3.4035  -11.3904 C   0  0  0  0  0  0  0  0  0  0  0  0
   -4.2883   -3.5275  -12.8390 C   0  0  0  0  0  0  0  0  0  0  0  0
   -2.9794   -4.2469  -10.8272 C   0  0  0  0  0  0  0  0  0  0  0  0
   -2.6650   -4.1742   -9.4851 C   0  0  0  0  0  0  0  0  0  0  0  0
   -1.6346   -3.3447   -6.9045 C   0  0  0  0  0  0  0  0  0  0  0  0
   -1.3552   -4.0778   -5.7526 C   0  0  0  0  0  0  0  0  0  0  0  0
   -0.0531   -4.2276   -5.3241 C   0  0  0  0  0  0  0  0  0  0  0  0
    1.0032   -3.6735   -6.0390 C   0  0  0  0  0  0  0  0  0  0  0  0
    2.4098   -3.8466   -5.5535 C   0  0  0  0  0  0  0  0  0  0  0  0
    0.7170   -2.9725   -7.2037 C   0  0  0  0  0  0  0  0  0  0  0  0
   -0.5846   -2.7989   -7.6336 C   0  0  0  0  0  0  0  0  0  0  0  0
   -3.5407   -2.0464   -5.2140 C   0  0  0  0  0  0  0  0  0  0  0  0
   -2.0642   -1.3327   -4.6514 S   0  0  0  0  0  0  0  0  0  0  0  0
   -5.8320   -4.0724   -7.1976 C   0  0  0  0  0  0  0  0  0  0  0  0
   -7.1360   -4.4944   -7.3249 C   0  0  0  0  0  0  0  0  0  0  0  0
   -8.3124   -3.9614   -6.6187 C   0  0  0  0  0  0  0  0  0  0  0  0
   -8.3424   -3.1290   -5.7320 O   0  0  0  0  0  0  0  0  0  0  0  0
   -9.4728   -4.6357   -7.2324 C   0  0  0  0  0  0  0  0  0  0  0  0
  -10.8686   -4.6379   -7.0901 C   0  0  0  0  0  0  0  0  0  0  0  0
  -11.4402   -5.5129   -7.9725 C   0  0  0  0  0  0  0  0  0  0  0  0
  -13.1055   -5.8331   -8.1433 Cl  0  0  0  0  0  0  0  0  0  0  0  0
  -10.2882   -6.3459   -8.9883 S   0  0  0  0  0  0  0  0  0  0  0  0
   -9.0141   -5.4997   -8.2112 C   0  0  0  0  0  0  0  0  0  0  0  0
   -7.5767   -5.4742   -8.2949 C   0  0  0  0  0  0  0  0  0  0  0  0
   -6.8323   -6.2711   -9.1339 C   0  0  0  0  0  0  0  0  0  0  0  0
   -7.4651   -7.1320  -10.0519 C   0  0  0  0  0  0  0  0  0  0  0  0
   -7.9699   -7.8281  -10.8131 N   0  0  0  0  0  0  0  0  0  0  0  0
   -5.4311   -6.3635   -9.1554 C   0  0  0  0  0  0  0  0  0  0  0  0
   -4.2926   -6.5170   -9.2050 N   0  0  0  0  0  0  0  0  0  0  0  0
    6.3811    3.1795    6.0611 H   0  0  0  0  0  0  0  0  0  0  0  0
    8.8104    0.3042    9.8747 H   0  0  0  0  0  0  0  0  0  0  0  0
    8.6777   -3.0367   11.1837 H   0  0  0  0  0  0  0  0  0  0  0  0
   10.2305   -2.7725   10.4103 H   0  0  0  0  0  0  0  0  0  0  0  0
    9.4972   -1.4731   11.3622 H   0  0  0  0  0  0  0  0  0  0  0  0
    7.0920   -3.0901    6.6711 H   0  0  0  0  0  0  0  0  0  0  0  0
    3.9440   -1.2879    3.2224 H   0  0  0  0  0  0  0  0  0  0  0  0
    2.3655   -2.8735    2.2212 H   0  0  0  0  0  0  0  0  0  0  0  0
    0.3972   -4.3209    2.5333 H   0  0  0  0  0  0  0  0  0  0  0  0
   -0.7254   -2.9719    2.3690 H   0  0  0  0  0  0  0  0  0  0  0  0
   -0.7754   -3.9797    3.8185 H   0  0  0  0  0  0  0  0  0  0  0  0
   -0.3839   -2.1531    5.4064 H   0  0  0  0  0  0  0  0  0  0  0  0
    1.2164   -0.5948    6.4350 H   0  0  0  0  0  0  0  0  0  0  0  0
    3.9381    1.8860    7.4745 H   0  0  0  0  0  0  0  0  0  0  0  0
    4.6697    1.3456    9.7398 H   0  0  0  0  0  0  0  0  0  0  0  0
    4.3439   -1.0752   11.4854 H   0  0  0  0  0  0  0  0  0  0  0  0
    5.9160   -0.3518   11.1583 H   0  0  0  0  0  0  0  0  0  0  0  0
    5.6502   -2.0757   10.8506 H   0  0  0  0  0  0  0  0  0  0  0  0
    4.6774   -2.8069    8.7643 H   0  0  0  0  0  0  0  0  0  0  0  0
    4.0028   -2.2722    6.4734 H   0  0  0  0  0  0  0  0  0  0  0  0
    3.9781    6.5130    0.2516 H   0  0  0  0  0  0  0  0  0  0  0  0
    4.3546    8.6674    1.3494 H   0  0  0  0  0  0  0  0  0  0  0  0
    3.8653   10.2091    3.1465 H   0  0  0  0  0  0  0  0  0  0  0  0
    2.7673    9.7236    4.4500 H   0  0  0  0  0  0  0  0  0  0  0  0
    4.4814    9.3334    4.5480 H   0  0  0  0  0  0  0  0  0  0  0  0
    2.3477    7.2547    4.8361 H   0  0  0  0  0  0  0  0  0  0  0  0
    1.9015    5.1260    3.7238 H   0  0  0  0  0  0  0  0  0  0  0  0
    4.2714    2.6830    0.1099 H   0  0  0  0  0  0  0  0  0  0  0  0
    4.5031    2.3273   -2.3110 H   0  0  0  0  0  0  0  0  0  0  0  0
    4.1793    3.1919   -4.5770 H   0  0  0  0  0  0  0  0  0  0  0  0
    3.0500    4.5186   -4.8824 H   0  0  0  0  0  0  0  0  0  0  0  0
    2.4461    2.8807   -4.6408 H   0  0  0  0  0  0  0  0  0  0  0  0
    1.6597    5.4211   -3.0404 H   0  0  0  0  0  0  0  0  0  0  0  0
    1.4432    5.7949   -0.6156 H   0  0  0  0  0  0  0  0  0  0  0  0
   -1.1384   -0.0910    2.3076 H   0  0  0  0  0  0  0  0  0  0  0  0
   -2.6262   -1.4941    3.6674 H   0  0  0  0  0  0  0  0  0  0  0  0
   -5.9319    0.8680    6.3100 H   0  0  0  0  0  0  0  0  0  0  0  0
   -6.9253   -0.6053    6.3485 H   0  0  0  0  0  0  0  0  0  0  0  0
   -6.9100    0.3972    4.8810 H   0  0  0  0  0  0  0  0  0  0  0  0
   -5.1837    1.8714    4.3364 H   0  0  0  0  0  0  0  0  0  0  0  0
   -3.7076    3.2579    2.9889 H   0  0  0  0  0  0  0  0  0  0  0  0
   -0.7763    4.5057    0.2570 H   0  0  0  0  0  0  0  0  0  0  0  0
   -0.3414    6.8111    0.9043 H   0  0  0  0  0  0  0  0  0  0  0  0
    1.0523    8.5455    1.7266 H   0  0  0  0  0  0  0  0  0  0  0  0
    0.3821   10.0185    2.4606 H   0  0  0  0  0  0  0  0  0  0  0  0
   -0.6357    9.0556    1.3699 H   0  0  0  0  0  0  0  0  0  0  0  0
   -1.0096    5.7908    4.9990 H   0  0  0  0  0  0  0  0  0  0  0  0
   -1.4255    3.4540    4.3474 H   0  0  0  0  0  0  0  0  0  0  0  0
    2.7870   -0.0256   -3.2375 H   0  0  0  0  0  0  0  0  0  0  0  0
    4.3143   -1.3800   -1.8928 H   0  0  0  0  0  0  0  0  0  0  0  0
    4.7609   -1.5756    0.5568 H   0  0  0  0  0  0  0  0  0  0  0  0
    5.8664   -2.5227   -0.4885 H   0  0  0  0  0  0  0  0  0  0  0  0
    5.6205   -2.9922    1.2070 H   0  0  0  0  0  0  0  0  0  0  0  0
    1.0647   -3.8955   -0.7165 H   0  0  0  0  0  0  0  0  0  0  0  0
   -0.4741   -2.5310   -2.0876 H   0  0  0  0  0  0  0  0  0  0  0  0
   -0.8481    2.0929   -3.9428 H   0  0  0  0  0  0  0  0  0  0  0  0
   -0.4124    3.3430   -5.9766 H   0  0  0  0  0  0  0  0  0  0  0  0
    0.7888    4.8473   -9.0748 H   0  0  0  0  0  0  0  0  0  0  0  0
   -0.5696    4.1728   -8.1493 H   0  0  0  0  0  0  0  0  0  0  0  0
    0.8726    4.8181   -7.2995 H   0  0  0  0  0  0  0  0  0  0  0  0
    2.1297    0.2020   -7.3717 H   0  0  0  0  0  0  0  0  0  0  0  0
    1.6556   -1.0815   -5.3224 H   0  0  0  0  0  0  0  0  0  0  0  0
   -6.1173   -0.3876    0.2790 H   0  0  0  0  0  0  0  0  0  0  0  0
   -5.7615   -1.6322    2.3666 H   0  0  0  0  0  0  0  0  0  0  0  0
   -3.1810   -4.2172    2.8534 H   0  0  0  0  0  0  0  0  0  0  0  0
   -4.4101   -3.2237    3.6621 H   0  0  0  0  0  0  0  0  0  0  0  0
   -4.8832   -4.6487    2.7448 H   0  0  0  0  0  0  0  0  0  0  0  0
   -2.9288   -4.1333    0.3975 H   0  0  0  0  0  0  0  0  0  0  0  0
   -3.3265   -2.9486   -1.6987 H   0  0  0  0  0  0  0  0  0  0  0  0
   -7.3247   -2.1739   -1.2429 H   0  0  0  0  0  0  0  0  0  0  0  0
   -9.5959   -1.6317   -1.9862 H   0  0  0  0  0  0  0  0  0  0  0  0
  -11.1169    0.0562   -3.0022 H   0  0  0  0  0  0  0  0  0  0  0  0
  -10.4701    1.2713   -4.1174 H   0  0  0  0  0  0  0  0  0  0  0  0
  -10.5951   -0.4153   -4.6185 H   0  0  0  0  0  0  0  0  0  0  0  0
   -8.0599    1.4826   -4.4606 H   0  0  0  0  0  0  0  0  0  0  0  0
   -5.7808    0.9574   -3.7015 H   0  0  0  0  0  0  0  0  0  0  0  0
   -4.7039   -1.6194   -8.6134 H   0  0  0  0  0  0  0  0  0  0  0  0
   -5.2711   -1.7818  -10.9934 H   0  0  0  0  0  0  0  0  0  0  0  0
   -4.8311   -4.4571  -13.0104 H   0  0  0  0  0  0  0  0  0  0  0  0
   -3.3916   -3.5498  -13.4555 H   0  0  0  0  0  0  0  0  0  0  0  0
   -4.9149   -2.6992  -13.1596 H   0  0  0  0  0  0  0  0  0  0  0  0
   -2.4927   -4.9871  -11.4438 H   0  0  0  0  0  0  0  0  0  0  0  0
   -1.9428   -4.8517   -9.0577 H   0  0  0  0  0  0  0  0  0  0  0  0
   -2.1673   -4.5251   -5.1979 H   0  0  0  0  0  0  0  0  0  0  0  0
    0.1523   -4.7851   -4.4220 H   0  0  0  0  0  0  0  0  0  0  0  0
    2.7169   -4.8873   -5.6554 H   0  0  0  0  0  0  0  0  0  0  0  0
    3.1003   -3.2298   -6.1238 H   0  0  0  0  0  0  0  0  0  0  0  0
    2.4850   -3.5819   -4.4991 H   0  0  0  0  0  0  0  0  0  0  0  0
    1.5221   -2.5411   -7.7800 H   0  0  0  0  0  0  0  0  0  0  0  0
   -0.7925   -2.2323   -8.5287 H   0  0  0  0  0  0  0  0  0  0  0  0
   -5.1311   -4.5132   -7.8959 H   0  0  0  0  0  0  0  0  0  0  0  0
  -11.4196   -4.0422   -6.3872 H   0  0  0  0  0  0  0  0  0  0  0  0
  1  2  2  0  0  0  0
  2  3  1  0  0  0  0
  3  4  2  0  0  0  0
  3  5  1  0  0  0  0
  5  6  2  0  0  0  0
  6  7  1  0  0  0  0
  7  8  1  0  0  0  0
  7  9  2  0  0  0  0
  9 10  1  0  0  0  0
  9 11  1  0  0  0  0
 11 12  2  0  0  0  0
 12 13  1  0  0  0  0
 13 14  2  0  0  0  0
 14 15  1  0  0  0  0
 15 16  3  0  0  0  0
 14 17  1  0  0  0  0
 17 18  3  0  0  0  0
  1 19  1  0  0  0  0
 19 20  2  0  0  0  0
 20 21  1  0  0  0  0
 21 22  1  0  0  0  0
 22 23  2  0  0  0  0
 23 24  1  0  0  0  0
 24 25  2  0  0  0  0
 25 26  1  0  0  0  0
 25 27  1  0  0  0  0
 27 28  2  0  0  0  0
 21 29  1  0  0  0  0
 29 30  2  0  0  0  0
 30 31  1  0  0  0  0
 31 32  2  0  0  0  0
 32 33  1  0  0  0  0
 32 34  1  0  0  0  0
 34 35  2  0  0  0  0
 20 36  1  0  0  0  0
 36 37  1  0  0  0  0
 37 38  1  0  0  0  0
 38 39  2  0  0  0  0
 39 40  1  0  0  0  0
 40 41  1  0  0  0  0
 41 42  2  0  0  0  0
 42 43  1  0  0  0  0
 43 44  2  0  0  0  0
 44 45  1  0  0  0  0
 44 46  1  0  0  0  0
 46 47  2  0  0  0  0
 40 48  1  0  0  0  0
 48 49  2  0  0  0  0
 49 50  1  0  0  0  0
 50 51  2  0  0  0  0
 51 52  1  0  0  0  0
 51 53  1  0  0  0  0
 53 54  2  0  0  0  0
 39 55  1  0  0  0  0
 55 56  1  0  0  0  0
 38 57  1  0  0  0  0
 57 58  2  0  0  0  0
 58 59  1  0  0  0  0
 59 60  1  0  0  0  0
 60 61  2  0  0  0  0
 61 62  1  0  0  0  0
 62 63  2  0  0  0  0
 63 64  1  0  0  0  0
 64 65  1  0  0  0  0
 63 66  1  0  0  0  0
 66 67  2  0  0  0  0
 59 68  1  0  0  0  0
 68 69  2  0  0  0  0
 69 70  1  0  0  0  0
 70 71  2  0  0  0  0
 71 72  1  0  0  0  0
 72 73  1  0  0  0  0
 71 74  1  0  0  0  0
 74 75  2  0  0  0  0
 58 76  1  0  0  0  0
 76 77  1  0  0  0  0
 77 78  1  0  0  0  0
 78 79  2  0  0  0  0
 79 80  1  0  0  0  0
 80 81  1  0  0  0  0
 81 82  2  0  0  0  0
 82 83  1  0  0  0  0
 83 84  2  0  0  0  0
 84 85  1  0  0  0  0
 85 86  1  0  0  0  0
 84 87  1  0  0  0  0
 87 88  2  0  0  0  0
 80 89  1  0  0  0  0
 89 90  2  0  0  0  0
 90 91  1  0  0  0  0
 91 92  2  0  0  0  0
 92 93  1  0  0  0  0
 93 94  1  0  0  0  0
 92 95  1  0  0  0  0
 95 96  2  0  0  0  0
 79 97  1  0  0  0  0
 97 98  1  0  0  0  0
 78 99  1  0  0  0  0
 99100  2  0  0  0  0
100101  1  0  0  0  0
101102  1  0  0  0  0
102103  2  0  0  0  0
103104  1  0  0  0  0
104105  2  0  0  0  0
105106  1  0  0  0  0
105107  1  0  0  0  0
107108  2  0  0  0  0
101109  1  0  0  0  0
109110  2  0  0  0  0
110111  1  0  0  0  0
111112  2  0  0  0  0
112113  1  0  0  0  0
112114  1  0  0  0  0
114115  2  0  0  0  0
100116  1  0  0  0  0
116117  1  0  0  0  0
117118  1  0  0  0  0
118119  2  0  0  0  0
119120  1  0  0  0  0
120121  1  0  0  0  0
121122  2  0  0  0  0
122123  1  0  0  0  0
123124  2  0  0  0  0
124125  1  0  0  0  0
124126  1  0  0  0  0
126127  2  0  0  0  0
120128  1  0  0  0  0
128129  2  0  0  0  0
129130  1  0  0  0  0
130131  2  0  0  0  0
131132  1  0  0  0  0
131133  1  0  0  0  0
133134  2  0  0  0  0
119135  1  0  0  0  0
135136  1  0  0  0  0
118137  1  0  0  0  0
137138  2  0  0  0  0
138139  1  0  0  0  0
139140  2  0  0  0  0
139141  1  0  0  0  0
141142  1  0  0  0  0
142143  2  0  0  0  0
143144  1  0  0  0  0
143145  1  0  0  0  0
145146  1  0  0  0  0
146147  1  0  0  0  0
147148  2  0  0  0  0
148149  1  0  0  0  0
149150  3  0  0  0  0
148151  1  0  0  0  0
151152  3  0  0  0  0
 13  2  1  0  0  0  0
 56 19  1  0  0  0  0
 98 57  1  0  0  0  0
136 99  1  0  0  0  0
147138  1  0  0  0  0
 12  5  1  0  0  0  0
 28 22  1  0  0  0  0
 35 29  1  0  0  0  0
 55 36  2  0  0  0  0
 67 60  1  0  0  0  0
 75 68  1  0  0  0  0
 97 76  2  0  0  0  0
108102  1  0  0  0  0
115109  1  0  0  0  0
135116  2  0  0  0  0
146141  2  0  0  0  0
 47 41  1  0  0  0  0
 54 48  1  0  0  0  0
 88 81  1  0  0  0  0
 96 89  1  0  0  0  0
127121  1  0  0  0  0
134128  1  0  0  0  0
  1153  1  0  0  0  0
  6154  1  0  0  0  0
  8155  1  0  0  0  0
  8156  1  0  0  0  0
  8157  1  0  0  0  0
 11158  1  0  0  0  0
 23159  1  0  0  0  0
 24160  1  0  0  0  0
 26161  1  0  0  0  0
 26162  1  0  0  0  0
 26163  1  0  0  0  0
 27164  1  0  0  0  0
 28165  1  0  0  0  0
 30166  1  0  0  0  0
 31167  1  0  0  0  0
 33168  1  0  0  0  0
 33169  1  0  0  0  0
 33170  1  0  0  0  0
 34171  1  0  0  0  0
 35172  1  0  0  0  0
 42173  1  0  0  0  0
 43174  1  0  0  0  0
 45175  1  0  0  0  0
 45176  1  0  0  0  0
 45177  1  0  0  0  0
 46178  1  0  0  0  0
 47179  1  0  0  0  0
 49180  1  0  0  0  0
 50181  1  0  0  0  0
 52182  1  0  0  0  0
 52183  1  0  0  0  0
 52184  1  0  0  0  0
 53185  1  0  0  0  0
 54186  1  0  0  0  0
 61187  1  0  0  0  0
 62188  1  0  0  0  0
 65189  1  0  0  0  0
 65190  1  0  0  0  0
 65191  1  0  0  0  0
 66192  1  0  0  0  0
 67193  1  0  0  0  0
 69194  1  0  0  0  0
 70195  1  0  0  0  0
 73196  1  0  0  0  0
 73197  1  0  0  0  0
 73198  1  0  0  0  0
 74199  1  0  0  0  0
 75200  1  0  0  0  0
 82201  1  0  0  0  0
 83202  1  0  0  0  0
 86203  1  0  0  0  0
 86204  1  0  0  0  0
 86205  1  0  0  0  0
 87206  1  0  0  0  0
 88207  1  0  0  0  0
 90208  1  0  0  0  0
 91209  1  0  0  0  0
 94210  1  0  0  0  0
 94211  1  0  0  0  0
 94212  1  0  0  0  0
 95213  1  0  0  0  0
 96214  1  0  0  0  0
103215  1  0  0  0  0
104216  1  0  0  0  0
106217  1  0  0  0  0
106218  1  0  0  0  0
106219  1  0  0  0  0
107220  1  0  0  0  0
108221  1  0  0  0  0
110222  1  0  0  0  0
111223  1  0  0  0  0
113224  1  0  0  0  0
113225  1  0  0  0  0
113226  1  0  0  0  0
114227  1  0  0  0  0
115228  1  0  0  0  0
122229  1  0  0  0  0
123230  1  0  0  0  0
125231  1  0  0  0  0
125232  1  0  0  0  0
125233  1  0  0  0  0
126234  1  0  0  0  0
127235  1  0  0  0  0
129236  1  0  0  0  0
130237  1  0  0  0  0
132238  1  0  0  0  0
132239  1  0  0  0  0
132240  1  0  0  0  0
133241  1  0  0  0  0
134242  1  0  0  0  0
137243  1  0  0  0  0
142244  1  0  0  0  0
M  END
