
  xtb     02112210243D
 energy: -391.209354657992 gnorm: 0.000554172149 xtb: 6.4.1 (unknown)
232251  0     0  0            999 V2000
   -1.5364   -7.6775   -5.0937 C   0  0  0  0  0  0  0  0  0  0  0  0
   -1.4001   -8.0818   -6.4064 C   0  0  0  0  0  0  0  0  0  0  0  0
   -1.3119   -7.2080   -7.5753 C   0  0  0  0  0  0  0  0  0  0  0  0
   -1.2336   -5.9912   -7.6005 O   0  0  0  0  0  0  0  0  0  0  0  0
   -1.3569   -8.0998   -8.7524 C   0  0  0  0  0  0  0  0  0  0  0  0
   -1.3149   -7.7663  -10.0906 C   0  0  0  0  0  0  0  0  0  0  0  0
   -1.3774   -8.7738  -11.0479 C   0  0  0  0  0  0  0  0  0  0  0  0
   -1.3361   -8.4880  -12.5141 C   0  0  0  0  0  0  0  0  0  0  0  0
   -1.4808  -10.0880  -10.5925 C   0  0  0  0  0  0  0  0  0  0  0  0
   -1.5447  -11.0715  -11.5125 F   0  0  0  0  0  0  0  0  0  0  0  0
   -1.5208  -10.4493   -9.2547 C   0  0  0  0  0  0  0  0  0  0  0  0
   -1.4577   -9.4317   -8.3177 C   0  0  0  0  0  0  0  0  0  0  0  0
   -1.4533   -9.4503   -6.8547 C   0  0  0  0  0  0  0  0  0  0  0  0
   -1.4740  -10.5866   -6.0800 C   0  0  0  0  0  0  0  0  0  0  0  0
   -1.3221  -10.6282   -4.6817 C   0  0  0  0  0  0  0  0  0  0  0  0
   -1.1653  -10.7565   -3.5494 N   0  0  0  0  0  0  0  0  0  0  0  0
   -1.6209  -11.8887   -6.5962 C   0  0  0  0  0  0  0  0  0  0  0  0
   -1.7614  -12.9741   -6.9452 N   0  0  0  0  0  0  0  0  0  0  0  0
   -1.5336   -6.4073   -4.5312 C   0  0  0  0  0  0  0  0  0  0  0  0
   -1.7566   -6.1757   -3.1452 C   0  0  0  0  0  0  0  0  0  0  0  0
   -2.2128   -7.0892   -2.2371 N   0  0  0  0  0  0  0  0  0  0  0  0
   -1.9320   -6.8710   -0.8700 C   0  0  0  0  0  0  0  0  0  0  0  0
   -0.6246   -6.6273   -0.4559 C   0  0  0  0  0  0  0  0  0  0  0  0
   -0.3587   -6.3609    0.8719 C   0  0  0  0  0  0  0  0  0  0  0  0
   -1.3782   -6.3409    1.8176 C   0  0  0  0  0  0  0  0  0  0  0  0
   -1.0762   -6.0088    3.2464 C   0  0  0  0  0  0  0  0  0  0  0  0
   -2.6728   -6.6224    1.3987 C   0  0  0  0  0  0  0  0  0  0  0  0
   -2.9546   -6.8837    0.0717 C   0  0  0  0  0  0  0  0  0  0  0  0
   -3.1261   -8.1121   -2.5615 C   0  0  0  0  0  0  0  0  0  0  0  0
   -3.0402   -9.3379   -1.9076 C   0  0  0  0  0  0  0  0  0  0  0  0
   -3.9313  -10.3470   -2.2138 C   0  0  0  0  0  0  0  0  0  0  0  0
   -4.9167  -10.1673   -3.1772 C   0  0  0  0  0  0  0  0  0  0  0  0
   -5.8412  -11.2895   -3.5342 C   0  0  0  0  0  0  0  0  0  0  0  0
   -5.0083   -8.9309   -3.8065 C   0  0  0  0  0  0  0  0  0  0  0  0
   -4.1344   -7.9074   -3.4998 C   0  0  0  0  0  0  0  0  0  0  0  0
   -1.4636   -4.8453   -2.8144 C   0  0  0  0  0  0  0  0  0  0  0  0
   -1.5172   -3.9480   -1.3331 S   0  0  0  0  0  0  0  0  0  0  0  0
   -1.0578   -2.4846   -2.1855 C   0  0  0  0  0  0  0  0  0  0  0  0
   -0.9428   -2.6890   -3.5625 C   0  0  0  0  0  0  0  0  0  0  0  0
   -0.6802   -1.6851   -4.4839 N   0  0  0  0  0  0  0  0  0  0  0  0
   -1.4421   -0.5165   -4.4991 C   0  0  0  0  0  0  0  0  0  0  0  0
   -2.7441   -0.4998   -4.0041 C   0  0  0  0  0  0  0  0  0  0  0  0
   -3.4689    0.6761   -3.9934 C   0  0  0  0  0  0  0  0  0  0  0  0
   -2.9294    1.8617   -4.4748 C   0  0  0  0  0  0  0  0  0  0  0  0
   -3.7226    3.1329   -4.4788 C   0  0  0  0  0  0  0  0  0  0  0  0
   -1.6299    1.8370   -4.9710 C   0  0  0  0  0  0  0  0  0  0  0  0
   -0.8930    0.6726   -4.9826 C   0  0  0  0  0  0  0  0  0  0  0  0
    0.2651   -1.9491   -5.4905 C   0  0  0  0  0  0  0  0  0  0  0  0
    0.0277   -1.5941   -6.8135 C   0  0  0  0  0  0  0  0  0  0  0  0
    0.9763   -1.8611   -7.7806 C   0  0  0  0  0  0  0  0  0  0  0  0
    2.1725   -2.4889   -7.4601 C   0  0  0  0  0  0  0  0  0  0  0  0
    3.2173   -2.7471   -8.5004 C   0  0  0  0  0  0  0  0  0  0  0  0
    2.3939   -2.8520   -6.1366 C   0  0  0  0  0  0  0  0  0  0  0  0
    1.4572   -2.5865   -5.1600 C   0  0  0  0  0  0  0  0  0  0  0  0
   -1.1345   -4.0430   -3.9021 C   0  0  0  0  0  0  0  0  0  0  0  0
   -1.1265   -4.9148   -5.3947 S   0  0  0  0  0  0  0  0  0  0  0  0
   -0.6483   -1.3436   -1.4620 C   0  0  0  0  0  0  0  0  0  0  0  0
   -0.7609   -1.1027   -0.0902 C   0  0  0  0  0  0  0  0  0  0  0  0
   -1.5887   -1.7981    0.7760 N   0  0  0  0  0  0  0  0  0  0  0  0
   -2.9026   -2.1122    0.4156 C   0  0  0  0  0  0  0  0  0  0  0  0
   -3.5293   -3.2325    0.9684 C   0  0  0  0  0  0  0  0  0  0  0  0
   -4.8014   -3.5799    0.5794 C   0  0  0  0  0  0  0  0  0  0  0  0
   -5.4842   -2.8241   -0.3728 C   0  0  0  0  0  0  0  0  0  0  0  0
   -7.0980   -3.3891   -0.8137 S   0  0  0  0  0  0  0  0  0  0  0  0
   -7.6351   -2.2253   -2.0995 C   0  0  0  0  0  0  0  0  0  0  0  0
   -4.8745   -1.6992   -0.9099 C   0  0  0  0  0  0  0  0  0  0  0  0
   -3.5989   -1.3452   -0.5148 C   0  0  0  0  0  0  0  0  0  0  0  0
   -1.1451   -1.9845    2.0937 C   0  0  0  0  0  0  0  0  0  0  0  0
   -1.9933   -1.7686    3.1749 C   0  0  0  0  0  0  0  0  0  0  0  0
   -1.5332   -1.9011    4.4695 C   0  0  0  0  0  0  0  0  0  0  0  0
   -0.2076   -2.2396    4.7048 C   0  0  0  0  0  0  0  0  0  0  0  0
    0.4928   -2.4003    6.3154 S   0  0  0  0  0  0  0  0  0  0  0  0
   -0.7702   -1.6921    7.4093 C   0  0  0  0  0  0  0  0  0  0  0  0
    0.6393   -2.4837    3.6248 C   0  0  0  0  0  0  0  0  0  0  0  0
    0.1762   -2.3623    2.3340 C   0  0  0  0  0  0  0  0  0  0  0  0
    0.0596   -0.0252    0.3065 C   0  0  0  0  0  0  0  0  0  0  0  0
    0.3605    0.7802    1.8155 S   0  0  0  0  0  0  0  0  0  0  0  0
    1.4560    1.8862    1.0095 C   0  0  0  0  0  0  0  0  0  0  0  0
    1.4530    1.7366   -0.3805 C   0  0  0  0  0  0  0  0  0  0  0  0
    1.9311    2.6677   -1.2776 N   0  0  0  0  0  0  0  0  0  0  0  0
    1.8808    4.0286   -0.9250 C   0  0  0  0  0  0  0  0  0  0  0  0
    0.7960    4.5190   -0.2006 C   0  0  0  0  0  0  0  0  0  0  0  0
    0.8291    5.7812    0.3533 C   0  0  0  0  0  0  0  0  0  0  0  0
    1.9490    6.5863    0.1782 C   0  0  0  0  0  0  0  0  0  0  0  0
    2.1651    8.1374    0.9884 S   0  0  0  0  0  0  0  0  0  0  0  0
    0.8267    8.1667    2.2140 C   0  0  0  0  0  0  0  0  0  0  0  0
    2.9755    6.1494   -0.6578 C   0  0  0  0  0  0  0  0  0  0  0  0
    2.9442    4.8850   -1.2067 C   0  0  0  0  0  0  0  0  0  0  0  0
    2.3223    2.2513   -2.5539 C   0  0  0  0  0  0  0  0  0  0  0  0
    3.0426    1.0654   -2.7098 C   0  0  0  0  0  0  0  0  0  0  0  0
    3.3576    0.6060   -3.9682 C   0  0  0  0  0  0  0  0  0  0  0  0
    2.9720    1.3244   -5.0976 C   0  0  0  0  0  0  0  0  0  0  0  0
    3.4148    0.6364   -6.6610 S   0  0  0  0  0  0  0  0  0  0  0  0
    2.3161    1.4901   -7.8284 C   0  0  0  0  0  0  0  0  0  0  0  0
    2.2987    2.5302   -4.9444 C   0  0  0  0  0  0  0  0  0  0  0  0
    1.9737    2.9875   -3.6824 C   0  0  0  0  0  0  0  0  0  0  0  0
    0.7112    0.5962   -0.7502 C   0  0  0  0  0  0  0  0  0  0  0  0
    0.3638   -0.1503   -2.2651 S   0  0  0  0  0  0  0  0  0  0  0  0
    2.1631    2.8628    1.7672 C   0  0  0  0  0  0  0  0  0  0  0  0
    3.4003    3.3812    1.3929 C   0  0  0  0  0  0  0  0  0  0  0  0
    4.0772    2.8082    0.3791 F   0  0  0  0  0  0  0  0  0  0  0  0
    3.9862    4.4709    2.0345 C   0  0  0  0  0  0  0  0  0  0  0  0
    5.1046    4.9691    1.4943 F   0  0  0  0  0  0  0  0  0  0  0  0
    3.3742    5.1123    3.1064 C   0  0  0  0  0  0  0  0  0  0  0  0
    2.1280    4.5728    3.5411 C   0  0  0  0  0  0  0  0  0  0  0  0
    1.4296    5.2062    4.4896 N   0  0  0  0  0  0  0  0  0  0  0  0
    0.3148    4.6789    4.9456 C   0  0  0  0  0  0  0  0  0  0  0  0
   -0.4788    5.5348    5.8309 C   0  0  0  0  0  0  0  0  0  0  0  0
   -1.8733    5.5514    5.7735 C   0  0  0  0  0  0  0  0  0  0  0  0
   -2.5701    6.4363    6.5713 C   0  0  0  0  0  0  0  0  0  0  0  0
   -1.9124    7.3044    7.4289 C   0  0  0  0  0  0  0  0  0  0  0  0
   -0.5206    7.2954    7.4924 C   0  0  0  0  0  0  0  0  0  0  0  0
    0.2408    8.0656    8.3080 O   0  0  0  0  0  0  0  0  0  0  0  0
   -0.3209    9.2069    8.9275 C   0  0  0  0  0  0  0  0  0  0  0  0
   -0.6086   10.3233    7.9293 C   0  0  0  0  0  0  0  0  0  0  0  0
    0.1840    6.4073    6.6817 C   0  0  0  0  0  0  0  0  0  0  0  0
   -0.0812    3.3700    4.5256 C   0  0  0  0  0  0  0  0  0  0  0  0
    0.5175    2.8159    3.4943 N   0  0  0  0  0  0  0  0  0  0  0  0
    1.5824    3.4068    2.9486 C   0  0  0  0  0  0  0  0  0  0  0  0
   -1.1131    2.5894    5.2103 C   0  0  0  0  0  0  0  0  0  0  0  0
   -1.9889    1.7963    4.4783 C   0  0  0  0  0  0  0  0  0  0  0  0
   -2.9705    1.0794    5.1395 C   0  0  0  0  0  0  0  0  0  0  0  0
   -3.0634    1.1226    6.5152 C   0  0  0  0  0  0  0  0  0  0  0  0
   -2.1651    1.8909    7.2637 C   0  0  0  0  0  0  0  0  0  0  0  0
   -2.3207    1.8172    8.6112 O   0  0  0  0  0  0  0  0  0  0  0  0
   -1.5312    2.6278    9.4606 C   0  0  0  0  0  0  0  0  0  0  0  0
   -1.9927    4.0814    9.4846 C   0  0  0  0  0  0  0  0  0  0  0  0
   -1.1949    2.6305    6.6018 C   0  0  0  0  0  0  0  0  0  0  0  0
    3.8501    6.3080    3.7364 C   0  0  0  0  0  0  0  0  0  0  0  0
    5.1436    6.6438    3.9737 C   0  0  0  0  0  0  0  0  0  0  0  0
    6.2998    5.7073    3.9011 C   0  0  0  0  0  0  0  0  0  0  0  0
    6.2657    4.5065    3.7608 O   0  0  0  0  0  0  0  0  0  0  0  0
    7.4891    6.5335    4.1909 C   0  0  0  0  0  0  0  0  0  0  0  0
    8.8176    6.1568    4.1812 C   0  0  0  0  0  0  0  0  0  0  0  0
    9.7969    7.0953    4.4858 C   0  0  0  0  0  0  0  0  0  0  0  0
   11.2530    6.7642    4.4824 C   0  0  0  0  0  0  0  0  0  0  0  0
    9.3737    8.3888    4.8006 C   0  0  0  0  0  0  0  0  0  0  0  0
   10.3151    9.3048    5.0977 F   0  0  0  0  0  0  0  0  0  0  0  0
    8.0487    8.7894    4.8293 C   0  0  0  0  0  0  0  0  0  0  0  0
    7.0870    7.8398    4.5175 C   0  0  0  0  0  0  0  0  0  0  0  0
    5.6312    7.9242    4.4555 C   0  0  0  0  0  0  0  0  0  0  0  0
    4.8844    9.0206    4.7968 C   0  0  0  0  0  0  0  0  0  0  0  0
    5.4326   10.2354    5.2621 C   0  0  0  0  0  0  0  0  0  0  0  0
    5.8076   11.2477    5.6525 N   0  0  0  0  0  0  0  0  0  0  0  0
    3.4778    9.1116    4.7751 C   0  0  0  0  0  0  0  0  0  0  0  0
    2.3440    9.2962    4.8058 N   0  0  0  0  0  0  0  0  0  0  0  0
   -1.6786   -8.4739   -4.3747 H   0  0  0  0  0  0  0  0  0  0  0  0
   -1.2330   -6.7305  -10.3835 H   0  0  0  0  0  0  0  0  0  0  0  0
   -1.2640   -7.4198  -12.6970 H   0  0  0  0  0  0  0  0  0  0  0  0
   -2.2325   -8.8741  -12.9984 H   0  0  0  0  0  0  0  0  0  0  0  0
   -0.4814   -8.9867  -12.9702 H   0  0  0  0  0  0  0  0  0  0  0  0
   -1.5998  -11.4911   -8.9916 H   0  0  0  0  0  0  0  0  0  0  0  0
    0.1743   -6.6444   -1.1827 H   0  0  0  0  0  0  0  0  0  0  0  0
    0.6564   -6.1630    1.1832 H   0  0  0  0  0  0  0  0  0  0  0  0
   -0.2534   -6.6183    3.6158 H   0  0  0  0  0  0  0  0  0  0  0  0
   -1.9450   -6.1742    3.8784 H   0  0  0  0  0  0  0  0  0  0  0  0
   -0.7772   -4.9637    3.3345 H   0  0  0  0  0  0  0  0  0  0  0  0
   -3.4779   -6.6269    2.1194 H   0  0  0  0  0  0  0  0  0  0  0  0
   -3.9677   -7.0835   -0.2441 H   0  0  0  0  0  0  0  0  0  0  0  0
   -2.2665   -9.4972   -1.1731 H   0  0  0  0  0  0  0  0  0  0  0  0
   -3.8459  -11.2979   -1.7104 H   0  0  0  0  0  0  0  0  0  0  0  0
   -5.3086  -12.0346   -4.1258 H   0  0  0  0  0  0  0  0  0  0  0  0
   -6.6866  -10.9308   -4.1161 H   0  0  0  0  0  0  0  0  0  0  0  0
   -6.2125  -11.7824   -2.6379 H   0  0  0  0  0  0  0  0  0  0  0  0
   -5.7806   -8.7622   -4.5432 H   0  0  0  0  0  0  0  0  0  0  0  0
   -4.2244   -6.9496   -3.9912 H   0  0  0  0  0  0  0  0  0  0  0  0
   -3.1852   -1.4116   -3.6281 H   0  0  0  0  0  0  0  0  0  0  0  0
   -4.4786    0.6713   -3.6068 H   0  0  0  0  0  0  0  0  0  0  0  0
   -4.5759    3.0631   -3.8085 H   0  0  0  0  0  0  0  0  0  0  0  0
   -4.0949    3.3400   -5.4827 H   0  0  0  0  0  0  0  0  0  0  0  0
   -3.1034    3.9745   -4.1740 H   0  0  0  0  0  0  0  0  0  0  0  0
   -1.1846    2.7501   -5.3395 H   0  0  0  0  0  0  0  0  0  0  0  0
    0.1263    0.6734   -5.3371 H   0  0  0  0  0  0  0  0  0  0  0  0
   -0.9044   -1.1171   -7.0795 H   0  0  0  0  0  0  0  0  0  0  0  0
    0.7773   -1.5834   -8.8060 H   0  0  0  0  0  0  0  0  0  0  0  0
    4.0336   -2.0330   -8.3861 H   0  0  0  0  0  0  0  0  0  0  0  0
    3.6299   -3.7478   -8.3914 H   0  0  0  0  0  0  0  0  0  0  0  0
    2.8063   -2.6433   -9.5015 H   0  0  0  0  0  0  0  0  0  0  0  0
    3.3195   -3.3402   -5.8686 H   0  0  0  0  0  0  0  0  0  0  0  0
    1.6431   -2.8602   -4.1314 H   0  0  0  0  0  0  0  0  0  0  0  0
   -2.9963   -3.8410    1.6817 H   0  0  0  0  0  0  0  0  0  0  0  0
   -5.2788   -4.4531    0.9961 H   0  0  0  0  0  0  0  0  0  0  0  0
   -7.7124   -1.2233   -1.6875 H   0  0  0  0  0  0  0  0  0  0  0  0
   -6.9476   -2.2569   -2.9399 H   0  0  0  0  0  0  0  0  0  0  0  0
   -8.6157   -2.5698   -2.4130 H   0  0  0  0  0  0  0  0  0  0  0  0
   -5.3800   -1.0836   -1.6363 H   0  0  0  0  0  0  0  0  0  0  0  0
   -3.1394   -0.4659   -0.9421 H   0  0  0  0  0  0  0  0  0  0  0  0
   -3.0197   -1.4852    2.9969 H   0  0  0  0  0  0  0  0  0  0  0  0
   -2.2131   -1.7226    5.2859 H   0  0  0  0  0  0  0  0  0  0  0  0
   -1.0356   -0.6957    7.0678 H   0  0  0  0  0  0  0  0  0  0  0  0
   -0.3103   -1.6386    8.3912 H   0  0  0  0  0  0  0  0  0  0  0  0
   -1.6409   -2.3403    7.4496 H   0  0  0  0  0  0  0  0  0  0  0  0
    1.6632   -2.7665    3.8144 H   0  0  0  0  0  0  0  0  0  0  0  0
    0.8341   -2.5538    1.4996 H   0  0  0  0  0  0  0  0  0  0  0  0
   -0.0674    3.8901   -0.0385 H   0  0  0  0  0  0  0  0  0  0  0  0
   -0.0172    6.1221    0.9272 H   0  0  0  0  0  0  0  0  0  0  0  0
    0.8285    7.2433    2.7863 H   0  0  0  0  0  0  0  0  0  0  0  0
    1.0512    8.9987    2.8751 H   0  0  0  0  0  0  0  0  0  0  0  0
   -0.1284    8.3289    1.7226 H   0  0  0  0  0  0  0  0  0  0  0  0
    3.8213    6.7960   -0.8321 H   0  0  0  0  0  0  0  0  0  0  0  0
    3.7689    4.5301   -1.8056 H   0  0  0  0  0  0  0  0  0  0  0  0
    3.3531    0.5150   -1.8351 H   0  0  0  0  0  0  0  0  0  0  0  0
    3.9026   -0.3163   -4.0953 H   0  0  0  0  0  0  0  0  0  0  0  0
    2.6240    2.5240   -7.9553 H   0  0  0  0  0  0  0  0  0  0  0  0
    1.2906    1.4207   -7.4786 H   0  0  0  0  0  0  0  0  0  0  0  0
    2.4213    0.9586   -8.7687 H   0  0  0  0  0  0  0  0  0  0  0  0
    2.0140    3.1177   -5.8028 H   0  0  0  0  0  0  0  0  0  0  0  0
    1.4344    3.9163   -3.5671 H   0  0  0  0  0  0  0  0  0  0  0  0
   -2.3990    4.8967    5.0956 H   0  0  0  0  0  0  0  0  0  0  0  0
   -3.6491    6.4583    6.5273 H   0  0  0  0  0  0  0  0  0  0  0  0
   -2.4951    7.9769    8.0382 H   0  0  0  0  0  0  0  0  0  0  0  0
   -1.2229    8.9412    9.4936 H   0  0  0  0  0  0  0  0  0  0  0  0
    0.4460    9.5285    9.6371 H   0  0  0  0  0  0  0  0  0  0  0  0
   -0.9417   11.2124    8.4573 H   0  0  0  0  0  0  0  0  0  0  0  0
   -1.3774   10.0226    7.2213 H   0  0  0  0  0  0  0  0  0  0  0  0
    0.2954   10.5566    7.3725 H   0  0  0  0  0  0  0  0  0  0  0  0
    1.2611    6.4093    6.7204 H   0  0  0  0  0  0  0  0  0  0  0  0
   -1.8994    1.7599    3.4050 H   0  0  0  0  0  0  0  0  0  0  0  0
   -3.6719    0.4831    4.5761 H   0  0  0  0  0  0  0  0  0  0  0  0
   -3.8200    0.5656    7.0455 H   0  0  0  0  0  0  0  0  0  0  0  0
   -1.6589    2.1803   10.4502 H   0  0  0  0  0  0  0  0  0  0  0  0
   -0.4716    2.5590    9.1860 H   0  0  0  0  0  0  0  0  0  0  0  0
   -3.0327    4.1319    9.7974 H   0  0  0  0  0  0  0  0  0  0  0  0
   -1.3844    4.6456   10.1858 H   0  0  0  0  0  0  0  0  0  0  0  0
   -1.9069    4.5368    8.5011 H   0  0  0  0  0  0  0  0  0  0  0  0
   -0.4806    3.2294    7.1439 H   0  0  0  0  0  0  0  0  0  0  0  0
    3.0606    6.9670    4.0748 H   0  0  0  0  0  0  0  0  0  0  0  0
    9.0846    5.1416    3.9297 H   0  0  0  0  0  0  0  0  0  0  0  0
   11.4106    5.7170    4.2421 H   0  0  0  0  0  0  0  0  0  0  0  0
   11.6896    6.9782    5.4574 H   0  0  0  0  0  0  0  0  0  0  0  0
   11.7760    7.3807    3.7518 H   0  0  0  0  0  0  0  0  0  0  0  0
    7.8113    9.8083    5.0864 H   0  0  0  0  0  0  0  0  0  0  0  0
  1  2  2  0  0  0  0
  2  3  1  0  0  0  0
  3  4  2  0  0  0  0
  3  5  1  0  0  0  0
  5  6  2  0  0  0  0
  6  7  1  0  0  0  0
  7  8  1  0  0  0  0
  7  9  2  0  0  0  0
  9 10  1  0  0  0  0
  9 11  1  0  0  0  0
 11 12  2  0  0  0  0
 12 13  1  0  0  0  0
 13 14  2  0  0  0  0
 14 15  1  0  0  0  0
 15 16  3  0  0  0  0
 14 17  1  0  0  0  0
 17 18  3  0  0  0  0
  1 19  1  0  0  0  0
 19 20  2  0  0  0  0
 20 21  1  0  0  0  0
 21 22  1  0  0  0  0
 22 23  2  0  0  0  0
 23 24  1  0  0  0  0
 24 25  2  0  0  0  0
 25 26  1  0  0  0  0
 25 27  1  0  0  0  0
 27 28  2  0  0  0  0
 21 29  1  0  0  0  0
 29 30  2  0  0  0  0
 30 31  1  0  0  0  0
 31 32  2  0  0  0  0
 32 33  1  0  0  0  0
 32 34  1  0  0  0  0
 34 35  2  0  0  0  0
 20 36  1  0  0  0  0
 36 37  1  0  0  0  0
 37 38  1  0  0  0  0
 38 39  2  0  0  0  0
 39 40  1  0  0  0  0
 40 41  1  0  0  0  0
 41 42  2  0  0  0  0
 42 43  1  0  0  0  0
 43 44  2  0  0  0  0
 44 45  1  0  0  0  0
 44 46  1  0  0  0  0
 46 47  2  0  0  0  0
 40 48  1  0  0  0  0
 48 49  2  0  0  0  0
 49 50  1  0  0  0  0
 50 51  2  0  0  0  0
 51 52  1  0  0  0  0
 51 53  1  0  0  0  0
 53 54  2  0  0  0  0
 39 55  1  0  0  0  0
 55 56  1  0  0  0  0
 38 57  1  0  0  0  0
 57 58  2  0  0  0  0
 58 59  1  0  0  0  0
 59 60  1  0  0  0  0
 60 61  2  0  0  0  0
 61 62  1  0  0  0  0
 62 63  2  0  0  0  0
 63 64  1  0  0  0  0
 64 65  1  0  0  0  0
 63 66  1  0  0  0  0
 66 67  2  0  0  0  0
 59 68  1  0  0  0  0
 68 69  2  0  0  0  0
 69 70  1  0  0  0  0
 70 71  2  0  0  0  0
 71 72  1  0  0  0  0
 72 73  1  0  0  0  0
 71 74  1  0  0  0  0
 74 75  2  0  0  0  0
 58 76  1  0  0  0  0
 76 77  1  0  0  0  0
 77 78  1  0  0  0  0
 78 79  2  0  0  0  0
 79 80  1  0  0  0  0
 80 81  1  0  0  0  0
 81 82  2  0  0  0  0
 82 83  1  0  0  0  0
 83 84  2  0  0  0  0
 84 85  1  0  0  0  0
 85 86  1  0  0  0  0
 84 87  1  0  0  0  0
 87 88  2  0  0  0  0
 80 89  1  0  0  0  0
 89 90  2  0  0  0  0
 90 91  1  0  0  0  0
 91 92  2  0  0  0  0
 92 93  1  0  0  0  0
 93 94  1  0  0  0  0
 92 95  1  0  0  0  0
 95 96  2  0  0  0  0
 79 97  1  0  0  0  0
 97 98  1  0  0  0  0
 78 99  1  0  0  0  0
 99100  2  0  0  0  0
100101  1  0  0  0  0
100102  1  0  0  0  0
102103  1  0  0  0  0
102104  2  0  0  0  0
104105  1  0  0  0  0
105106  2  0  0  0  0
106107  1  0  0  0  0
107108  1  0  0  0  0
108109  2  0  0  0  0
109110  1  0  0  0  0
110111  2  0  0  0  0
111112  1  0  0  0  0
112113  1  0  0  0  0
113114  1  0  0  0  0
114115  1  0  0  0  0
112116  2  0  0  0  0
107117  2  0  0  0  0
117118  1  0  0  0  0
118119  2  0  0  0  0
117120  1  0  0  0  0
120121  2  0  0  0  0
121122  1  0  0  0  0
122123  2  0  0  0  0
123124  1  0  0  0  0
124125  1  0  0  0  0
125126  1  0  0  0  0
126127  1  0  0  0  0
124128  2  0  0  0  0
104129  1  0  0  0  0
129130  2  0  0  0  0
130131  1  0  0  0  0
131132  2  0  0  0  0
131133  1  0  0  0  0
133134  2  0  0  0  0
134135  1  0  0  0  0
135136  1  0  0  0  0
135137  2  0  0  0  0
137138  1  0  0  0  0
137139  1  0  0  0  0
139140  2  0  0  0  0
140141  1  0  0  0  0
141142  2  0  0  0  0
142143  1  0  0  0  0
143144  3  0  0  0  0
142145  1  0  0  0  0
145146  3  0  0  0  0
 13  2  1  0  0  0  0
 56 19  1  0  0  0  0
 98 57  1  0  0  0  0
119 99  1  0  0  0  0
128120  1  0  0  0  0
141130  1  0  0  0  0
 12  5  1  0  0  0  0
 28 22  1  0  0  0  0
 35 29  1  0  0  0  0
 55 36  2  0  0  0  0
 67 60  1  0  0  0  0
 75 68  1  0  0  0  0
 97 76  2  0  0  0  0
119105  1  0  0  0  0
140133  1  0  0  0  0
 47 41  1  0  0  0  0
 54 48  1  0  0  0  0
 88 81  1  0  0  0  0
 96 89  1  0  0  0  0
116108  1  0  0  0  0
  1147  1  0  0  0  0
  6148  1  0  0  0  0
  8149  1  0  0  0  0
  8150  1  0  0  0  0
  8151  1  0  0  0  0
 11152  1  0  0  0  0
 23153  1  0  0  0  0
 24154  1  0  0  0  0
 26155  1  0  0  0  0
 26156  1  0  0  0  0
 26157  1  0  0  0  0
 27158  1  0  0  0  0
 28159  1  0  0  0  0
 30160  1  0  0  0  0
 31161  1  0  0  0  0
 33162  1  0  0  0  0
 33163  1  0  0  0  0
 33164  1  0  0  0  0
 34165  1  0  0  0  0
 35166  1  0  0  0  0
 42167  1  0  0  0  0
 43168  1  0  0  0  0
 45169  1  0  0  0  0
 45170  1  0  0  0  0
 45171  1  0  0  0  0
 46172  1  0  0  0  0
 47173  1  0  0  0  0
 49174  1  0  0  0  0
 50175  1  0  0  0  0
 52176  1  0  0  0  0
 52177  1  0  0  0  0
 52178  1  0  0  0  0
 53179  1  0  0  0  0
 54180  1  0  0  0  0
 61181  1  0  0  0  0
 62182  1  0  0  0  0
 65183  1  0  0  0  0
 65184  1  0  0  0  0
 65185  1  0  0  0  0
 66186  1  0  0  0  0
 67187  1  0  0  0  0
 69188  1  0  0  0  0
 70189  1  0  0  0  0
 73190  1  0  0  0  0
 73191  1  0  0  0  0
 73192  1  0  0  0  0
 74193  1  0  0  0  0
 75194  1  0  0  0  0
 82195  1  0  0  0  0
 83196  1  0  0  0  0
 86197  1  0  0  0  0
 86198  1  0  0  0  0
 86199  1  0  0  0  0
 87200  1  0  0  0  0
 88201  1  0  0  0  0
 90202  1  0  0  0  0
 91203  1  0  0  0  0
 94204  1  0  0  0  0
 94205  1  0  0  0  0
 94206  1  0  0  0  0
 95207  1  0  0  0  0
 96208  1  0  0  0  0
109209  1  0  0  0  0
110210  1  0  0  0  0
111211  1  0  0  0  0
114212  1  0  0  0  0
114213  1  0  0  0  0
115214  1  0  0  0  0
115215  1  0  0  0  0
115216  1  0  0  0  0
116217  1  0  0  0  0
121218  1  0  0  0  0
122219  1  0  0  0  0
123220  1  0  0  0  0
126221  1  0  0  0  0
126222  1  0  0  0  0
127223  1  0  0  0  0
127224  1  0  0  0  0
127225  1  0  0  0  0
128226  1  0  0  0  0
129227  1  0  0  0  0
134228  1  0  0  0  0
136229  1  0  0  0  0
136230  1  0  0  0  0
136231  1  0  0  0  0
139232  1  0  0  0  0
M  END
