198

C          4.69630       -6.12720       -5.03810
C          4.51600       -7.48070       -4.90070
C          4.80280       -8.38970       -6.03040
O          5.41660       -8.13440       -7.04450
C          4.11690       -9.65750       -5.68320
C          3.95930      -10.79810       -6.44450
C          3.23110      -11.86830       -5.93350
C          3.02530      -13.13280       -6.70300
C          2.68760      -11.72990       -4.65610
F          1.96070      -12.75330       -4.16300
C          2.84300      -10.60400       -3.86320
C          3.57320       -9.55350       -4.39060
C          3.94660       -8.25830       -3.82960
C          3.99760       -7.95710       -2.48940
C          3.45420       -8.77120       -1.48110
N          2.99760       -9.38900       -0.62680
C          4.66310       -6.81800       -1.99480
N          5.24870       -5.92600       -1.56830
C          4.05160       -5.12220       -4.30300
C          4.43100       -3.78280       -4.10300
N          5.54910       -3.17290       -4.59340
C          6.05260       -3.44020       -5.87370
C          5.18420       -3.64580       -6.94480
C          5.68700       -3.90600       -8.20300
C          7.05810       -3.95880       -8.43110
C          7.58880       -4.27630       -9.79360
C          7.91530       -3.73450       -7.36030
C          7.42620       -3.47850       -6.09430
C          6.20130       -2.22480       -3.77540
C          6.42140       -2.50990       -2.42990
C          7.02360       -1.56860       -1.62070
C          7.42580       -0.33720       -2.12760
C          8.04140        0.68750       -1.22630
C          7.22420       -0.07720       -3.47740
C          6.61720       -1.00700       -4.29960
C          3.53710       -3.13760       -3.21290
S          3.46690       -1.55690       -2.52720
C          1.99870       -1.96960       -1.65230
C          1.63530       -3.30390       -1.82700
N          0.68130       -4.00640       -1.13280
C          0.23650       -5.22110       -1.70520
C         -0.37040       -5.22130       -2.95700
C         -0.72520       -6.41830       -3.54980
C         -0.48230       -7.63110       -2.91510
C         -0.79820       -8.92600       -3.59810
C          0.08890       -7.61590       -1.64740
C          0.44300       -6.42670       -1.04220
C          0.30840       -3.73620        0.18870
C         -0.95490       -4.13300        0.62180
C         -1.33570       -3.94700        1.93570
C         -0.48250       -3.34590        2.85150
C         -0.86540       -3.18400        4.28990
C          0.76840       -2.93190        2.40640
C          1.16990       -3.13120        1.10130
C          2.49520       -3.92910       -2.76320
S          2.54630       -5.50310       -3.46300
C          1.26870       -0.95730       -0.94190
C         -0.14390       -0.99990       -0.89390
N         -1.00650       -1.84680       -1.47230
N         -2.17960       -1.38760       -1.14450
C         -3.38000       -2.04610       -1.57240
C         -4.22170       -1.11710       -2.43710
N         -2.20630       -0.31070       -0.41490
C         -0.91550       -0.01230       -0.21740
C         -0.31410        1.08320        0.43550
C          1.07160        1.12220        0.35890
C          1.83460        0.14170       -0.30440
Cl         3.54910        0.32090       -0.27730
Cl         1.93610        2.38670        1.15170
C         -1.10180        2.08290        1.12810
C         -2.09610        1.87470        2.06000
N         -2.51810        0.62290        2.54260
C         -3.63750        0.01040        1.98140
C         -3.84140       -1.35600        2.16520
C         -4.94270       -1.97820        1.61310
C         -5.86760       -1.26750        0.85520
C         -7.07500       -1.94330        0.27780
C         -5.64560        0.08930        0.65850
C         -4.55090        0.72490        1.20970
C         -2.08930        0.33360        3.84870
C         -2.96030       -0.15540        4.82040
C         -2.50930       -0.39070        6.10310
C         -1.19050       -0.13590        6.46420
C         -0.71480       -0.41030        7.85810
C         -0.33070        0.36200        5.49380
C         -0.76740        0.59420        4.20340
C         -2.55180        3.09810        2.60260
S         -3.74690        3.49890        3.77470
C         -3.35050        5.21920        3.61940
C         -2.38980        5.45260        2.61050
N         -1.99350        6.65830        2.11440
C         -2.77680        7.81760        2.18700
C         -2.17240        9.04410        2.45400
C         -2.94020       10.18790        2.57100
C         -4.31910       10.14540        2.41850
C         -5.16130       11.37040        2.58630
C         -4.90950        8.92300        2.10300
C         -4.15660        7.77400        1.98900
C         -0.73280        6.75010        1.48010
C         -0.62280        7.36740        0.24030
C          0.60700        7.43410       -0.38750
C          1.74210        6.89260        0.20180
C          3.07160        6.93510       -0.48540
C          1.62190        6.29900        1.45460
C          0.40150        6.22650        2.09380
C         -1.93620        4.22330        2.07450
S         -0.77840        3.78090        0.86860
C         -4.02440        6.09890        4.46860
C         -3.57480        7.34320        4.86060
C         -2.15200        7.70820        4.93620
O         -1.19290        7.02350        4.63280
C         -2.12020        9.03540        5.59080
C         -1.02730        9.81240        5.91220
C         -1.22230       11.04700        6.52440
C         -0.08520       11.94370        6.89380
C         -2.53490       11.43310        6.79250
F         -2.73320       12.62610        7.38960
C         -3.64970       10.66870        6.48460
C         -3.43260        9.44790        5.87060
C         -4.35660        8.41880        5.39970
C         -5.72310        8.53560        5.32600
C         -6.43990        9.66730        5.75460
N         -7.07250       10.57450        6.06680
C         -6.56130        7.57290        4.73060
N         -7.29680        6.84620        4.22990
H          5.34510       -5.82680       -5.85310
H          4.39950      -10.85320       -7.42850
H          3.42770      -13.04300       -7.70770
H          1.96440      -13.37250       -6.76050
H          3.51850      -13.96270       -6.19710
H          2.39280      -10.57090       -2.88460
H          4.11720       -3.59980       -6.78110
H          5.00430       -4.06990       -9.02360
H          8.61970       -3.94760       -9.89810
H          7.55590       -5.35380       -9.95720
H          6.98490       -3.80300      -10.56490
H          8.98340       -3.77080       -7.51630
H          8.10200       -3.31700       -5.26790
H          6.12160       -3.46770       -2.03010
H          7.18650       -1.79350       -0.57710
H          8.56960        1.44610       -1.79850
H          7.26270        1.18000       -0.64320
H          8.73490        0.22220       -0.52900
H          7.53580        0.87090       -3.89110
H          6.45390       -0.79160       -5.34550
H         -0.54390       -4.27890       -3.45560
H         -1.18600       -6.41260       -4.52720
H         -1.72110       -8.85090       -4.16910
H          0.00440       -9.18160       -4.29170
H         -0.89160       -9.73420       -2.87740
H          0.28230       -8.54600       -1.13410
H          0.90430       -6.42620       -0.06570
H         -1.63060       -4.60170       -0.07820
H         -2.31190       -4.28440        2.25350
H         -0.30120       -3.88630        4.90420
H         -0.63850       -2.17920        4.63840
H         -1.92470       -3.37700        4.44160
H          1.44890       -2.46500        3.10340
H          2.16470       -2.84350        0.79830
H         -3.94420       -2.33230       -0.68010
H         -3.06720       -2.93620       -2.12070
H         -3.67840       -0.82900       -3.33390
H         -5.13960       -1.61870       -2.72890
H         -4.47060       -0.22450       -1.86980
H         -3.12160       -1.92190        2.73500
H         -5.08700       -3.03870        1.77080
H         -7.38250       -1.46360       -0.64880
H         -7.90870       -1.88240        0.97820
H         -6.87850       -2.99570        0.08340
H         -6.35030        0.66250        0.07260
H         -4.40450        1.78060        1.04090
H         -3.99530       -0.33260        4.56980
H         -3.19930       -0.76490        6.84570
H         -0.54450       -1.47910        7.99310
H          0.21760        0.11100        8.06050
H         -1.45910       -0.09710        8.58740
H          0.69860        0.57170        5.74820
H         -0.08090        0.97850        3.46360
H         -1.10150        9.08980        2.58370
H         -2.45630       11.12610        2.80060
H         -4.54620       12.23920        2.80560
H         -5.73450       11.56560        1.68110
H         -5.87150       11.23520        3.40180
H         -5.97820        8.87190        1.95400
H         -4.63700        6.83700        1.75010
H         -1.50170        7.78480       -0.22930
H          0.68100        7.90790       -1.35560
H          3.01960        7.51300       -1.40440
H          3.39690        5.92420       -0.72930
H          3.82440        7.37720        0.16530
H          2.49850        5.88890        1.93400
H          0.31260        5.79020        3.07630
H         -4.95780        5.73350        4.88030
H         -0.03180        9.46310        5.68330
H         -0.06340       12.09600        7.97250
H         -0.20960       12.92230        6.43160
H          0.86200       11.51650        6.57740
H         -4.63100       11.03750        6.73390
