
  xtb     02112209413D
 energy: -383.526378777394 gnorm: 0.000775099387 xtb: 6.4.1 (unknown)
228248  0     0  0            999 V2000
   -6.6630    7.9217   -0.5919 C   0  0  0  0  0  0  0  0  0  0  0  0
   -6.0617    9.0423   -0.0551 C   0  0  0  0  0  0  0  0  0  0  0  0
   -4.9472    8.9912    0.9031 C   0  0  0  0  0  0  0  0  0  0  0  0
   -4.3783    8.0029    1.3288 O   0  0  0  0  0  0  0  0  0  0  0  0
   -4.7448   10.3881    1.3474 C   0  0  0  0  0  0  0  0  0  0  0  0
   -3.8268   10.8812    2.2507 C   0  0  0  0  0  0  0  0  0  0  0  0
   -3.7930   12.2472    2.5146 C   0  0  0  0  0  0  0  0  0  0  0  0
   -2.8212   12.8511    3.4761 C   0  0  0  0  0  0  0  0  0  0  0  0
   -4.7114   13.0555    1.8459 C   0  0  0  0  0  0  0  0  0  0  0  0
   -4.6870   14.3804    2.0962 F   0  0  0  0  0  0  0  0  0  0  0  0
   -5.6482   12.5840    0.9393 C   0  0  0  0  0  0  0  0  0  0  0  0
   -5.6604   11.2234    0.6880 C   0  0  0  0  0  0  0  0  0  0  0  0
   -6.4778   10.4072   -0.2069 C   0  0  0  0  0  0  0  0  0  0  0  0
   -7.3588   10.8813   -1.1479 C   0  0  0  0  0  0  0  0  0  0  0  0
   -8.0183   10.0662   -2.0884 C   0  0  0  0  0  0  0  0  0  0  0  0
   -8.5635    9.4624   -2.8997 N   0  0  0  0  0  0  0  0  0  0  0  0
   -7.6420   12.2451   -1.3438 C   0  0  0  0  0  0  0  0  0  0  0  0
   -7.8935   13.3446   -1.5630 N   0  0  0  0  0  0  0  0  0  0  0  0
   -6.0540    6.6780   -0.7651 C   0  0  0  0  0  0  0  0  0  0  0  0
   -4.6952    6.3213   -0.9026 C   0  0  0  0  0  0  0  0  0  0  0  0
   -3.6355    7.1591   -1.0789 N   0  0  0  0  0  0  0  0  0  0  0  0
   -2.3343    6.6919   -0.7791 C   0  0  0  0  0  0  0  0  0  0  0  0
   -2.0634    6.1005    0.4495 C   0  0  0  0  0  0  0  0  0  0  0  0
   -0.7920    5.6308    0.7205 C   0  0  0  0  0  0  0  0  0  0  0  0
    0.2279    5.7427   -0.2156 C   0  0  0  0  0  0  0  0  0  0  0  0
    1.6055    5.2274    0.0662 C   0  0  0  0  0  0  0  0  0  0  0  0
   -0.0518    6.3574   -1.4326 C   0  0  0  0  0  0  0  0  0  0  0  0
   -1.3164    6.8309   -1.7173 C   0  0  0  0  0  0  0  0  0  0  0  0
   -3.7543    8.4601   -1.5864 C   0  0  0  0  0  0  0  0  0  0  0  0
   -2.9672    9.4797   -1.0558 C   0  0  0  0  0  0  0  0  0  0  0  0
   -3.1022   10.7757   -1.5176 C   0  0  0  0  0  0  0  0  0  0  0  0
   -4.0116   11.0899   -2.5182 C   0  0  0  0  0  0  0  0  0  0  0  0
   -4.1977   12.4969   -2.9904 C   0  0  0  0  0  0  0  0  0  0  0  0
   -4.7586   10.0549   -3.0777 C   0  0  0  0  0  0  0  0  0  0  0  0
   -4.6373    8.7591   -2.6235 C   0  0  0  0  0  0  0  0  0  0  0  0
   -4.5663    4.9130   -0.9668 C   0  0  0  0  0  0  0  0  0  0  0  0
   -3.2189    3.8413   -1.0960 S   0  0  0  0  0  0  0  0  0  0  0  0
   -4.2922    2.4484   -1.1194 C   0  0  0  0  0  0  0  0  0  0  0  0
   -5.6248    2.8020   -1.0381 C   0  0  0  0  0  0  0  0  0  0  0  0
   -6.7078    1.9439   -1.1146 N   0  0  0  0  0  0  0  0  0  0  0  0
   -7.7989    2.3168   -1.9151 C   0  0  0  0  0  0  0  0  0  0  0  0
   -7.5914    3.0018   -3.1107 C   0  0  0  0  0  0  0  0  0  0  0  0
   -8.6658    3.3913   -3.8835 C   0  0  0  0  0  0  0  0  0  0  0  0
   -9.9699    3.0995   -3.5001 C   0  0  0  0  0  0  0  0  0  0  0  0
  -11.1246    3.5448   -4.3433 C   0  0  0  0  0  0  0  0  0  0  0  0
  -10.1663    2.4016   -2.3155 C   0  0  0  0  0  0  0  0  0  0  0  0
   -9.1007    2.0169   -1.5258 C   0  0  0  0  0  0  0  0  0  0  0  0
   -6.7658    0.7681   -0.3535 C   0  0  0  0  0  0  0  0  0  0  0  0
   -6.3982    0.7718    0.9901 C   0  0  0  0  0  0  0  0  0  0  0  0
   -6.4842   -0.3895    1.7343 C   0  0  0  0  0  0  0  0  0  0  0  0
   -6.9407   -1.5736    1.1655 C   0  0  0  0  0  0  0  0  0  0  0  0
   -7.0344   -2.8246    1.9823 C   0  0  0  0  0  0  0  0  0  0  0  0
   -7.3076   -1.5647   -0.1744 C   0  0  0  0  0  0  0  0  0  0  0  0
   -7.2242   -0.4123   -0.9297 C   0  0  0  0  0  0  0  0  0  0  0  0
   -5.7631    4.2143   -0.9576 C   0  0  0  0  0  0  0  0  0  0  0  0
   -7.1233    5.2683   -0.8721 S   0  0  0  0  0  0  0  0  0  0  0  0
   -3.6127    1.1812   -1.2119 C   0  0  0  0  0  0  0  0  0  0  0  0
   -3.5603    0.1433   -0.3387 C   0  0  0  0  0  0  0  0  0  0  0  0
   -2.5413   -0.8016   -0.6346 C   0  0  0  0  0  0  0  0  0  0  0  0
   -2.1489   -1.9076    0.1344 C   0  0  0  0  0  0  0  0  0  0  0  0
   -2.7546   -2.2368    1.4315 C   0  0  0  0  0  0  0  0  0  0  0  0
   -2.9144   -1.2587    2.4088 C   0  0  0  0  0  0  0  0  0  0  0  0
   -3.3856   -1.6115    3.6574 C   0  0  0  0  0  0  0  0  0  0  0  0
   -3.5173   -0.6389    4.5837 F   0  0  0  0  0  0  0  0  0  0  0  0
   -3.7030   -2.9167    4.0160 C   0  0  0  0  0  0  0  0  0  0  0  0
   -4.1835   -3.2780    5.3908 C   0  0  0  0  0  0  0  0  0  0  0  0
   -5.7100   -3.2272    5.4797 C   0  0  0  0  0  0  0  0  0  0  0  0
   -3.5478   -3.8608    3.0063 C   0  0  0  0  0  0  0  0  0  0  0  0
   -3.8474   -5.1479    3.2793 F   0  0  0  0  0  0  0  0  0  0  0  0
   -3.0881   -3.5521    1.7415 C   0  0  0  0  0  0  0  0  0  0  0  0
   -1.0459   -2.6172   -0.3182 C   0  0  0  0  0  0  0  0  0  0  0  0
   -0.3415   -2.2869   -1.5007 C   0  0  0  0  0  0  0  0  0  0  0  0
   -0.7670   -1.2141   -2.3010 C   0  0  0  0  0  0  0  0  0  0  0  0
   -0.0726   -0.8922   -3.5522 C   0  0  0  0  0  0  0  0  0  0  0  0
    0.2422   -1.9090   -4.4509 C   0  0  0  0  0  0  0  0  0  0  0  0
    0.9008   -1.6055   -5.6249 C   0  0  0  0  0  0  0  0  0  0  0  0
    1.2893   -0.3161   -5.9719 C   0  0  0  0  0  0  0  0  0  0  0  0
    1.9783   -0.0049   -7.2669 C   0  0  0  0  0  0  0  0  0  0  0  0
    0.9523    0.3133   -8.3572 C   0  0  0  0  0  0  0  0  0  0  0  0
    0.9477    0.6708   -5.0543 C   0  0  0  0  0  0  0  0  0  0  0  0
    0.2820    0.4141   -3.8733 C   0  0  0  0  0  0  0  0  0  0  0  0
    1.2961    1.9472   -5.3216 F   0  0  0  0  0  0  0  0  0  0  0  0
    1.1881   -2.6150   -6.4731 F   0  0  0  0  0  0  0  0  0  0  0  0
   -1.8354   -0.4716   -1.8190 C   0  0  0  0  0  0  0  0  0  0  0  0
   -2.4466    1.0020   -2.5142 S   0  0  0  0  0  0  0  0  0  0  0  0
    0.8674   -3.0203   -1.6144 C   0  0  0  0  0  0  0  0  0  0  0  0
    1.0981   -3.8570   -0.5665 C   0  0  0  0  0  0  0  0  0  0  0  0
   -0.2394   -3.8810    0.5693 S   0  0  0  0  0  0  0  0  0  0  0  0
    2.3239   -4.5158   -0.2368 C   0  0  0  0  0  0  0  0  0  0  0  0
    3.5928   -3.9578   -0.3126 C   0  0  0  0  0  0  0  0  0  0  0  0
    3.8917   -2.6684   -0.7141 N   0  0  0  0  0  0  0  0  0  0  0  0
    5.1344   -2.4554   -1.3428 C   0  0  0  0  0  0  0  0  0  0  0  0
    5.5743   -3.3390   -2.3248 C   0  0  0  0  0  0  0  0  0  0  0  0
    6.8205   -3.1769   -2.8941 C   0  0  0  0  0  0  0  0  0  0  0  0
    7.6519   -2.1318   -2.5100 C   0  0  0  0  0  0  0  0  0  0  0  0
    9.0232   -2.0050   -3.0968 C   0  0  0  0  0  0  0  0  0  0  0  0
    7.1900   -1.2360   -1.5546 C   0  0  0  0  0  0  0  0  0  0  0  0
    5.9475   -1.3905   -0.9719 C   0  0  0  0  0  0  0  0  0  0  0  0
    3.0526   -1.5869   -0.4242 C   0  0  0  0  0  0  0  0  0  0  0  0
    2.9514   -0.5222   -1.3160 C   0  0  0  0  0  0  0  0  0  0  0  0
    2.0779    0.5185   -1.0660 C   0  0  0  0  0  0  0  0  0  0  0  0
    1.2581    0.5179    0.0538 C   0  0  0  0  0  0  0  0  0  0  0  0
    0.2604    1.6088    0.2996 C   0  0  0  0  0  0  0  0  0  0  0  0
    1.3912   -0.5296    0.9599 C   0  0  0  0  0  0  0  0  0  0  0  0
    2.2856   -1.5559    0.7408 C   0  0  0  0  0  0  0  0  0  0  0  0
    4.5721   -4.8704    0.1564 C   0  0  0  0  0  0  0  0  0  0  0  0
    6.2945   -4.8158    0.2507 S   0  0  0  0  0  0  0  0  0  0  0  0
    6.3099   -6.4071    1.0187 C   0  0  0  0  0  0  0  0  0  0  0  0
    5.0093   -6.9726    1.0981 C   0  0  0  0  0  0  0  0  0  0  0  0
    4.7037   -8.2176    1.5708 N   0  0  0  0  0  0  0  0  0  0  0  0
    3.4472   -8.4047    2.1850 C   0  0  0  0  0  0  0  0  0  0  0  0
    3.0058   -7.4970    3.1447 C   0  0  0  0  0  0  0  0  0  0  0  0
    1.7661   -7.6569    3.7277 C   0  0  0  0  0  0  0  0  0  0  0  0
    0.9418   -8.7218    3.3789 C   0  0  0  0  0  0  0  0  0  0  0  0
   -0.4113   -8.8622    4.0030 C   0  0  0  0  0  0  0  0  0  0  0  0
    1.4023   -9.6338    2.4376 C   0  0  0  0  0  0  0  0  0  0  0  0
    2.6398   -9.4829    1.8420 C   0  0  0  0  0  0  0  0  0  0  0  0
    5.5280   -9.3394    1.3687 C   0  0  0  0  0  0  0  0  0  0  0  0
    6.2570   -9.4850    0.1907 C   0  0  0  0  0  0  0  0  0  0  0  0
    7.0646  -10.5899    0.0113 C   0  0  0  0  0  0  0  0  0  0  0  0
    7.1532  -11.5807    0.9827 C   0  0  0  0  0  0  0  0  0  0  0  0
    8.0486  -12.7670    0.8019 C   0  0  0  0  0  0  0  0  0  0  0  0
    6.3976  -11.4399    2.1407 C   0  0  0  0  0  0  0  0  0  0  0  0
    5.5962  -10.3338    2.3411 C   0  0  0  0  0  0  0  0  0  0  0  0
    4.0436   -6.0653    0.6271 C   0  0  0  0  0  0  0  0  0  0  0  0
    2.3154   -6.1113    0.4891 S   0  0  0  0  0  0  0  0  0  0  0  0
    7.4298   -6.9882    1.6046 C   0  0  0  0  0  0  0  0  0  0  0  0
    8.7487   -6.5853    1.6072 C   0  0  0  0  0  0  0  0  0  0  0  0
    9.3229   -5.4884    0.8271 C   0  0  0  0  0  0  0  0  0  0  0  0
    8.7435   -4.6851    0.1155 O   0  0  0  0  0  0  0  0  0  0  0  0
   10.7822   -5.5574    1.0437 C   0  0  0  0  0  0  0  0  0  0  0  0
   11.7702   -4.7461    0.5241 C   0  0  0  0  0  0  0  0  0  0  0  0
   13.0987   -4.9882    0.8579 C   0  0  0  0  0  0  0  0  0  0  0  0
   14.2208   -4.1518    0.3344 C   0  0  0  0  0  0  0  0  0  0  0  0
   13.3617   -6.0575    1.7142 C   0  0  0  0  0  0  0  0  0  0  0  0
   14.6459   -6.3022    2.0413 F   0  0  0  0  0  0  0  0  0  0  0  0
   12.3877   -6.8841    2.2524 C   0  0  0  0  0  0  0  0  0  0  0  0
   11.0713   -6.6261    1.9080 C   0  0  0  0  0  0  0  0  0  0  0  0
    9.8158   -7.2676    2.2981 C   0  0  0  0  0  0  0  0  0  0  0  0
    9.7039   -8.3056    3.1918 C   0  0  0  0  0  0  0  0  0  0  0  0
    8.4975   -8.8425    3.6794 C   0  0  0  0  0  0  0  0  0  0  0  0
    7.5639   -9.3190    4.1530 N   0  0  0  0  0  0  0  0  0  0  0  0
   10.8045   -8.9597    3.7805 C   0  0  0  0  0  0  0  0  0  0  0  0
   11.6543   -9.5462    4.2834 N   0  0  0  0  0  0  0  0  0  0  0  0
   -7.7078    7.9782   -0.8728 H   0  0  0  0  0  0  0  0  0  0  0  0
   -3.1381   10.2094    2.7404 H   0  0  0  0  0  0  0  0  0  0  0  0
   -2.1442   12.0967    3.8661 H   0  0  0  0  0  0  0  0  0  0  0  0
   -3.3547   13.3127    4.3066 H   0  0  0  0  0  0  0  0  0  0  0  0
   -2.2430   13.6348    2.9880 H   0  0  0  0  0  0  0  0  0  0  0  0
   -6.3285   13.2766    0.4716 H   0  0  0  0  0  0  0  0  0  0  0  0
   -2.8491    6.0394    1.1861 H   0  0  0  0  0  0  0  0  0  0  0  0
   -0.5907    5.1747    1.6787 H   0  0  0  0  0  0  0  0  0  0  0  0
    2.3335    6.0348   -0.0006 H   0  0  0  0  0  0  0  0  0  0  0  0
    1.6642    4.7884    1.0585 H   0  0  0  0  0  0  0  0  0  0  0  0
    1.8852    4.4705   -0.6653 H   0  0  0  0  0  0  0  0  0  0  0  0
    0.7321    6.4587   -2.1688 H   0  0  0  0  0  0  0  0  0  0  0  0
   -1.5260    7.3019   -2.6666 H   0  0  0  0  0  0  0  0  0  0  0  0
   -2.2627    9.2507   -0.2704 H   0  0  0  0  0  0  0  0  0  0  0  0
   -2.4986   11.5570   -1.0791 H   0  0  0  0  0  0  0  0  0  0  0  0
   -4.0461   12.5614   -4.0668 H   0  0  0  0  0  0  0  0  0  0  0  0
   -3.5010   13.1693   -2.4968 H   0  0  0  0  0  0  0  0  0  0  0  0
   -5.2121   12.8364   -2.7810 H   0  0  0  0  0  0  0  0  0  0  0  0
   -5.4528   10.2724   -3.8763 H   0  0  0  0  0  0  0  0  0  0  0  0
   -5.2303    7.9748   -3.0698 H   0  0  0  0  0  0  0  0  0  0  0  0
   -6.5838    3.2222   -3.4331 H   0  0  0  0  0  0  0  0  0  0  0  0
   -8.4900    3.9270   -4.8050 H   0  0  0  0  0  0  0  0  0  0  0  0
  -12.0471    3.0654   -4.0261 H   0  0  0  0  0  0  0  0  0  0  0  0
  -11.2523    4.6242   -4.2610 H   0  0  0  0  0  0  0  0  0  0  0  0
  -10.9482    3.3104   -5.3916 H   0  0  0  0  0  0  0  0  0  0  0  0
  -11.1708    2.1636   -1.9966 H   0  0  0  0  0  0  0  0  0  0  0  0
   -9.2720    1.4870   -0.6006 H   0  0  0  0  0  0  0  0  0  0  0  0
   -6.0529    1.6900    1.4440 H   0  0  0  0  0  0  0  0  0  0  0  0
   -6.2014   -0.3741    2.7773 H   0  0  0  0  0  0  0  0  0  0  0  0
   -7.5977   -3.5906    1.4556 H   0  0  0  0  0  0  0  0  0  0  0  0
   -6.0373   -3.2127    2.1892 H   0  0  0  0  0  0  0  0  0  0  0  0
   -7.5217   -2.6237    2.9344 H   0  0  0  0  0  0  0  0  0  0  0  0
   -7.6645   -2.4746   -0.6346 H   0  0  0  0  0  0  0  0  0  0  0  0
   -7.5178   -0.4145   -1.9688 H   0  0  0  0  0  0  0  0  0  0  0  0
   -4.2009    0.0651    0.5179 H   0  0  0  0  0  0  0  0  0  0  0  0
   -2.6395   -0.2331    2.2222 H   0  0  0  0  0  0  0  0  0  0  0  0
   -3.7572   -2.5791    6.1124 H   0  0  0  0  0  0  0  0  0  0  0  0
   -3.8428   -4.2856    5.6352 H   0  0  0  0  0  0  0  0  0  0  0  0
   -6.0299   -3.4682    6.4901 H   0  0  0  0  0  0  0  0  0  0  0  0
   -6.1548   -3.9457    4.7954 H   0  0  0  0  0  0  0  0  0  0  0  0
   -6.0720   -2.2321    5.2311 H   0  0  0  0  0  0  0  0  0  0  0  0
   -2.9940   -4.3375    1.0089 H   0  0  0  0  0  0  0  0  0  0  0  0
   -0.0429   -2.9305   -4.2549 H   0  0  0  0  0  0  0  0  0  0  0  0
    2.5786   -0.8631   -7.5733 H   0  0  0  0  0  0  0  0  0  0  0  0
    2.6371    0.8540   -7.1284 H   0  0  0  0  0  0  0  0  0  0  0  0
    0.3470    1.1701   -8.0698 H   0  0  0  0  0  0  0  0  0  0  0  0
    1.4599    0.5437   -9.2902 H   0  0  0  0  0  0  0  0  0  0  0  0
    0.2954   -0.5382   -8.5202 H   0  0  0  0  0  0  0  0  0  0  0  0
    0.0616    1.2315   -3.2077 H   0  0  0  0  0  0  0  0  0  0  0  0
    1.5701   -2.8852   -2.4157 H   0  0  0  0  0  0  0  0  0  0  0  0
    4.9364   -4.1568   -2.6286 H   0  0  0  0  0  0  0  0  0  0  0  0
    7.1573   -3.8768   -3.6448 H   0  0  0  0  0  0  0  0  0  0  0  0
    9.6680   -2.7763   -2.6760 H   0  0  0  0  0  0  0  0  0  0  0  0
    8.9982   -2.1426   -4.1763 H   0  0  0  0  0  0  0  0  0  0  0  0
    9.4572   -1.0335   -2.8742 H   0  0  0  0  0  0  0  0  0  0  0  0
    7.8190   -0.4138   -1.2453 H   0  0  0  0  0  0  0  0  0  0  0  0
    5.6065   -0.6989   -0.2155 H   0  0  0  0  0  0  0  0  0  0  0  0
    3.5537   -0.5200   -2.2127 H   0  0  0  0  0  0  0  0  0  0  0  0
    2.0257    1.3373   -1.7680 H   0  0  0  0  0  0  0  0  0  0  0  0
   -0.7292    1.1852    0.4661 H   0  0  0  0  0  0  0  0  0  0  0  0
    0.2042    2.2939   -0.5424 H   0  0  0  0  0  0  0  0  0  0  0  0
    0.5295    2.1787    1.1881 H   0  0  0  0  0  0  0  0  0  0  0  0
    0.7839   -0.5393    1.8541 H   0  0  0  0  0  0  0  0  0  0  0  0
    2.3853   -2.3484    1.4678 H   0  0  0  0  0  0  0  0  0  0  0  0
    3.6429   -6.6720    3.4286 H   0  0  0  0  0  0  0  0  0  0  0  0
    1.4306   -6.9455    4.4680 H   0  0  0  0  0  0  0  0  0  0  0  0
   -0.8666   -9.8133    3.7403 H   0  0  0  0  0  0  0  0  0  0  0  0
   -0.3422   -8.7930    5.0872 H   0  0  0  0  0  0  0  0  0  0  0  0
   -1.0650   -8.0602    3.6604 H   0  0  0  0  0  0  0  0  0  0  0  0
    0.7802  -10.4708    2.1564 H   0  0  0  0  0  0  0  0  0  0  0  0
    2.9825  -10.1920    1.1032 H   0  0  0  0  0  0  0  0  0  0  0  0
    6.1920   -8.7279   -0.5771 H   0  0  0  0  0  0  0  0  0  0  0  0
    7.6295  -10.6872   -0.9046 H   0  0  0  0  0  0  0  0  0  0  0  0
    8.9150  -12.6825    1.4582 H   0  0  0  0  0  0  0  0  0  0  0  0
    7.5260  -13.6857    1.0610 H   0  0  0  0  0  0  0  0  0  0  0  0
    8.4011  -12.8389   -0.2240 H   0  0  0  0  0  0  0  0  0  0  0  0
    6.4515  -12.1980    2.9071 H   0  0  0  0  0  0  0  0  0  0  0  0
    5.0316  -10.2283    3.2538 H   0  0  0  0  0  0  0  0  0  0  0  0
    7.2186   -7.8995    2.1491 H   0  0  0  0  0  0  0  0  0  0  0  0
   11.5059   -3.9300   -0.1313 H   0  0  0  0  0  0  0  0  0  0  0  0
   13.8447   -3.3529   -0.2980 H   0  0  0  0  0  0  0  0  0  0  0  0
   14.9114   -4.7675   -0.2411 H   0  0  0  0  0  0  0  0  0  0  0  0
   14.7844   -3.7190    1.1602 H   0  0  0  0  0  0  0  0  0  0  0  0
   12.6806   -7.6869    2.9085 H   0  0  0  0  0  0  0  0  0  0  0  0
  1  2  2  0  0  0  0
  2  3  1  0  0  0  0
  3  4  2  0  0  0  0
  3  5  1  0  0  0  0
  5  6  2  0  0  0  0
  6  7  1  0  0  0  0
  7  8  1  0  0  0  0
  7  9  2  0  0  0  0
  9 10  1  0  0  0  0
  9 11  1  0  0  0  0
 11 12  2  0  0  0  0
 12 13  1  0  0  0  0
 13 14  2  0  0  0  0
 14 15  1  0  0  0  0
 15 16  3  0  0  0  0
 14 17  1  0  0  0  0
 17 18  3  0  0  0  0
  1 19  1  0  0  0  0
 19 20  2  0  0  0  0
 20 21  1  0  0  0  0
 21 22  1  0  0  0  0
 22 23  2  0  0  0  0
 23 24  1  0  0  0  0
 24 25  2  0  0  0  0
 25 26  1  0  0  0  0
 25 27  1  0  0  0  0
 27 28  2  0  0  0  0
 21 29  1  0  0  0  0
 29 30  2  0  0  0  0
 30 31  1  0  0  0  0
 31 32  2  0  0  0  0
 32 33  1  0  0  0  0
 32 34  1  0  0  0  0
 34 35  2  0  0  0  0
 20 36  1  0  0  0  0
 36 37  1  0  0  0  0
 37 38  1  0  0  0  0
 38 39  2  0  0  0  0
 39 40  1  0  0  0  0
 40 41  1  0  0  0  0
 41 42  2  0  0  0  0
 42 43  1  0  0  0  0
 43 44  2  0  0  0  0
 44 45  1  0  0  0  0
 44 46  1  0  0  0  0
 46 47  2  0  0  0  0
 40 48  1  0  0  0  0
 48 49  2  0  0  0  0
 49 50  1  0  0  0  0
 50 51  2  0  0  0  0
 51 52  1  0  0  0  0
 51 53  1  0  0  0  0
 53 54  2  0  0  0  0
 39 55  1  0  0  0  0
 55 56  1  0  0  0  0
 38 57  1  0  0  0  0
 57 58  2  0  0  0  0
 58 59  1  0  0  0  0
 59 60  2  0  0  0  0
 60 61  1  0  0  0  0
 61 62  2  0  0  0  0
 62 63  1  0  0  0  0
 63 64  1  0  0  0  0
 63 65  2  0  0  0  0
 65 66  1  0  0  0  0
 66 67  1  0  0  0  0
 65 68  1  0  0  0  0
 68 69  1  0  0  0  0
 68 70  2  0  0  0  0
 60 71  1  0  0  0  0
 71 72  2  0  0  0  0
 72 73  1  0  0  0  0
 73 74  1  0  0  0  0
 74 75  2  0  0  0  0
 75 76  1  0  0  0  0
 76 77  2  0  0  0  0
 77 78  1  0  0  0  0
 78 79  1  0  0  0  0
 77 80  1  0  0  0  0
 80 81  2  0  0  0  0
 80 82  1  0  0  0  0
 76 83  1  0  0  0  0
 73 84  2  0  0  0  0
 84 85  1  0  0  0  0
 72 86  1  0  0  0  0
 86 87  2  0  0  0  0
 87 88  1  0  0  0  0
 87 89  1  0  0  0  0
 89 90  2  0  0  0  0
 90 91  1  0  0  0  0
 91 92  1  0  0  0  0
 92 93  2  0  0  0  0
 93 94  1  0  0  0  0
 94 95  2  0  0  0  0
 95 96  1  0  0  0  0
 95 97  1  0  0  0  0
 97 98  2  0  0  0  0
 91 99  1  0  0  0  0
 99100  2  0  0  0  0
100101  1  0  0  0  0
101102  2  0  0  0  0
102103  1  0  0  0  0
102104  1  0  0  0  0
104105  2  0  0  0  0
 90106  1  0  0  0  0
106107  1  0  0  0  0
107108  1  0  0  0  0
108109  2  0  0  0  0
109110  1  0  0  0  0
110111  1  0  0  0  0
111112  2  0  0  0  0
112113  1  0  0  0  0
113114  2  0  0  0  0
114115  1  0  0  0  0
114116  1  0  0  0  0
116117  2  0  0  0  0
110118  1  0  0  0  0
118119  2  0  0  0  0
119120  1  0  0  0  0
120121  2  0  0  0  0
121122  1  0  0  0  0
121123  1  0  0  0  0
123124  2  0  0  0  0
109125  1  0  0  0  0
125126  1  0  0  0  0
108127  1  0  0  0  0
127128  2  0  0  0  0
128129  1  0  0  0  0
129130  2  0  0  0  0
129131  1  0  0  0  0
131132  2  0  0  0  0
132133  1  0  0  0  0
133134  1  0  0  0  0
133135  2  0  0  0  0
135136  1  0  0  0  0
135137  1  0  0  0  0
137138  2  0  0  0  0
138139  1  0  0  0  0
139140  2  0  0  0  0
140141  1  0  0  0  0
141142  3  0  0  0  0
140143  1  0  0  0  0
143144  3  0  0  0  0
 13  2  1  0  0  0  0
 56 19  1  0  0  0  0
 85 57  1  0  0  0  0
126 89  1  0  0  0  0
139128  1  0  0  0  0
 12  5  1  0  0  0  0
 28 22  1  0  0  0  0
 35 29  1  0  0  0  0
 55 36  2  0  0  0  0
 84 59  1  0  0  0  0
 98 92  1  0  0  0  0
105 99  1  0  0  0  0
125106  2  0  0  0  0
138131  1  0  0  0  0
 47 41  1  0  0  0  0
 54 48  1  0  0  0  0
 70 61  1  0  0  0  0
 88 71  1  0  0  0  0
117111  1  0  0  0  0
124118  1  0  0  0  0
 81 74  1  0  0  0  0
  1145  1  0  0  0  0
  6146  1  0  0  0  0
  8147  1  0  0  0  0
  8148  1  0  0  0  0
  8149  1  0  0  0  0
 11150  1  0  0  0  0
 23151  1  0  0  0  0
 24152  1  0  0  0  0
 26153  1  0  0  0  0
 26154  1  0  0  0  0
 26155  1  0  0  0  0
 27156  1  0  0  0  0
 28157  1  0  0  0  0
 30158  1  0  0  0  0
 31159  1  0  0  0  0
 33160  1  0  0  0  0
 33161  1  0  0  0  0
 33162  1  0  0  0  0
 34163  1  0  0  0  0
 35164  1  0  0  0  0
 42165  1  0  0  0  0
 43166  1  0  0  0  0
 45167  1  0  0  0  0
 45168  1  0  0  0  0
 45169  1  0  0  0  0
 46170  1  0  0  0  0
 47171  1  0  0  0  0
 49172  1  0  0  0  0
 50173  1  0  0  0  0
 52174  1  0  0  0  0
 52175  1  0  0  0  0
 52176  1  0  0  0  0
 53177  1  0  0  0  0
 54178  1  0  0  0  0
 58179  1  0  0  0  0
 62180  1  0  0  0  0
 66181  1  0  0  0  0
 66182  1  0  0  0  0
 67183  1  0  0  0  0
 67184  1  0  0  0  0
 67185  1  0  0  0  0
 70186  1  0  0  0  0
 75187  1  0  0  0  0
 78188  1  0  0  0  0
 78189  1  0  0  0  0
 79190  1  0  0  0  0
 79191  1  0  0  0  0
 79192  1  0  0  0  0
 81193  1  0  0  0  0
 86194  1  0  0  0  0
 93195  1  0  0  0  0
 94196  1  0  0  0  0
 96197  1  0  0  0  0
 96198  1  0  0  0  0
 96199  1  0  0  0  0
 97200  1  0  0  0  0
 98201  1  0  0  0  0
100202  1  0  0  0  0
101203  1  0  0  0  0
103204  1  0  0  0  0
103205  1  0  0  0  0
103206  1  0  0  0  0
104207  1  0  0  0  0
105208  1  0  0  0  0
112209  1  0  0  0  0
113210  1  0  0  0  0
115211  1  0  0  0  0
115212  1  0  0  0  0
115213  1  0  0  0  0
116214  1  0  0  0  0
117215  1  0  0  0  0
119216  1  0  0  0  0
120217  1  0  0  0  0
122218  1  0  0  0  0
122219  1  0  0  0  0
122220  1  0  0  0  0
123221  1  0  0  0  0
124222  1  0  0  0  0
127223  1  0  0  0  0
132224  1  0  0  0  0
134225  1  0  0  0  0
134226  1  0  0  0  0
134227  1  0  0  0  0
137228  1  0  0  0  0
M  END
