247

C         -8.08410        3.89660        3.03930
C         -8.57170        3.41540        4.23820
C         -7.72310        2.83350        5.28910
O         -6.52060        2.65160        5.25670
C         -8.61760        2.63450        6.45210
C         -8.31320        2.12620        7.69720
C         -9.31860        2.00840        8.65240
C         -9.06200        1.45870       10.01840
C        -10.59920        2.42700        8.29450
F        -11.57990        2.31940        9.21460
C        -10.92980        2.94720        7.05260
C         -9.91600        3.04940        6.11650
C         -9.91390        3.51870        4.73250
C        -11.02500        3.83510        3.98840
C        -10.98950        4.14620        2.61550
N        -11.03890        4.37120        1.48980
C        -12.33970        3.80360        4.48630
N        -13.43440        3.77480        4.83480
C         -6.91690        3.47160        2.40400
C         -6.20620        2.25440        2.47410
N         -6.60270        1.10650        3.09500
C         -5.62660        0.16950        3.49900
C         -4.47290        0.59060        4.15290
C         -3.52680       -0.33670        4.54120
C         -3.71010       -1.69370        4.30060
C         -2.69360       -2.69700        4.74990
C         -4.87580       -2.10300        3.66400
C         -5.82530       -1.18610        3.25950
C         -7.94800        0.80370        3.34590
C         -8.31050        0.19030        4.54340
C         -9.63960       -0.07520        4.81580
C        -10.63840        0.25440        3.90970
C        -12.08230        0.01750        4.22080
C        -10.26260        0.82590        2.69560
C         -8.94130        1.09800        2.41220
C         -5.03280        2.32660        1.68810
S         -3.80330        1.18510        1.28500
C         -3.02570        2.34970        0.21150
C         -3.71050        3.55540        0.15780
N         -3.39330        4.65740       -0.61780
C         -2.87080        4.52460       -1.90990
C         -2.08200        5.53910       -2.44910
C         -1.61970        5.45390       -3.74700
C         -1.89630        4.34520       -4.53670
C         -1.36980        4.22920       -5.93500
C         -2.66450        3.32530       -3.98620
C         -3.15760        3.41240       -2.69970
C         -3.80070        5.92550       -0.15940
C         -3.70550        6.24370        1.19220
C         -4.11170        7.48230        1.65030
C         -4.62050        8.43720        0.78260
C         -5.05630        9.78510        1.26920
C         -4.72700        8.10720       -0.56500
C         -4.33320        6.87130       -1.03360
C         -4.85300        3.51730        1.00080
S         -6.16610        4.60560        1.26990
C         -1.88750        1.82950       -0.48760
C         -0.60980        2.31810       -0.71400
N         -0.12410        3.56390       -0.35200
C         -0.49150        4.17250        0.85410
C         -0.84580        3.41460        1.97130
C         -1.17040        4.03330        3.15870
C         -1.12480        5.42110        3.27350
S         -1.56440        6.10220        4.84170
C         -1.18360        7.86860        4.66800
C         -0.77110        6.18070        2.16570
C         -0.47650        5.56090        0.96850
C          0.86290        4.14640       -1.16070
C          1.92470        4.86200       -0.60610
C          2.82710        5.51070       -1.41950
C          2.69550        5.45120       -2.80330
S          3.83490        6.38700       -3.78180
C          2.81730        6.81540       -5.22980
C          1.69570        4.66860       -3.36100
C          0.79160        4.01990       -2.54620
C          0.21560        1.32680       -1.30630
S          1.89360        1.25770       -1.74500
C          1.74850       -0.46070       -2.10980
C          0.43560       -0.90890       -1.99770
N          0.00620       -2.19470       -2.30480
C          0.32050       -2.76470       -3.54200
C          0.55560       -1.96340       -4.65530
C          0.91490       -2.52330       -5.86650
C          1.04020       -3.89970       -5.98820
S          1.49960       -4.73000       -7.47750
C          1.77730       -3.38380       -8.66340
C          0.79480       -4.70720       -4.87800
C          0.44250       -4.15100       -3.67080
C         -0.87210       -2.81820       -1.41200
C         -0.67930       -2.66900       -0.03820
C         -1.54820       -3.25340        0.85450
C         -2.62140       -4.01250        0.39580
S         -3.63500       -4.78720        1.61690
C         -5.14730       -5.21640        0.71000
C         -2.81680       -4.16710       -0.96960
C         -1.95440       -3.56660       -1.86480
C         -0.41040        0.10840       -1.51160
S         -2.05480        0.14590       -1.00000
C          2.89500       -1.28010       -2.22820
C          4.22670       -0.89010       -2.36100
N          4.65570        0.37550       -2.72340
C          5.91120        0.75930       -2.19460
C          6.09640        0.73120       -0.81680
C          7.33970        1.00030       -0.28030
C          8.41980        1.30630       -1.09870
C          9.78130        1.52670       -0.51720
C          8.21590        1.36110       -2.47180
C          6.97940        1.08910       -3.02100
C          4.13010        1.04310       -3.83170
C          3.36410        0.38710       -4.79440
C          2.88570        1.07400       -5.89220
C          3.17690        2.41760       -6.08700
C          2.66620        3.15230       -7.29100
C          3.94730        3.06260       -5.12710
C          4.39830        2.40040       -4.00500
C          5.10500       -1.96200       -2.09100
S          6.82610       -2.10410       -2.04180
C          6.68010       -3.81900       -1.62850
C          5.32310       -4.25840       -1.66290
N          4.90390       -5.55090       -1.55680
C          5.66440       -6.64340       -2.02470
C          6.42790       -6.54400       -3.18450
C          7.15970       -7.62960       -3.62230
C          7.13550       -8.83760       -2.93430
C          7.94500      -10.00980       -3.39460
C          6.34440       -8.93410       -1.79560
C          5.61760       -7.85330       -1.33790
C          3.57730       -5.81850       -1.15350
C          3.05990       -5.24380        0.00270
C          1.76200       -5.51920        0.39130
C          0.95930       -6.37490       -0.35060
C         -0.43810       -6.70090        0.07420
C          1.48900       -6.94640       -1.50420
C          2.77980       -6.67530       -1.90690
C          4.45940       -3.16990       -1.84750
S          2.73620       -3.00490       -1.91070
C          7.72270       -4.61140       -1.17550
C          9.07470       -4.33650       -1.05420
C          9.75840       -3.13810       -1.52760
O          9.27990       -2.14310       -2.04500
C         11.20010       -3.36710       -1.27540
C         12.26190       -2.53090       -1.54690
C         13.54120       -2.96520       -1.21830
Cl        14.91150       -1.97010       -1.52920
C         13.70770       -4.21880       -0.63100
F         14.94370       -4.63190       -0.31640
C         12.64220       -5.06380       -0.35490
C         11.36900       -4.62980       -0.68390
C         10.05160       -5.24610       -0.51480
C          9.82700       -6.46440        0.08530
C         10.85170       -7.32810        0.51840
N         11.63500       -8.08570        0.88180
C          8.56710       -7.01530        0.38270
N          7.58450       -7.52170        0.70100
H         -8.61610        4.70520        2.55220
H         -7.30300        1.81800        7.92080
H         -8.02650        1.14720       10.12070
H         -9.71350        0.60730       10.21210
H         -9.28250        2.21300       10.77320
H        -11.94420        3.25550        6.86030
H         -4.34760        1.63870        4.37560
H         -2.63480       -0.00180        5.05070
H         -1.68870       -2.28520        4.68700
H         -2.87680       -2.97210        5.78910
H         -2.75210       -3.60040        4.14730
H         -5.03490       -3.15380        3.47640
H         -6.72440       -1.51290        2.75700
H         -7.54560       -0.06410        5.26150
H         -9.90300       -0.53330        5.75810
H        -12.19410       -0.59450        5.11200
H        -12.57920       -0.47580        3.38750
H        -12.59190        0.96640        4.39160
H        -11.02060        1.06810        1.96500
H         -8.67500        1.54470        1.46590
H         -1.84450        6.40410       -1.84860
H         -1.02330        6.26120       -4.14710
H         -0.87180        5.14660       -6.23990
H         -0.65770        3.40550       -6.00110
H         -2.17890        4.02350       -6.63430
H         -2.89620        2.45370       -4.58180
H         -3.79040        2.62670       -2.31630
H         -3.32290        5.51250        1.88610
H         -4.04020        7.69930        2.70640
H         -6.08850        9.97690        0.98020
H         -4.43810       10.56700        0.82820
H         -4.98080        9.85230        2.35150
H         -5.14050        8.82760       -1.25580
H         -4.44710        6.62980       -2.07990
H         -0.84530        2.33680        1.91720
H         -1.45020        3.44430        4.01880
H         -1.83290        8.32360        3.92540
H         -1.37660        8.30540        5.64300
H         -0.13720        7.99600        4.40650
H         -0.74230        7.25680        2.21180
H         -0.22300        6.16400        0.11020
H          2.02970        4.92020        0.46670
H          3.63770        6.07870       -0.98970
H          1.84750        7.16480       -4.88980
H          2.71160        5.96240       -5.89350
H          3.34470        7.61490       -5.74050
H          1.60420        4.56420       -4.42920
H          0.00900        3.42380       -2.98720
H          0.45840       -0.89050       -4.57450
H          1.08970       -1.87140       -6.70710
H          2.07860       -3.86750       -9.58730
H          0.85590       -2.83090       -8.82190
H          2.57420       -2.73570       -8.31020
H          0.89970       -5.77680       -4.97400
H          0.28650       -4.78090       -2.80870
H          0.16090       -2.09310        0.31960
H         -1.40320       -3.13350        1.91670
H         -5.50890       -4.34110        0.17900
H         -4.95990       -6.04320        0.03080
H         -5.86880       -5.52010        1.46210
H         -3.64100       -4.74890       -1.35080
H         -2.12220       -3.67710       -2.92570
H          5.26230        0.48170       -0.17650
H          7.47590        0.96210        0.79100
H          9.71720        1.96710        0.47540
H         10.37900        2.17320       -1.15510
H         10.29370        0.56810       -0.42970
H          9.04380        1.59620       -3.12400
H          6.84080        1.10800       -4.09190
H          3.15700       -0.66850       -4.69650
H          2.29270        0.54630       -6.62660
H          1.69370        3.60220       -7.08080
H          3.35180        3.94690       -7.57850
H          2.54260        2.47690       -8.13480
H          4.21150        4.10070       -5.25760
H          4.97600        2.93000       -3.26310
H          6.44870       -5.61570       -3.73630
H          7.75270       -7.53780       -4.52070
H          8.76060      -10.19670       -2.69620
H          8.36930       -9.83040       -4.37920
H          7.33100      -10.90770       -3.43370
H          6.31030       -9.86350       -1.24790
H          5.02160       -7.93630       -0.44290
H          3.68230       -4.59170        0.59750
H          1.36960       -5.06770        1.29030
H         -0.52430       -7.76360        0.29840
H         -1.14210       -6.47090       -0.72460
H         -0.72140       -6.13540        0.95730
H          0.87700       -7.61250       -2.09520
H          3.17840       -7.11990       -2.80660
H          7.42000       -5.59840       -0.85060
H         12.10130       -1.56700       -2.00280
H         12.84160       -6.01970        0.10090
