
  xtb     02112212113D
 energy: -331.774740010376 gnorm: 0.000810992202 xtb: 6.4.1 (unknown)
198215  0     0  0            999 V2000
    4.6963   -6.1272   -5.0381 C   0  0  0  0  0  0  0  0  0  0  0  0
    4.5160   -7.4807   -4.9007 C   0  0  0  0  0  0  0  0  0  0  0  0
    4.8028   -8.3897   -6.0304 C   0  0  0  0  0  0  0  0  0  0  0  0
    5.4166   -8.1344   -7.0445 O   0  0  0  0  0  0  0  0  0  0  0  0
    4.1169   -9.6575   -5.6832 C   0  0  0  0  0  0  0  0  0  0  0  0
    3.9593  -10.7981   -6.4445 C   0  0  0  0  0  0  0  0  0  0  0  0
    3.2311  -11.8683   -5.9335 C   0  0  0  0  0  0  0  0  0  0  0  0
    3.0253  -13.1328   -6.7030 C   0  0  0  0  0  0  0  0  0  0  0  0
    2.6876  -11.7299   -4.6561 C   0  0  0  0  0  0  0  0  0  0  0  0
    1.9607  -12.7533   -4.1630 F   0  0  0  0  0  0  0  0  0  0  0  0
    2.8430  -10.6040   -3.8632 C   0  0  0  0  0  0  0  0  0  0  0  0
    3.5732   -9.5535   -4.3906 C   0  0  0  0  0  0  0  0  0  0  0  0
    3.9466   -8.2583   -3.8296 C   0  0  0  0  0  0  0  0  0  0  0  0
    3.9976   -7.9571   -2.4894 C   0  0  0  0  0  0  0  0  0  0  0  0
    3.4542   -8.7712   -1.4811 C   0  0  0  0  0  0  0  0  0  0  0  0
    2.9976   -9.3890   -0.6268 N   0  0  0  0  0  0  0  0  0  0  0  0
    4.6631   -6.8180   -1.9948 C   0  0  0  0  0  0  0  0  0  0  0  0
    5.2487   -5.9260   -1.5683 N   0  0  0  0  0  0  0  0  0  0  0  0
    4.0516   -5.1222   -4.3030 C   0  0  0  0  0  0  0  0  0  0  0  0
    4.4310   -3.7828   -4.1030 C   0  0  0  0  0  0  0  0  0  0  0  0
    5.5491   -3.1729   -4.5934 N   0  0  0  0  0  0  0  0  0  0  0  0
    6.0526   -3.4402   -5.8737 C   0  0  0  0  0  0  0  0  0  0  0  0
    5.1842   -3.6458   -6.9448 C   0  0  0  0  0  0  0  0  0  0  0  0
    5.6870   -3.9060   -8.2030 C   0  0  0  0  0  0  0  0  0  0  0  0
    7.0581   -3.9588   -8.4311 C   0  0  0  0  0  0  0  0  0  0  0  0
    7.5888   -4.2763   -9.7936 C   0  0  0  0  0  0  0  0  0  0  0  0
    7.9153   -3.7345   -7.3603 C   0  0  0  0  0  0  0  0  0  0  0  0
    7.4262   -3.4785   -6.0943 C   0  0  0  0  0  0  0  0  0  0  0  0
    6.2013   -2.2248   -3.7754 C   0  0  0  0  0  0  0  0  0  0  0  0
    6.4214   -2.5099   -2.4299 C   0  0  0  0  0  0  0  0  0  0  0  0
    7.0236   -1.5686   -1.6207 C   0  0  0  0  0  0  0  0  0  0  0  0
    7.4258   -0.3372   -2.1276 C   0  0  0  0  0  0  0  0  0  0  0  0
    8.0414    0.6875   -1.2263 C   0  0  0  0  0  0  0  0  0  0  0  0
    7.2242   -0.0772   -3.4774 C   0  0  0  0  0  0  0  0  0  0  0  0
    6.6172   -1.0070   -4.2996 C   0  0  0  0  0  0  0  0  0  0  0  0
    3.5371   -3.1376   -3.2129 C   0  0  0  0  0  0  0  0  0  0  0  0
    3.4669   -1.5569   -2.5272 S   0  0  0  0  0  0  0  0  0  0  0  0
    1.9987   -1.9696   -1.6523 C   0  0  0  0  0  0  0  0  0  0  0  0
    1.6353   -3.3039   -1.8270 C   0  0  0  0  0  0  0  0  0  0  0  0
    0.6813   -4.0064   -1.1328 N   0  0  0  0  0  0  0  0  0  0  0  0
    0.2365   -5.2211   -1.7052 C   0  0  0  0  0  0  0  0  0  0  0  0
   -0.3704   -5.2213   -2.9570 C   0  0  0  0  0  0  0  0  0  0  0  0
   -0.7252   -6.4183   -3.5498 C   0  0  0  0  0  0  0  0  0  0  0  0
   -0.4823   -7.6311   -2.9151 C   0  0  0  0  0  0  0  0  0  0  0  0
   -0.7982   -8.9260   -3.5981 C   0  0  0  0  0  0  0  0  0  0  0  0
    0.0889   -7.6159   -1.6474 C   0  0  0  0  0  0  0  0  0  0  0  0
    0.4430   -6.4267   -1.0422 C   0  0  0  0  0  0  0  0  0  0  0  0
    0.3084   -3.7362    0.1887 C   0  0  0  0  0  0  0  0  0  0  0  0
   -0.9549   -4.1330    0.6218 C   0  0  0  0  0  0  0  0  0  0  0  0
   -1.3357   -3.9470    1.9357 C   0  0  0  0  0  0  0  0  0  0  0  0
   -0.4825   -3.3459    2.8515 C   0  0  0  0  0  0  0  0  0  0  0  0
   -0.8654   -3.1840    4.2899 C   0  0  0  0  0  0  0  0  0  0  0  0
    0.7684   -2.9319    2.4064 C   0  0  0  0  0  0  0  0  0  0  0  0
    1.1699   -3.1312    1.1013 C   0  0  0  0  0  0  0  0  0  0  0  0
    2.4952   -3.9291   -2.7632 C   0  0  0  0  0  0  0  0  0  0  0  0
    2.5463   -5.5031   -3.4630 S   0  0  0  0  0  0  0  0  0  0  0  0
    1.2687   -0.9573   -0.9419 C   0  0  0  0  0  0  0  0  0  0  0  0
   -0.1439   -0.9999   -0.8939 C   0  0  0  0  0  0  0  0  0  0  0  0
   -1.0065   -1.8468   -1.4723 N   0  0  0  0  0  0  0  0  0  0  0  0
   -2.1796   -1.3876   -1.1445 N   0  0  0  0  0  0  0  0  0  0  0  0
   -3.3800   -2.0461   -1.5724 C   0  0  0  0  0  0  0  0  0  0  0  0
   -4.2217   -1.1171   -2.4371 C   0  0  0  0  0  0  0  0  0  0  0  0
   -2.2063   -0.3107   -0.4149 N   0  0  0  0  0  0  0  0  0  0  0  0
   -0.9155   -0.0123   -0.2174 C   0  0  0  0  0  0  0  0  0  0  0  0
   -0.3141    1.0832    0.4355 C   0  0  0  0  0  0  0  0  0  0  0  0
    1.0716    1.1222    0.3589 C   0  0  0  0  0  0  0  0  0  0  0  0
    1.8346    0.1417   -0.3044 C   0  0  0  0  0  0  0  0  0  0  0  0
    3.5491    0.3209   -0.2773 Cl  0  0  0  0  0  0  0  0  0  0  0  0
    1.9361    2.3867    1.1517 Cl  0  0  0  0  0  0  0  0  0  0  0  0
   -1.1018    2.0829    1.1281 C   0  0  0  0  0  0  0  0  0  0  0  0
   -2.0961    1.8747    2.0600 C   0  0  0  0  0  0  0  0  0  0  0  0
   -2.5181    0.6229    2.5426 N   0  0  0  0  0  0  0  0  0  0  0  0
   -3.6375    0.0104    1.9814 C   0  0  0  0  0  0  0  0  0  0  0  0
   -3.8414   -1.3560    2.1652 C   0  0  0  0  0  0  0  0  0  0  0  0
   -4.9427   -1.9782    1.6131 C   0  0  0  0  0  0  0  0  0  0  0  0
   -5.8676   -1.2675    0.8552 C   0  0  0  0  0  0  0  0  0  0  0  0
   -7.0750   -1.9433    0.2778 C   0  0  0  0  0  0  0  0  0  0  0  0
   -5.6456    0.0893    0.6585 C   0  0  0  0  0  0  0  0  0  0  0  0
   -4.5509    0.7249    1.2097 C   0  0  0  0  0  0  0  0  0  0  0  0
   -2.0893    0.3336    3.8487 C   0  0  0  0  0  0  0  0  0  0  0  0
   -2.9603   -0.1554    4.8204 C   0  0  0  0  0  0  0  0  0  0  0  0
   -2.5093   -0.3907    6.1031 C   0  0  0  0  0  0  0  0  0  0  0  0
   -1.1905   -0.1359    6.4642 C   0  0  0  0  0  0  0  0  0  0  0  0
   -0.7148   -0.4103    7.8581 C   0  0  0  0  0  0  0  0  0  0  0  0
   -0.3307    0.3620    5.4938 C   0  0  0  0  0  0  0  0  0  0  0  0
   -0.7674    0.5942    4.2034 C   0  0  0  0  0  0  0  0  0  0  0  0
   -2.5518    3.0981    2.6026 C   0  0  0  0  0  0  0  0  0  0  0  0
   -3.7469    3.4989    3.7747 S   0  0  0  0  0  0  0  0  0  0  0  0
   -3.3505    5.2192    3.6194 C   0  0  0  0  0  0  0  0  0  0  0  0
   -2.3898    5.4526    2.6105 C   0  0  0  0  0  0  0  0  0  0  0  0
   -1.9935    6.6583    2.1144 N   0  0  0  0  0  0  0  0  0  0  0  0
   -2.7768    7.8176    2.1870 C   0  0  0  0  0  0  0  0  0  0  0  0
   -2.1724    9.0441    2.4540 C   0  0  0  0  0  0  0  0  0  0  0  0
   -2.9402   10.1879    2.5710 C   0  0  0  0  0  0  0  0  0  0  0  0
   -4.3191   10.1454    2.4185 C   0  0  0  0  0  0  0  0  0  0  0  0
   -5.1613   11.3704    2.5863 C   0  0  0  0  0  0  0  0  0  0  0  0
   -4.9095    8.9230    2.1030 C   0  0  0  0  0  0  0  0  0  0  0  0
   -4.1566    7.7740    1.9890 C   0  0  0  0  0  0  0  0  0  0  0  0
   -0.7328    6.7501    1.4801 C   0  0  0  0  0  0  0  0  0  0  0  0
   -0.6228    7.3674    0.2403 C   0  0  0  0  0  0  0  0  0  0  0  0
    0.6070    7.4341   -0.3875 C   0  0  0  0  0  0  0  0  0  0  0  0
    1.7421    6.8926    0.2018 C   0  0  0  0  0  0  0  0  0  0  0  0
    3.0716    6.9351   -0.4854 C   0  0  0  0  0  0  0  0  0  0  0  0
    1.6219    6.2990    1.4546 C   0  0  0  0  0  0  0  0  0  0  0  0
    0.4015    6.2265    2.0938 C   0  0  0  0  0  0  0  0  0  0  0  0
   -1.9362    4.2233    2.0745 C   0  0  0  0  0  0  0  0  0  0  0  0
   -0.7784    3.7809    0.8686 S   0  0  0  0  0  0  0  0  0  0  0  0
   -4.0244    6.0989    4.4686 C   0  0  0  0  0  0  0  0  0  0  0  0
   -3.5748    7.3432    4.8606 C   0  0  0  0  0  0  0  0  0  0  0  0
   -2.1520    7.7082    4.9362 C   0  0  0  0  0  0  0  0  0  0  0  0
   -1.1929    7.0235    4.6328 O   0  0  0  0  0  0  0  0  0  0  0  0
   -2.1202    9.0354    5.5908 C   0  0  0  0  0  0  0  0  0  0  0  0
   -1.0273    9.8124    5.9122 C   0  0  0  0  0  0  0  0  0  0  0  0
   -1.2223   11.0470    6.5244 C   0  0  0  0  0  0  0  0  0  0  0  0
   -0.0852   11.9437    6.8938 C   0  0  0  0  0  0  0  0  0  0  0  0
   -2.5349   11.4331    6.7925 C   0  0  0  0  0  0  0  0  0  0  0  0
   -2.7332   12.6261    7.3896 F   0  0  0  0  0  0  0  0  0  0  0  0
   -3.6497   10.6687    6.4846 C   0  0  0  0  0  0  0  0  0  0  0  0
   -3.4326    9.4479    5.8706 C   0  0  0  0  0  0  0  0  0  0  0  0
   -4.3566    8.4188    5.3997 C   0  0  0  0  0  0  0  0  0  0  0  0
   -5.7231    8.5356    5.3260 C   0  0  0  0  0  0  0  0  0  0  0  0
   -6.4399    9.6673    5.7546 C   0  0  0  0  0  0  0  0  0  0  0  0
   -7.0725   10.5745    6.0668 N   0  0  0  0  0  0  0  0  0  0  0  0
   -6.5613    7.5729    4.7306 C   0  0  0  0  0  0  0  0  0  0  0  0
   -7.2968    6.8462    4.2299 N   0  0  0  0  0  0  0  0  0  0  0  0
    5.3451   -5.8268   -5.8531 H   0  0  0  0  0  0  0  0  0  0  0  0
    4.3995  -10.8532   -7.4285 H   0  0  0  0  0  0  0  0  0  0  0  0
    3.4277  -13.0430   -7.7077 H   0  0  0  0  0  0  0  0  0  0  0  0
    1.9644  -13.3725   -6.7605 H   0  0  0  0  0  0  0  0  0  0  0  0
    3.5185  -13.9627   -6.1971 H   0  0  0  0  0  0  0  0  0  0  0  0
    2.3928  -10.5709   -2.8846 H   0  0  0  0  0  0  0  0  0  0  0  0
    4.1172   -3.5998   -6.7811 H   0  0  0  0  0  0  0  0  0  0  0  0
    5.0043   -4.0699   -9.0236 H   0  0  0  0  0  0  0  0  0  0  0  0
    8.6197   -3.9476   -9.8981 H   0  0  0  0  0  0  0  0  0  0  0  0
    7.5559   -5.3538   -9.9572 H   0  0  0  0  0  0  0  0  0  0  0  0
    6.9849   -3.8030  -10.5649 H   0  0  0  0  0  0  0  0  0  0  0  0
    8.9834   -3.7708   -7.5163 H   0  0  0  0  0  0  0  0  0  0  0  0
    8.1020   -3.3170   -5.2679 H   0  0  0  0  0  0  0  0  0  0  0  0
    6.1216   -3.4677   -2.0301 H   0  0  0  0  0  0  0  0  0  0  0  0
    7.1865   -1.7935   -0.5771 H   0  0  0  0  0  0  0  0  0  0  0  0
    8.5696    1.4461   -1.7985 H   0  0  0  0  0  0  0  0  0  0  0  0
    7.2627    1.1800   -0.6432 H   0  0  0  0  0  0  0  0  0  0  0  0
    8.7349    0.2222   -0.5290 H   0  0  0  0  0  0  0  0  0  0  0  0
    7.5358    0.8709   -3.8911 H   0  0  0  0  0  0  0  0  0  0  0  0
    6.4539   -0.7916   -5.3455 H   0  0  0  0  0  0  0  0  0  0  0  0
   -0.5439   -4.2789   -3.4556 H   0  0  0  0  0  0  0  0  0  0  0  0
   -1.1860   -6.4126   -4.5272 H   0  0  0  0  0  0  0  0  0  0  0  0
   -1.7211   -8.8509   -4.1691 H   0  0  0  0  0  0  0  0  0  0  0  0
    0.0044   -9.1816   -4.2917 H   0  0  0  0  0  0  0  0  0  0  0  0
   -0.8916   -9.7342   -2.8774 H   0  0  0  0  0  0  0  0  0  0  0  0
    0.2823   -8.5460   -1.1341 H   0  0  0  0  0  0  0  0  0  0  0  0
    0.9043   -6.4262   -0.0657 H   0  0  0  0  0  0  0  0  0  0  0  0
   -1.6306   -4.6017   -0.0782 H   0  0  0  0  0  0  0  0  0  0  0  0
   -2.3119   -4.2844    2.2535 H   0  0  0  0  0  0  0  0  0  0  0  0
   -0.3012   -3.8863    4.9042 H   0  0  0  0  0  0  0  0  0  0  0  0
   -0.6385   -2.1792    4.6384 H   0  0  0  0  0  0  0  0  0  0  0  0
   -1.9247   -3.3770    4.4416 H   0  0  0  0  0  0  0  0  0  0  0  0
    1.4489   -2.4650    3.1034 H   0  0  0  0  0  0  0  0  0  0  0  0
    2.1647   -2.8435    0.7983 H   0  0  0  0  0  0  0  0  0  0  0  0
   -3.9442   -2.3323   -0.6801 H   0  0  0  0  0  0  0  0  0  0  0  0
   -3.0672   -2.9362   -2.1207 H   0  0  0  0  0  0  0  0  0  0  0  0
   -3.6784   -0.8290   -3.3339 H   0  0  0  0  0  0  0  0  0  0  0  0
   -5.1396   -1.6187   -2.7289 H   0  0  0  0  0  0  0  0  0  0  0  0
   -4.4706   -0.2245   -1.8698 H   0  0  0  0  0  0  0  0  0  0  0  0
   -3.1216   -1.9219    2.7350 H   0  0  0  0  0  0  0  0  0  0  0  0
   -5.0870   -3.0387    1.7708 H   0  0  0  0  0  0  0  0  0  0  0  0
   -7.3825   -1.4636   -0.6488 H   0  0  0  0  0  0  0  0  0  0  0  0
   -7.9087   -1.8824    0.9782 H   0  0  0  0  0  0  0  0  0  0  0  0
   -6.8785   -2.9957    0.0834 H   0  0  0  0  0  0  0  0  0  0  0  0
   -6.3503    0.6625    0.0726 H   0  0  0  0  0  0  0  0  0  0  0  0
   -4.4045    1.7806    1.0409 H   0  0  0  0  0  0  0  0  0  0  0  0
   -3.9953   -0.3326    4.5698 H   0  0  0  0  0  0  0  0  0  0  0  0
   -3.1993   -0.7649    6.8457 H   0  0  0  0  0  0  0  0  0  0  0  0
   -0.5445   -1.4791    7.9931 H   0  0  0  0  0  0  0  0  0  0  0  0
    0.2176    0.1110    8.0605 H   0  0  0  0  0  0  0  0  0  0  0  0
   -1.4591   -0.0971    8.5874 H   0  0  0  0  0  0  0  0  0  0  0  0
    0.6986    0.5717    5.7482 H   0  0  0  0  0  0  0  0  0  0  0  0
   -0.0809    0.9785    3.4636 H   0  0  0  0  0  0  0  0  0  0  0  0
   -1.1015    9.0898    2.5837 H   0  0  0  0  0  0  0  0  0  0  0  0
   -2.4563   11.1261    2.8006 H   0  0  0  0  0  0  0  0  0  0  0  0
   -4.5462   12.2392    2.8056 H   0  0  0  0  0  0  0  0  0  0  0  0
   -5.7345   11.5656    1.6811 H   0  0  0  0  0  0  0  0  0  0  0  0
   -5.8715   11.2352    3.4018 H   0  0  0  0  0  0  0  0  0  0  0  0
   -5.9782    8.8719    1.9540 H   0  0  0  0  0  0  0  0  0  0  0  0
   -4.6370    6.8370    1.7501 H   0  0  0  0  0  0  0  0  0  0  0  0
   -1.5017    7.7848   -0.2293 H   0  0  0  0  0  0  0  0  0  0  0  0
    0.6810    7.9079   -1.3556 H   0  0  0  0  0  0  0  0  0  0  0  0
    3.0196    7.5130   -1.4044 H   0  0  0  0  0  0  0  0  0  0  0  0
    3.3969    5.9242   -0.7293 H   0  0  0  0  0  0  0  0  0  0  0  0
    3.8244    7.3772    0.1653 H   0  0  0  0  0  0  0  0  0  0  0  0
    2.4985    5.8889    1.9340 H   0  0  0  0  0  0  0  0  0  0  0  0
    0.3126    5.7902    3.0763 H   0  0  0  0  0  0  0  0  0  0  0  0
   -4.9578    5.7335    4.8803 H   0  0  0  0  0  0  0  0  0  0  0  0
   -0.0318    9.4631    5.6833 H   0  0  0  0  0  0  0  0  0  0  0  0
   -0.0634   12.0960    7.9725 H   0  0  0  0  0  0  0  0  0  0  0  0
   -0.2096   12.9223    6.4316 H   0  0  0  0  0  0  0  0  0  0  0  0
    0.8620   11.5165    6.5774 H   0  0  0  0  0  0  0  0  0  0  0  0
   -4.6310   11.0375    6.7339 H   0  0  0  0  0  0  0  0  0  0  0  0
  1  2  2  0  0  0  0
  2  3  1  0  0  0  0
  3  4  2  0  0  0  0
  3  5  1  0  0  0  0
  5  6  2  0  0  0  0
  6  7  1  0  0  0  0
  7  8  1  0  0  0  0
  7  9  2  0  0  0  0
  9 10  1  0  0  0  0
  9 11  1  0  0  0  0
 11 12  2  0  0  0  0
 12 13  1  0  0  0  0
 13 14  2  0  0  0  0
 14 15  1  0  0  0  0
 15 16  3  0  0  0  0
 14 17  1  0  0  0  0
 17 18  3  0  0  0  0
  1 19  1  0  0  0  0
 19 20  2  0  0  0  0
 20 21  1  0  0  0  0
 21 22  1  0  0  0  0
 22 23  2  0  0  0  0
 23 24  1  0  0  0  0
 24 25  2  0  0  0  0
 25 26  1  0  0  0  0
 25 27  1  0  0  0  0
 27 28  2  0  0  0  0
 21 29  1  0  0  0  0
 29 30  2  0  0  0  0
 30 31  1  0  0  0  0
 31 32  2  0  0  0  0
 32 33  1  0  0  0  0
 32 34  1  0  0  0  0
 34 35  2  0  0  0  0
 20 36  1  0  0  0  0
 36 37  1  0  0  0  0
 37 38  1  0  0  0  0
 38 39  2  0  0  0  0
 39 40  1  0  0  0  0
 40 41  1  0  0  0  0
 41 42  2  0  0  0  0
 42 43  1  0  0  0  0
 43 44  2  0  0  0  0
 44 45  1  0  0  0  0
 44 46  1  0  0  0  0
 46 47  2  0  0  0  0
 40 48  1  0  0  0  0
 48 49  2  0  0  0  0
 49 50  1  0  0  0  0
 50 51  2  0  0  0  0
 51 52  1  0  0  0  0
 51 53  1  0  0  0  0
 53 54  2  0  0  0  0
 39 55  1  0  0  0  0
 55 56  1  0  0  0  0
 38 57  1  0  0  0  0
 57 58  1  0  0  0  0
 58 59  2  0  0  0  0
 59 60  1  0  0  0  0
 60 61  1  0  0  0  0
 61 62  1  0  0  0  0
 60 63  1  0  0  0  0
 63 64  2  0  0  0  0
 64 65  1  0  0  0  0
 65 66  2  0  0  0  0
 66 67  1  0  0  0  0
 67 68  1  0  0  0  0
 66 69  1  0  0  0  0
 65 70  1  0  0  0  0
 70 71  2  0  0  0  0
 71 72  1  0  0  0  0
 72 73  1  0  0  0  0
 73 74  2  0  0  0  0
 74 75  1  0  0  0  0
 75 76  2  0  0  0  0
 76 77  1  0  0  0  0
 76 78  1  0  0  0  0
 78 79  2  0  0  0  0
 72 80  1  0  0  0  0
 80 81  2  0  0  0  0
 81 82  1  0  0  0  0
 82 83  2  0  0  0  0
 83 84  1  0  0  0  0
 83 85  1  0  0  0  0
 85 86  2  0  0  0  0
 71 87  1  0  0  0  0
 87 88  1  0  0  0  0
 88 89  1  0  0  0  0
 89 90  2  0  0  0  0
 90 91  1  0  0  0  0
 91 92  1  0  0  0  0
 92 93  2  0  0  0  0
 93 94  1  0  0  0  0
 94 95  2  0  0  0  0
 95 96  1  0  0  0  0
 95 97  1  0  0  0  0
 97 98  2  0  0  0  0
 91 99  1  0  0  0  0
 99100  2  0  0  0  0
100101  1  0  0  0  0
101102  2  0  0  0  0
102103  1  0  0  0  0
102104  1  0  0  0  0
104105  2  0  0  0  0
 90106  1  0  0  0  0
106107  1  0  0  0  0
 89108  1  0  0  0  0
108109  2  0  0  0  0
109110  1  0  0  0  0
110111  2  0  0  0  0
110112  1  0  0  0  0
112113  2  0  0  0  0
113114  1  0  0  0  0
114115  1  0  0  0  0
114116  2  0  0  0  0
116117  1  0  0  0  0
116118  1  0  0  0  0
118119  2  0  0  0  0
119120  1  0  0  0  0
120121  2  0  0  0  0
121122  1  0  0  0  0
122123  3  0  0  0  0
121124  1  0  0  0  0
124125  3  0  0  0  0
 13  2  1  0  0  0  0
 56 19  1  0  0  0  0
 67 57  2  0  0  0  0
107 70  1  0  0  0  0
120109  1  0  0  0  0
 12  5  1  0  0  0  0
 28 22  1  0  0  0  0
 35 29  1  0  0  0  0
 55 36  2  0  0  0  0
 64 58  1  0  0  0  0
 79 73  1  0  0  0  0
 86 80  1  0  0  0  0
106 87  2  0  0  0  0
119112  1  0  0  0  0
 47 41  1  0  0  0  0
 54 48  1  0  0  0  0
 98 92  1  0  0  0  0
105 99  1  0  0  0  0
  1126  1  0  0  0  0
  6127  1  0  0  0  0
  8128  1  0  0  0  0
  8129  1  0  0  0  0
  8130  1  0  0  0  0
 11131  1  0  0  0  0
 23132  1  0  0  0  0
 24133  1  0  0  0  0
 26134  1  0  0  0  0
 26135  1  0  0  0  0
 26136  1  0  0  0  0
 27137  1  0  0  0  0
 28138  1  0  0  0  0
 30139  1  0  0  0  0
 31140  1  0  0  0  0
 33141  1  0  0  0  0
 33142  1  0  0  0  0
 33143  1  0  0  0  0
 34144  1  0  0  0  0
 35145  1  0  0  0  0
 42146  1  0  0  0  0
 43147  1  0  0  0  0
 45148  1  0  0  0  0
 45149  1  0  0  0  0
 45150  1  0  0  0  0
 46151  1  0  0  0  0
 47152  1  0  0  0  0
 49153  1  0  0  0  0
 50154  1  0  0  0  0
 52155  1  0  0  0  0
 52156  1  0  0  0  0
 52157  1  0  0  0  0
 53158  1  0  0  0  0
 54159  1  0  0  0  0
 61160  1  0  0  0  0
 61161  1  0  0  0  0
 62162  1  0  0  0  0
 62163  1  0  0  0  0
 62164  1  0  0  0  0
 74165  1  0  0  0  0
 75166  1  0  0  0  0
 77167  1  0  0  0  0
 77168  1  0  0  0  0
 77169  1  0  0  0  0
 78170  1  0  0  0  0
 79171  1  0  0  0  0
 81172  1  0  0  0  0
 82173  1  0  0  0  0
 84174  1  0  0  0  0
 84175  1  0  0  0  0
 84176  1  0  0  0  0
 85177  1  0  0  0  0
 86178  1  0  0  0  0
 93179  1  0  0  0  0
 94180  1  0  0  0  0
 96181  1  0  0  0  0
 96182  1  0  0  0  0
 96183  1  0  0  0  0
 97184  1  0  0  0  0
 98185  1  0  0  0  0
100186  1  0  0  0  0
101187  1  0  0  0  0
103188  1  0  0  0  0
103189  1  0  0  0  0
103190  1  0  0  0  0
104191  1  0  0  0  0
105192  1  0  0  0  0
108193  1  0  0  0  0
113194  1  0  0  0  0
115195  1  0  0  0  0
115196  1  0  0  0  0
115197  1  0  0  0  0
118198  1  0  0  0  0
M  END
