250

C         -3.84260        5.11350       -6.68020
C         -3.63140        6.44330       -7.00030
C         -3.49000        7.51310       -6.00480
O         -3.50190        7.40780       -4.79130
C         -3.45580        8.77340       -6.78150
C         -3.34290       10.06850       -6.32230
C         -3.31380       11.11830       -7.23580
C         -3.18740       12.54550       -6.80960
C         -3.40990       10.79760       -8.58870
F         -3.38390       11.80860       -9.48190
C         -3.53090        9.50520       -9.07570
C         -3.55290        8.47720       -8.15010
C         -3.64350        7.02700       -8.30890
C         -3.57400        6.34350       -9.49970
C         -3.46140        6.96440      -10.75610
N         -3.34810        7.41890      -11.80570
C         -3.51640        4.94020       -9.59900
N         -3.43150        3.80440       -9.75050
C         -3.43890        4.48360       -5.50750
C         -2.42770        4.81240       -4.57250
N         -1.43740        5.73130       -4.73020
C         -0.72120        6.17620       -3.59050
C         -1.37770        6.82800       -2.55470
C         -0.65640        7.27060       -1.46170
C          0.71170        7.04790       -1.36610
C          1.48640        7.47980       -0.15890
C          1.35550        6.39600       -2.41260
C          0.65350        5.97480       -3.52380
C         -1.00160        6.20530       -5.97560
C         -0.64480        7.54490       -6.11000
C         -0.25440        8.04120       -7.33980
C         -0.19780        7.22180       -8.45900
C          0.17000        7.76220       -9.80440
C         -0.50190        5.87110       -8.30220
C         -0.89840        5.36430       -7.08300
C         -2.46160        3.91860       -3.47990
S         -1.54110        3.78650       -2.01550
C         -2.31780        2.25560       -1.65030
C         -3.30110        1.92330       -2.57300
N         -4.09790        0.79160       -2.44770
C         -4.19730       -0.10520       -3.52020
C         -3.09520       -0.33860       -4.33550
C         -3.18280       -1.23620       -5.38170
C         -4.36040       -1.92330       -5.63950
C         -4.45290       -2.93190       -6.74160
C         -5.46230       -1.66990       -4.82940
C         -5.39080       -0.77140       -3.78620
C         -4.83260        0.60780       -1.27180
C         -5.40370        1.69380       -0.61330
C         -6.15340        1.49230        0.52880
C         -6.33320        0.22310        1.06290
C         -7.12340        0.02060        2.32030
C         -5.74160       -0.85240        0.41020
C         -5.00850       -0.66970       -0.74390
C         -3.36780        2.87170       -3.61250
S         -4.26960        2.97550       -5.07580
C         -1.75300        1.38140       -0.68700
C         -0.91120        1.72000        0.36130
N         -0.73380        3.01480        0.83070
C          0.56690        3.46110        1.08240
C          0.84960        4.28170        2.17090
C          2.13500        4.73260        2.39930
C          3.16390        4.36450        1.54280
S          4.83720        4.90610        1.71920
C          4.73750        6.21760        2.97200
C          2.89130        3.52140        0.46810
C          1.60960        3.07650        0.23810
C         -1.84730        3.81050        1.11840
C         -3.03580        3.23800        1.56170
C         -4.12960        4.02710        1.85960
C         -4.06110        5.40370        1.70340
S         -5.38970        6.51080        2.06560
C         -6.82490        5.41480        2.25240
C         -2.87540        5.97960        1.25220
C         -1.78220        5.19610        0.96410
C         -0.27190        0.57850        0.89120
S          0.89830        0.32960        2.13530
C          0.90600       -1.40120        1.79620
C          0.09930       -1.74460        0.71730
N          0.04700       -2.96770        0.08360
C         -1.13110       -3.27960       -0.63600
C         -1.08760       -3.45660       -2.01930
C         -2.23070       -3.77850       -2.71370
C         -3.44030       -3.94570       -2.04050
S         -4.82260       -4.41590       -3.02860
C         -6.24760       -4.23050       -1.91760
C         -3.48700       -3.76740       -0.66430
C         -2.34070       -3.42660        0.03060
C          1.18130       -3.75750       -0.15260
C          2.47740       -3.24390       -0.09000
C          3.56310       -4.05750       -0.32640
C          3.38910       -5.39730       -0.66690
S          4.84870       -6.33820       -0.96930
C          4.26690       -8.05700       -0.97060
C          2.10110       -5.90140       -0.77750
C          1.01370       -5.09520       -0.50420
C         -0.61050       -0.60630        0.25500
S         -1.80240       -0.35520       -0.97240
C          1.70820       -2.23080        2.63230
C          1.42150       -3.48620        3.13740
N          0.16790       -4.10830        2.98610
C         -0.78520       -3.62220        3.93780
C         -0.94950       -4.28610        5.15110
C         -1.85060       -3.81810        6.08490
C         -2.60340       -2.67320        5.84200
C         -3.58660       -2.18390        6.86100
C         -2.42450       -2.01220        4.63600
C         -1.52640       -2.47700        3.69030
C          0.10470       -5.46360        2.64790
C          1.22000       -6.16660        2.19980
C          1.11310       -7.50280        1.86790
C         -0.09560       -8.17790        1.94160
C         -0.18820       -9.62850        1.57900
C         -1.21690       -7.45590        2.33250
C         -1.12440       -6.12380        2.67920
C          2.48700       -3.95980        3.93480
S          2.78810       -5.43570        4.77730
C          4.39720       -4.87220        5.24790
C          4.64280       -3.56150        4.80570
N          5.79980       -2.86650        5.00450
C          5.77790       -1.45990        4.95890
C          4.77390       -0.75260        5.61390
C          4.74140        0.62700        5.54690
C          5.70710        1.33150        4.84150
C          5.66520        2.82390        4.74290
C          6.72430        0.61620        4.21620
C          6.76610       -0.76130        4.27030
C          7.04970       -3.50850        5.15350
C          7.92400       -3.08740        6.14870
C          9.14330       -3.71730        6.30510
C          9.51590       -4.77090        5.47920
C         10.81750       -5.48050        5.68760
C          8.64330       -5.16230        4.46970
C          7.42510       -4.53690        4.29510
C          3.55000       -3.07530        4.05380
S          3.25870       -1.61940        3.17060
C          5.23560       -5.68080        6.02750
C          5.21420       -7.04690        6.13990
C          5.83380       -7.70260        7.31200
O          6.52950       -7.18220        8.15820
C          5.39410       -9.11470        7.24570
C          5.60630      -10.13560        8.14990
C          5.07430      -11.39620        7.89700
C          5.26640      -12.54630        8.83160
C          4.34070      -11.56380        6.72230
F          3.80870      -12.77820        6.47730
C          4.12280      -10.56040        5.79160
C          4.66300       -9.31540        6.06220
C          4.65810       -8.07130        5.29350
C          4.43690       -7.99650        3.93860
C          4.74010       -6.86670        3.15470
N          5.03820       -5.99550        2.46670
C          4.00400       -9.07280        3.14460
N          3.64680       -9.89470        2.42490
H         -4.40140        4.49940       -7.37620
H         -3.27200       10.26060       -5.26230
H         -2.31740       13.00450       -7.27790
H         -3.09290       12.61920       -5.73010
H         -4.06250       13.11060       -7.12930
H         -3.60880        9.34470      -10.13830
H         -2.43880        7.00460       -2.63540
H         -1.16760        7.80410       -0.67410
H          1.72070        6.61110        0.45800
H          0.91590        8.18460        0.44110
H          2.42680        7.94310       -0.45090
H          2.41920        6.21840       -2.35340
H          1.15960        5.47980       -4.33970
H         -0.69510        8.19490       -5.24940
H         -0.00450        9.08820       -7.43080
H          0.50440        8.79370       -9.73280
H         -0.69030        7.72540      -10.47320
H          0.96050        7.16450      -10.25470
H         -0.43580        5.20900       -9.15320
H         -1.13370        4.31490       -6.98810
H         -2.16610        0.17530       -4.13470
H         -2.31460       -1.41090       -6.00070
H         -3.55740       -2.92150       -7.35740
H         -4.57410       -3.92960       -6.31910
H         -5.31550       -2.73050       -7.37430
H         -6.39090       -2.18640       -5.02370
H         -6.25800       -0.57740       -3.17180
H         -5.27170        2.69050       -1.00920
H         -6.62710        2.33720        1.00740
H         -7.64030       -0.93630        2.30440
H         -6.45960        0.02740        3.18630
H         -7.85640        0.81350        2.45090
H         -5.85780       -1.84710        0.81760
H         -4.54790       -1.50670       -1.24550
H          0.05640        4.56710        2.84550
H          2.31990        5.36420        3.25340
H          5.72640        6.66400        3.00640
H          4.49300        5.79520        3.94230
H          4.00650        6.96060        2.66720
H          3.69620        3.23210       -0.18980
H          1.40120        2.44140       -0.60970
H         -3.10670        2.16710        1.68480
H         -5.02300        3.55110        2.22710
H         -6.72020        4.80250        3.14360
H         -7.68320        6.07090        2.35800
H         -6.93390        4.80470        1.36050
H         -2.83050        7.05060        1.12820
H         -0.87180        5.64430        0.60010
H         -0.14940       -3.33760       -2.54000
H         -2.20630       -3.90370       -3.78490
H         -6.19730       -4.95970       -1.11420
H         -7.12110       -4.42490       -2.53190
H         -6.28480       -3.21540       -1.53440
H         -4.40590       -3.90420       -0.11730
H         -2.38010       -3.29710        1.10140
H          2.64210       -2.20020        0.12830
H          4.56370       -3.66000       -0.25740
H          3.63620       -8.24410       -1.83480
H          3.74170       -8.26860       -0.04430
H          5.16160       -8.66890       -1.03070
H          1.92530       -6.92760       -1.05540
H          0.02030       -5.51310       -0.56350
H         -0.36640       -5.17400        5.35040
H         -1.96850       -4.34340        7.02170
H         -3.94240       -1.18730        6.61260
H         -4.44480       -2.85460        6.90710
H         -3.13260       -2.15900        7.84990
H         -2.99500       -1.11880        4.42450
H         -1.40440       -1.94360        2.76230
H          2.17270       -5.67320        2.08990
H          1.99580       -8.03520        1.54720
H          0.78100      -10.11030        1.68420
H         -0.90990      -10.14100        2.21180
H         -0.51280       -9.73910        0.54340
H         -2.17980       -7.94570        2.37180
H         -2.01110       -5.58630        2.98230
H          4.02240       -1.28770        6.17650
H          3.95050        1.16100        6.05320
H          6.58550        3.25950        5.12980
H          5.56870        3.12400        3.70010
H          4.82430        3.22530        5.30320
H          7.48670        1.15010        3.66810
H          7.55240       -1.30720        3.77070
H          7.63790       -2.27470        6.80060
H          9.81210       -3.39130        7.08810
H         11.16350       -5.93880        4.76440
H         11.58000       -4.79620        6.05270
H         10.69020       -6.26890        6.43020
H          8.92400       -5.96360        3.80190
H          6.76080       -4.84340        3.50090
H          5.94130       -5.17620        6.67900
H          6.18190       -9.95090        9.04410
H          5.80600      -13.35020        8.33150
H          5.82350      -12.23930        9.71190
H          4.30140      -12.94670        9.14000
H          3.54140      -10.77000        4.90850
