228

C         -6.66300        7.92170       -0.59190
C         -6.06170        9.04230       -0.05510
C         -4.94720        8.99120        0.90310
O         -4.37830        8.00290        1.32880
C         -4.74480       10.38810        1.34740
C         -3.82680       10.88120        2.25070
C         -3.79300       12.24720        2.51460
C         -2.82120       12.85110        3.47610
C         -4.71140       13.05550        1.84590
F         -4.68700       14.38040        2.09620
C         -5.64820       12.58400        0.93930
C         -5.66040       11.22340        0.68800
C         -6.47780       10.40720       -0.20690
C         -7.35880       10.88130       -1.14790
C         -8.01830       10.06620       -2.08840
N         -8.56350        9.46240       -2.89970
C         -7.64200       12.24510       -1.34380
N         -7.89350       13.34460       -1.56300
C         -6.05400        6.67800       -0.76510
C         -4.69520        6.32130       -0.90260
N         -3.63550        7.15910       -1.07890
C         -2.33430        6.69190       -0.77910
C         -2.06340        6.10050        0.44950
C         -0.79200        5.63080        0.72050
C          0.22790        5.74270       -0.21560
C          1.60550        5.22740        0.06620
C         -0.05180        6.35740       -1.43260
C         -1.31640        6.83090       -1.71730
C         -3.75430        8.46010       -1.58640
C         -2.96720        9.47970       -1.05580
C         -3.10220       10.77570       -1.51760
C         -4.01160       11.08990       -2.51820
C         -4.19770       12.49690       -2.99040
C         -4.75860       10.05490       -3.07770
C         -4.63730        8.75910       -2.62350
C         -4.56630        4.91300       -0.96680
S         -3.21890        3.84130       -1.09600
C         -4.29220        2.44840       -1.11940
C         -5.62480        2.80200       -1.03810
N         -6.70780        1.94390       -1.11460
C         -7.79890        2.31680       -1.91510
C         -7.59140        3.00180       -3.11070
C         -8.66580        3.39130       -3.88350
C         -9.96990        3.09950       -3.50010
C        -11.12460        3.54480       -4.34330
C        -10.16630        2.40160       -2.31550
C         -9.10070        2.01690       -1.52580
C         -6.76580        0.76810       -0.35350
C         -6.39820        0.77180        0.99010
C         -6.48420       -0.38950        1.73430
C         -6.94070       -1.57360        1.16550
C         -7.03440       -2.82460        1.98230
C         -7.30760       -1.56470       -0.17440
C         -7.22420       -0.41230       -0.92970
C         -5.76310        4.21430       -0.95760
S         -7.12330        5.26830       -0.87210
C         -3.61270        1.18120       -1.21190
C         -3.56030        0.14330       -0.33870
C         -2.54130       -0.80160       -0.63460
C         -2.14890       -1.90760        0.13440
C         -2.75460       -2.23680        1.43150
C         -2.91440       -1.25870        2.40880
C         -3.38560       -1.61150        3.65740
F         -3.51730       -0.63890        4.58370
C         -3.70300       -2.91670        4.01600
C         -4.18350       -3.27800        5.39080
C         -5.71000       -3.22720        5.47970
C         -3.54780       -3.86080        3.00630
F         -3.84740       -5.14790        3.27930
C         -3.08810       -3.55210        1.74150
C         -1.04590       -2.61720       -0.31820
C         -0.34150       -2.28690       -1.50070
C         -0.76700       -1.21410       -2.30100
C         -0.07260       -0.89220       -3.55220
C          0.24220       -1.90900       -4.45090
C          0.90080       -1.60550       -5.62490
C          1.28930       -0.31610       -5.97190
C          1.97830       -0.00490       -7.26690
C          0.95230        0.31330       -8.35720
C          0.94770        0.67080       -5.05430
C          0.28200        0.41410       -3.87330
F          1.29610        1.94720       -5.32160
F          1.18810       -2.61500       -6.47310
C         -1.83540       -0.47160       -1.81900
S         -2.44660        1.00200       -2.51420
C          0.86740       -3.02030       -1.61440
C          1.09810       -3.85700       -0.56650
S         -0.23940       -3.88100        0.56930
C          2.32390       -4.51580       -0.23680
C          3.59280       -3.95780       -0.31260
N          3.89170       -2.66840       -0.71410
C          5.13440       -2.45540       -1.34280
C          5.57430       -3.33900       -2.32480
C          6.82050       -3.17690       -2.89410
C          7.65190       -2.13180       -2.51000
C          9.02320       -2.00500       -3.09680
C          7.19000       -1.23600       -1.55460
C          5.94750       -1.39050       -0.97190
C          3.05260       -1.58690       -0.42420
C          2.95140       -0.52220       -1.31600
C          2.07790        0.51850       -1.06600
C          1.25810        0.51790        0.05380
C          0.26040        1.60880        0.29960
C          1.39120       -0.52960        0.95990
C          2.28560       -1.55590        0.74080
C          4.57210       -4.87040        0.15640
S          6.29450       -4.81580        0.25070
C          6.30990       -6.40710        1.01870
C          5.00930       -6.97260        1.09810
N          4.70370       -8.21760        1.57080
C          3.44720       -8.40470        2.18500
C          3.00580       -7.49700        3.14470
C          1.76610       -7.65690        3.72770
C          0.94180       -8.72180        3.37890
C         -0.41130       -8.86220        4.00300
C          1.40230       -9.63380        2.43760
C          2.63980       -9.48290        1.84200
C          5.52800       -9.33940        1.36870
C          6.25700       -9.48500        0.19070
C          7.06460      -10.58990        0.01130
C          7.15320      -11.58070        0.98270
C          8.04860      -12.76700        0.80190
C          6.39760      -11.43990        2.14070
C          5.59620      -10.33380        2.34110
C          4.04360       -6.06530        0.62710
S          2.31540       -6.11130        0.48910
C          7.42980       -6.98820        1.60460
C          8.74870       -6.58530        1.60720
C          9.32290       -5.48840        0.82710
O          8.74350       -4.68510        0.11550
C         10.78220       -5.55740        1.04370
C         11.77020       -4.74610        0.52410
C         13.09870       -4.98820        0.85790
C         14.22080       -4.15180        0.33440
C         13.36170       -6.05750        1.71420
F         14.64590       -6.30220        2.04130
C         12.38770       -6.88410        2.25240
C         11.07130       -6.62610        1.90800
C          9.81580       -7.26760        2.29810
C          9.70390       -8.30560        3.19180
C          8.49750       -8.84250        3.67940
N          7.56390       -9.31900        4.15300
C         10.80450       -8.95970        3.78050
N         11.65430       -9.54620        4.28340
H         -7.70780        7.97820       -0.87280
H         -3.13810       10.20940        2.74040
H         -2.14420       12.09670        3.86610
H         -3.35470       13.31270        4.30660
H         -2.24300       13.63480        2.98800
H         -6.32850       13.27660        0.47160
H         -2.84910        6.03940        1.18610
H         -0.59070        5.17470        1.67870
H          2.33350        6.03480       -0.00060
H          1.66420        4.78840        1.05850
H          1.88520        4.47050       -0.66530
H          0.73210        6.45870       -2.16880
H         -1.52600        7.30190       -2.66660
H         -2.26270        9.25070       -0.27040
H         -2.49860       11.55700       -1.07910
H         -4.04610       12.56140       -4.06680
H         -3.50100       13.16930       -2.49680
H         -5.21210       12.83640       -2.78100
H         -5.45280       10.27240       -3.87630
H         -5.23030        7.97480       -3.06980
H         -6.58380        3.22220       -3.43310
H         -8.49000        3.92700       -4.80500
H        -12.04710        3.06540       -4.02610
H        -11.25230        4.62420       -4.26100
H        -10.94820        3.31040       -5.39160
H        -11.17080        2.16360       -1.99660
H         -9.27200        1.48700       -0.60060
H         -6.05290        1.69000        1.44400
H         -6.20140       -0.37410        2.77730
H         -7.59770       -3.59060        1.45560
H         -6.03730       -3.21270        2.18920
H         -7.52170       -2.62370        2.93440
H         -7.66450       -2.47460       -0.63460
H         -7.51780       -0.41450       -1.96880
H         -4.20090        0.06510        0.51790
H         -2.63950       -0.23310        2.22220
H         -3.75720       -2.57910        6.11240
H         -3.84280       -4.28560        5.63520
H         -6.02990       -3.46820        6.49010
H         -6.15480       -3.94570        4.79540
H         -6.07200       -2.23210        5.23110
H         -2.99400       -4.33750        1.00890
H         -0.04290       -2.93050       -4.25490
H          2.57860       -0.86310       -7.57330
H          2.63710        0.85400       -7.12840
H          0.34700        1.17010       -8.06980
H          1.45990        0.54370       -9.29020
H          0.29540       -0.53820       -8.52020
H          0.06160        1.23150       -3.20770
H          1.57010       -2.88520       -2.41570
H          4.93640       -4.15680       -2.62860
H          7.15730       -3.87680       -3.64480
H          9.66800       -2.77630       -2.67600
H          8.99820       -2.14260       -4.17630
H          9.45720       -1.03350       -2.87420
H          7.81900       -0.41380       -1.24530
H          5.60650       -0.69890       -0.21550
H          3.55370       -0.52000       -2.21270
H          2.02570        1.33730       -1.76800
H         -0.72920        1.18520        0.46610
H          0.20420        2.29390       -0.54240
H          0.52950        2.17870        1.18810
H          0.78390       -0.53930        1.85410
H          2.38530       -2.34840        1.46780
H          3.64290       -6.67200        3.42860
H          1.43060       -6.94550        4.46800
H         -0.86660       -9.81330        3.74030
H         -0.34220       -8.79300        5.08720
H         -1.06500       -8.06020        3.66040
H          0.78020      -10.47080        2.15640
H          2.98250      -10.19200        1.10320
H          6.19200       -8.72790       -0.57710
H          7.62950      -10.68720       -0.90460
H          8.91500      -12.68250        1.45820
H          7.52600      -13.68570        1.06100
H          8.40110      -12.83890       -0.22400
H          6.45150      -12.19800        2.90710
H          5.03160      -10.22830        3.25380
H          7.21860       -7.89950        2.14910
H         11.50590       -3.93000       -0.13130
H         13.84470       -3.35290       -0.29800
H         14.91140       -4.76750       -0.24110
H         14.78440       -3.71900        1.16020
H         12.68060       -7.68690        2.90850
