190

C         -1.91490       -0.88160       -5.40190
C         -1.06700       -0.80680       -6.49170
C          0.37420       -1.06780       -6.41810
O          1.03770       -1.32440       -5.42690
C          0.84650       -1.08610       -7.81940
C          2.12180       -1.30030       -8.29850
C          2.35230       -1.26270       -9.67070
C          3.70820       -1.48210      -10.25950
C          1.26010       -1.01360      -10.50050
F          1.47220       -0.97910      -11.83130
C         -0.03150       -0.79700      -10.04420
C         -0.23660       -0.83370       -8.67670
C         -1.43620       -0.63280       -7.86610
C         -2.65610       -0.19990       -8.32580
C         -2.93880        0.05950       -9.67890
N         -3.21720        0.30510      -10.76640
C         -3.74420        0.11550       -7.48920
N         -4.65850        0.42030       -6.86380
C         -1.53460       -0.70570       -4.07420
C         -0.44170       -0.00580       -3.50770
N          0.30730        0.93670       -4.13690
C         -0.11150        1.57080       -5.32240
C          0.79480        1.74410       -6.36490
C          0.39040        2.34080       -7.54480
C         -0.91340        2.78910       -7.71170
C         -1.36350        3.39360       -9.00370
C         -1.80010        2.65020       -6.64620
C         -1.41130        2.05040       -5.46670
C          1.55400        1.35330       -3.61920
C          1.83350        2.71280       -3.52850
C          3.07610        3.13510       -3.09690
C          4.06170        2.21880       -2.75390
C          5.43140        2.66500       -2.34460
C          3.76660        0.86270       -2.84180
C          2.52790        0.42730       -3.26490
C         -0.34250       -0.28860       -2.12420
S          0.76740        0.15490       -0.86840
C         -0.19610       -0.70190        0.31010
C         -1.32390       -1.27510       -0.23240
N         -2.35310       -1.87790        0.51900
C         -2.40140       -3.26530        0.66940
C         -1.73290       -4.11390       -0.20760
C         -1.77090       -5.48210       -0.02070
C         -2.48740       -6.04860        1.02490
C         -2.51720       -7.53370        1.21530
C         -3.16110       -5.19540        1.89010
C         -3.11320       -3.82600        1.72920
C         -3.50180       -1.08490        0.69050
C         -3.37010        0.26450        1.00760
C         -4.49040        1.05790        1.16700
C         -5.76770        0.53770        1.01510
C         -6.98680        1.39340        1.17920
C         -5.89120       -0.80780        0.68480
C         -4.78160       -1.60940        0.51640
C         -1.39070       -1.04950       -1.62520
S         -2.53250       -1.48860       -2.83620
C          0.18270       -0.72710        1.70320
C          0.70110       -1.79410        2.40340
N          1.03760       -3.00710        1.81100
C          0.70930       -4.20160        2.44100
C          1.45570       -5.36320        2.22470
C          1.10400       -6.54030        2.84170
C          0.01190       -6.59110        3.70670
S         -0.35410       -8.16410        4.42140
C         -1.90400       -7.88040        5.32180
C         -0.71280       -5.43470        3.95210
C         -0.37140       -4.25730        3.31920
C          1.81060       -2.96370        0.63880
C          1.57390       -3.83400       -0.42130
C          2.32120       -3.75130       -1.58010
C          3.33900       -2.81310       -1.68920
S          4.39120       -2.66860       -3.10160
C          3.44640       -3.44480       -4.44350
C          3.60010       -1.96410       -0.61570
C          2.84170       -2.03090        0.53030
C          0.89060       -1.46350        3.76880
S          1.41940       -2.34240        5.15440
C          1.17030       -0.90650        6.16940
C          0.69420        0.18640        5.43630
N          0.38110        1.41750        5.96600
C          0.57530        2.56670        5.18440
C         -0.38040        3.57810        5.17340
C         -0.20360        4.70620        4.39620
C          0.94190        4.84280        3.62410
S          1.28440        6.23250        2.58910
C         -0.28770        7.14130        2.55390
C          1.91480        3.84770        3.65950
C          1.73380        2.71640        4.42180
C         -0.02240        1.54670        7.30420
C          0.44900        2.60350        8.08130
C          0.09890        2.69640        9.41010
C         -0.72150        1.73380        9.99220
S         -1.07540        1.89750       11.71240
C         -1.43170        0.18520       12.20450
C         -1.23310        0.70730        9.20860
C         -0.89010        0.61850        7.87490
C          0.54990       -0.15420        4.07530
S         -0.00750        0.70630        2.68660
C          1.39360       -0.94960        7.51190
N          1.58910       -1.09480        8.66650
N          3.77710       -0.34140        3.40980
C          4.22630        0.58920        2.90550
S          1.76600       -1.16400       10.19750
C          4.81790        1.73950        2.36710
C          4.18900        2.49760        1.43820
C          2.83680        2.15110        0.92050
O          2.27100        1.09080        1.08030
C          2.36580        3.34770        0.21510
C          1.11490        3.60220       -0.30720
C          0.88930        4.85480       -0.85960
C          1.87080        5.82910       -0.84910
C          3.13600        5.59100       -0.30010
O          4.10580        6.50930       -0.18380
C          3.88990        7.82880       -0.63060
C          3.39610        4.30780        0.20120
C          4.58670        3.76240        0.83280
C          5.86690        4.24890        0.79890
C          6.34240        5.33080        0.02570
N          6.87140        6.12680       -0.61010
C          6.94700        3.62720        1.46280
N          7.85850        3.16660        1.98750
H         -2.94800       -1.16170       -5.56850
H          2.93270       -1.48670       -7.61050
H          3.97400       -0.65510      -10.91660
H          3.71090       -2.38900      -10.86400
H          4.45840       -1.57530       -9.47960
H         -0.82120       -0.61720      -10.75500
H          1.81220        1.40250       -6.24640
H          1.10040        2.45090       -8.35150
H         -2.08630        4.18710       -8.82890
H         -0.52070        3.79460       -9.56100
H         -1.84710        2.63720       -9.62340
H         -2.81230        3.01340       -6.74530
H         -2.11620        1.94970       -4.65510
H          1.07900        3.43370       -3.80820
H          3.28560        4.19350       -3.03820
H          5.45900        3.73510       -2.15200
H          5.76310        2.13020       -1.45560
H          6.14500        2.44690       -3.13930
H          4.52940        0.13580       -2.60830
H          2.31700       -0.62380       -3.37180
H         -1.19960       -3.69610       -1.04830
H         -1.25030       -6.12770       -0.71460
H         -3.37940       -7.83400        1.80640
H         -1.61570       -7.86360        1.73260
H         -2.55550       -8.04580        0.25610
H         -3.73480       -5.60910        2.70770
H         -3.63370       -3.17870        2.41970
H         -2.38750        0.69370        1.13750
H         -4.36380        2.10140        1.41900
H         -6.72490        2.37440        1.56780
H         -7.69520        0.92470        1.86030
H         -7.48680        1.52480        0.21960
H         -6.87520       -1.23140        0.54420
H         -4.90140       -2.64540        0.23740
H          2.31870       -5.33420        1.57780
H          1.67830       -7.43780        2.66860
H         -2.20010       -8.85060        5.70850
H         -2.66060       -7.50640        4.63880
H         -1.73700       -7.19140        6.14460
H         -1.55290       -5.43360        4.62650
H         -0.96610       -3.37450        3.49460
H          0.80250       -4.58170       -0.33190
H          2.10420       -4.42900       -2.39060
H          4.04900       -3.30280       -5.33540
H          3.32270       -4.50740       -4.25710
H          2.49030       -2.94210       -4.56140
H          4.41070       -1.25560       -0.68320
H          3.04640       -1.36680        1.35420
H         -1.26880        3.47490        5.77820
H         -0.96500        5.46920        4.40450
H         -1.08330        6.47830        2.22770
H         -0.15120        7.94050        1.83210
H         -0.49930        7.56470        3.53130
H          2.82220        3.98820        3.09340
H          2.48980        1.94590        4.44400
H          1.11030        3.33540        7.64190
H          0.47820        3.50160       10.01970
H         -2.43160       -0.10200       11.89200
H         -1.36790        0.16810       13.28790
H         -0.67890       -0.46960       11.77560
H         -1.90210       -0.02680        9.62760
H         -1.29940       -0.17640        7.26950
H          5.78110        2.00000        2.78370
H          0.34480        2.84980       -0.27080
H         -0.07430        5.08740       -1.28750
H          1.64510        6.80090       -1.25870
H          4.82760        8.34820       -0.44160
H          3.08120        8.30660       -0.07030
H          3.67200        7.85840       -1.70170
