170

C          4.02060       -6.79340       -6.63360
C          5.11580       -6.98770       -5.84490
C          5.50080       -6.19080       -4.65150
O          4.85220       -5.36720       -4.03870
C          6.90800       -6.54510       -4.37980
C          7.73840       -6.03810       -3.39860
C          9.04270       -6.50670       -3.29800
C          9.99350       -6.01300       -2.25750
C          9.45060       -7.47820       -4.21540
F         10.71400       -7.93310       -4.12920
C          8.63950       -8.00130       -5.20880
C          7.34050       -7.52340       -5.28920
C          6.23770       -7.85010       -6.18560
C          6.24180       -8.84980       -7.12020
C          5.13610       -9.22920       -7.91190
N          4.28190       -9.61600       -8.57450
C          7.35860       -9.66880       -7.39170
N          8.23440      -10.36040       -7.65950
C          2.85680       -6.01000       -6.34110
C          2.36970       -5.87640       -5.03790
C          1.30710       -5.02240       -4.82120
N          0.72770       -4.64680       -3.63440
C          1.09500       -5.14050       -2.33380
C          0.27950       -6.37440       -1.95180
C         -0.23220       -3.70480       -3.90120
C         -0.30750       -3.48790       -5.30170
C          0.68480       -4.32550       -5.89230
C          1.13190       -4.52410       -7.19720
C          2.19670       -5.36410       -7.41090
C         -1.19740       -2.54520       -5.80950
C         -1.91050       -1.76700       -4.92950
C         -1.76100       -1.91740       -3.53950
C         -0.97380       -2.93810       -3.01980
C         -2.29680       -0.91950       -2.63000
C         -2.11940        0.44630       -2.72460
N         -1.47420        1.11850       -3.75790
C         -1.98510        2.35520       -4.16560
C         -1.13480        3.37670       -4.58040
C         -1.63920        4.60260       -4.96800
C         -3.00760        4.83410       -4.93840
S         -3.77160        6.35860       -5.39940
C         -2.38770        7.39590       -5.95060
C         -3.86300        3.81670       -4.52160
C         -3.36100        2.59170       -4.14540
C         -0.34740        0.56020       -4.37190
C         -0.14720        0.69120       -5.74720
C          0.90600        0.05240       -6.36020
C          1.78340       -0.74060       -5.62280
S          3.03860       -1.58310       -6.53450
C          3.99700       -2.46350       -5.27360
C          1.62020       -0.83270       -4.24820
C          0.57230       -0.17830       -3.63120
C         -2.60540        1.10360       -1.56440
S         -2.55550        2.73780       -1.00250
C         -3.24950        2.25350        0.53560
C         -3.47990        0.89410        0.60830
N         -3.91870        0.19700        1.72910
C         -4.80250       -0.87170        1.54570
C         -4.73020       -2.00140        2.35660
C         -5.59750       -3.06010        2.17290
C         -6.55090       -3.01280        1.16500
S         -7.70940       -4.30360        0.82950
C         -7.42310       -5.50610        2.15900
C         -6.62310       -1.88850        0.34590
C         -5.76500       -0.82910        0.53530
C         -3.48810        0.56460        3.00910
C         -2.19220        1.02960        3.21850
C         -1.79690        1.49660        4.45660
C         -2.68820        1.48740        5.51970
S         -2.32280        2.10930        7.13060
C         -0.61310        2.69490        7.00650
C         -3.96650        0.96520        5.33140
C         -4.36450        0.51330        4.09450
C         -3.11820        0.25160       -0.60460
S         -3.02160       -1.40080       -1.10550
C         -3.32640        3.20000        1.63450
C         -2.21950        3.99580        1.90510
C         -2.18450        4.68070        3.10670
N         -1.16470        5.41460        3.65660
C          0.13110        5.63180        3.06840
C          1.12290        4.54010        3.46800
C         -1.50590        5.72090        4.95130
C         -2.82210        5.25410        5.21690
C         -3.25980        4.59620        4.02900
C         -4.41290        3.89580        3.68440
C         -4.43750        3.20490        2.49670
C         -3.38090        5.44730        6.47900
C         -2.62160        6.04580        7.45430
C         -1.28740        6.44320        7.21290
C         -0.74350        6.32360        5.93080
C         -0.51690        6.96010        8.30520
C          0.82230        6.81000        8.51410
C          1.70930        5.81560        7.85870
O          1.48080        5.09520        6.90750
C          2.94680        5.80180        8.66250
C          4.06460        5.00800        8.48990
C          5.14120        5.14630        9.35740
C          6.38410        4.32830        9.22910
C          5.02880        6.09430       10.37750
F          6.06440        6.23030       11.22570
C          3.92010        6.90110       10.57310
C          2.85850        6.74980        9.69440
C          1.56760        7.42200        9.60380
C          1.17290        8.49420       10.35710
C         -0.03710        9.20230       10.19080
N         -0.98500        9.84430       10.10450
C          1.95300        9.06200       11.38690
N          2.54050        9.56140       12.23690
H          4.04370       -7.22190       -7.62910
H          7.36780       -5.28640       -2.71810
H         10.90450       -5.64170       -2.72520
H         10.28030       -6.82910       -1.59470
H          9.54410       -5.21890       -1.66820
H          9.03740       -8.74540       -5.87860
H          2.81070       -6.44020       -4.23410
H          2.16220       -5.37860       -2.34540
H          0.93240       -4.34460       -1.60230
H          0.57630       -6.73040       -0.96900
H          0.43800       -7.17070       -2.67530
H         -0.78070       -6.13260       -1.93150
H          0.65750       -4.01130       -8.01900
H          2.57500       -5.50930       -8.41160
H         -1.29480       -2.40490       -6.87460
H         -2.58360       -1.00910       -5.29980
H         -0.89690       -3.06240       -1.95000
H         -0.06820        3.20830       -4.59440
H         -0.95010        5.37050       -5.28080
H         -2.83530        8.33070       -6.27340
H         -1.70690        7.57990       -5.12450
H         -1.87910        6.92300       -6.78570
H         -4.92650        3.99890       -4.50540
H         -4.03530        1.80540       -3.83950
H         -0.83960        1.27620       -6.33390
H          1.04980        0.13830       -7.42620
H          3.37820       -3.19720       -4.76700
H          4.78830       -2.97510       -5.81250
H          4.42990       -1.75490       -4.57380
H          2.29840       -1.41600       -3.64620
H          0.45350       -0.25580       -2.56050
H         -3.98410       -2.05000        3.13580
H         -5.50970       -3.91920        2.81820
H         -8.16760       -6.28290        2.01470
H         -6.42720       -5.93090        2.07170
H         -7.56780       -5.03120        3.12500
H         -7.36800       -1.85440       -0.43420
H         -5.84210        0.04470       -0.09480
H         -1.49150        1.03970        2.39650
H         -0.79220        1.86790        4.57940
H         -0.53850        3.49210        6.27440
H          0.04860        1.86830        6.76500
H         -0.36540        3.08600        7.98820
H         -4.64970        0.94180        6.16640
H         -5.36750        0.13970        3.95300
H         -1.38440        4.00120        1.22090
H          0.49950        6.60870        3.39350
H          0.01180        5.65870        1.98240
H          0.75030        3.56560        3.15930
H          1.26810        4.53690        4.54600
H          2.08190        4.71440        2.98730
H         -5.25570        3.86680        4.35720
H         -5.30990        2.63230        2.22180
H         -4.38480        5.11200        6.68700
H         -3.02570        6.17580        8.44690
H          0.24200        6.70350        5.72200
H         -1.08860        7.47100        9.07130
H          4.09390        4.29070        7.68360
H          6.30400        3.62990        8.40130
H          7.24510        4.97620        9.06780
H          6.56550        3.77370       10.14910
H          3.91500        7.60380       11.38970
