
  xtb     02052206483D
 energy: -304.470464502149 gnorm: 0.000315115562 xtb: 6.4.1 (unknown)
177192  0     0  0            999 V2000
    5.5426    8.0580    4.5902 C   0  0  0  0  0  0  0  0  0  0  0  0
    6.7736    8.6151    4.5187 C   0  0  0  0  0  0  0  0  0  0  0  0
    7.1527    9.7379    5.4206 C   0  0  0  0  0  0  0  0  0  0  0  0
    6.4092   10.4037    6.1033 O   0  0  0  0  0  0  0  0  0  0  0  0
    8.6257    9.8171    5.3363 C   0  0  0  0  0  0  0  0  0  0  0  0
    9.4907   10.6173    6.0581 C   0  0  0  0  0  0  0  0  0  0  0  0
   10.8594   10.5224    5.8342 C   0  0  0  0  0  0  0  0  0  0  0  0
   11.8508   11.3612    6.5713 C   0  0  0  0  0  0  0  0  0  0  0  0
   11.2960    9.6033    4.8766 C   0  0  0  0  0  0  0  0  0  0  0  0
   12.6206    9.4954    4.6653 F   0  0  0  0  0  0  0  0  0  0  0  0
   10.4525    8.7956    4.1326 C   0  0  0  0  0  0  0  0  0  0  0  0
    9.0914    8.9092    4.3675 C   0  0  0  0  0  0  0  0  0  0  0  0
    7.9469    8.2570    3.7394 C   0  0  0  0  0  0  0  0  0  0  0  0
    7.9521    7.6472    2.5151 C   0  0  0  0  0  0  0  0  0  0  0  0
    9.1245    7.3896    1.7746 C   0  0  0  0  0  0  0  0  0  0  0  0
   10.0535    7.1419    1.1479 N   0  0  0  0  0  0  0  0  0  0  0  0
    6.7846    7.2997    1.8016 C   0  0  0  0  0  0  0  0  0  0  0  0
    5.8788    7.0752    1.1338 N   0  0  0  0  0  0  0  0  0  0  0  0
    5.1259    6.7853    4.0563 C   0  0  0  0  0  0  0  0  0  0  0  0
    3.8381    6.6550    3.5367 C   0  0  0  0  0  0  0  0  0  0  0  0
    3.4800    5.4485    2.9641 C   0  0  0  0  0  0  0  0  0  0  0  0
    2.3240    5.0941    2.3202 N   0  0  0  0  0  0  0  0  0  0  0  0
    1.1934    5.9559    2.0983 C   0  0  0  0  0  0  0  0  0  0  0  0
    0.1788    5.8621    3.2360 C   0  0  0  0  0  0  0  0  0  0  0  0
    2.4083    3.7719    1.9662 C   0  0  0  0  0  0  0  0  0  0  0  0
    3.6682    3.2577    2.3653 C   0  0  0  0  0  0  0  0  0  0  0  0
    4.3624    4.3360    2.9919 C   0  0  0  0  0  0  0  0  0  0  0  0
    5.6220    4.4611    3.5696 C   0  0  0  0  0  0  0  0  0  0  0  0
    6.0014    5.6822    4.0740 C   0  0  0  0  0  0  0  0  0  0  0  0
    3.9851    1.9252    2.1252 C   0  0  0  0  0  0  0  0  0  0  0  0
    3.0392    1.1174    1.5413 C   0  0  0  0  0  0  0  0  0  0  0  0
    1.7805    1.6197    1.1696 C   0  0  0  0  0  0  0  0  0  0  0  0
    1.4702    2.9610    1.3477 C   0  0  0  0  0  0  0  0  0  0  0  0
    0.7916    0.6938    0.6360 C   0  0  0  0  0  0  0  0  0  0  0  0
    0.3927   -0.4972    1.2059 C   0  0  0  0  0  0  0  0  0  0  0  0
    0.8025   -0.9394    2.4588 N   0  0  0  0  0  0  0  0  0  0  0  0
    1.0389   -2.2964    2.6810 C   0  0  0  0  0  0  0  0  0  0  0  0
    1.4664   -3.1257    1.6468 C   0  0  0  0  0  0  0  0  0  0  0  0
    1.6569   -4.4778    1.8564 C   0  0  0  0  0  0  0  0  0  0  0  0
    1.4338   -5.0243    3.1113 C   0  0  0  0  0  0  0  0  0  0  0  0
    1.6397   -6.7370    3.4972 S   0  0  0  0  0  0  0  0  0  0  0  0
    1.8859   -7.5175    1.8765 C   0  0  0  0  0  0  0  0  0  0  0  0
    1.0324   -4.1945    4.1569 C   0  0  0  0  0  0  0  0  0  0  0  0
    0.8326   -2.8496    3.9464 C   0  0  0  0  0  0  0  0  0  0  0  0
    1.0381    0.0212    3.4530 C   0  0  0  0  0  0  0  0  0  0  0  0
    2.1833   -0.0209    4.2424 C   0  0  0  0  0  0  0  0  0  0  0  0
    2.4907    1.0243    5.0920 C   0  0  0  0  0  0  0  0  0  0  0  0
    1.6510    2.1258    5.1717 C   0  0  0  0  0  0  0  0  0  0  0  0
    2.0083    3.5814    6.1073 S   0  0  0  0  0  0  0  0  0  0  0  0
    3.7616    3.3961    6.5313 C   0  0  0  0  0  0  0  0  0  0  0  0
    0.4502    2.1198    4.4665 C   0  0  0  0  0  0  0  0  0  0  0  0
    0.1477    1.0829    3.6156 C   0  0  0  0  0  0  0  0  0  0  0  0
   -0.5447   -1.1698    0.3791 C   0  0  0  0  0  0  0  0  0  0  0  0
   -1.4105   -2.6570    0.4895 S   0  0  0  0  0  0  0  0  0  0  0  0
   -2.1432   -2.3693   -1.0719 C   0  0  0  0  0  0  0  0  0  0  0  0
   -1.7564   -1.1680   -1.6354 C   0  0  0  0  0  0  0  0  0  0  0  0
   -2.1485   -0.6680   -2.8728 N   0  0  0  0  0  0  0  0  0  0  0  0
   -1.1941    0.0356   -3.6306 C   0  0  0  0  0  0  0  0  0  0  0  0
   -1.5674    1.1702   -4.3440 C   0  0  0  0  0  0  0  0  0  0  0  0
   -0.6408    1.8704   -5.0916 C   0  0  0  0  0  0  0  0  0  0  0  0
    0.6826    1.4522   -5.1268 C   0  0  0  0  0  0  0  0  0  0  0  0
    1.9545    2.2577   -6.0485 S   0  0  0  0  0  0  0  0  0  0  0  0
    1.1700    3.7864   -6.6338 C   0  0  0  0  0  0  0  0  0  0  0  0
    1.0604    0.3178   -4.4113 C   0  0  0  0  0  0  0  0  0  0  0  0
    0.1353   -0.3854   -3.6731 C   0  0  0  0  0  0  0  0  0  0  0  0
   -3.4037   -0.9326   -3.4216 C   0  0  0  0  0  0  0  0  0  0  0  0
   -3.5437   -1.1250   -4.7966 C   0  0  0  0  0  0  0  0  0  0  0  0
   -4.7667   -1.4474   -5.3486 C   0  0  0  0  0  0  0  0  0  0  0  0
   -5.8809   -1.5834   -4.5335 C   0  0  0  0  0  0  0  0  0  0  0  0
   -7.4826   -2.0103   -5.1483 S   0  0  0  0  0  0  0  0  0  0  0  0
   -7.1346   -2.8466   -6.7221 C   0  0  0  0  0  0  0  0  0  0  0  0
   -5.7638   -1.3378   -3.1675 C   0  0  0  0  0  0  0  0  0  0  0  0
   -4.5423   -1.0177   -2.6176 C   0  0  0  0  0  0  0  0  0  0  0  0
   -0.8504   -0.4866   -0.7864 C   0  0  0  0  0  0  0  0  0  0  0  0
   -0.0296    1.0337   -0.8709 S   0  0  0  0  0  0  0  0  0  0  0  0
   -3.0327   -3.3429   -1.6825 C   0  0  0  0  0  0  0  0  0  0  0  0
   -4.1915   -3.7942   -1.0280 C   0  0  0  0  0  0  0  0  0  0  0  0
   -4.5058   -3.1532    0.5858 S   0  0  0  0  0  0  0  0  0  0  0  0
   -6.2982   -2.7364    0.5739 C   0  0  0  0  0  0  0  0  0  0  0  0
   -7.0355   -3.3790    1.7310 C   0  0  0  0  0  0  0  0  0  0  0  0
   -5.0502   -4.6904   -1.6742 C   0  0  0  0  0  0  0  0  0  0  0  0
   -6.2558   -5.6474   -0.8034 S   0  0  0  0  0  0  0  0  0  0  0  0
   -5.1709   -6.4532    0.4368 C   0  0  0  0  0  0  0  0  0  0  0  0
   -4.1072   -7.3106   -0.2179 C   0  0  0  0  0  0  0  0  0  0  0  0
   -4.9357   -4.8751   -3.0576 C   0  0  0  0  0  0  0  0  0  0  0  0
   -3.8084   -4.3728   -3.7292 C   0  0  0  0  0  0  0  0  0  0  0  0
   -2.7878   -3.7340   -3.0067 C   0  0  0  0  0  0  0  0  0  0  0  0
   -1.4523   -3.5170   -3.6069 C   0  0  0  0  0  0  0  0  0  0  0  0
   -0.4393   -3.3903   -2.9449 O   0  0  0  0  0  0  0  0  0  0  0  0
   -1.4376   -3.5523   -5.0701 C   0  0  0  0  0  0  0  0  0  0  0  0
   -2.5584   -4.0008   -5.8287 C   0  0  0  0  0  0  0  0  0  0  0  0
   -3.7911   -4.4532   -5.1943 C   0  0  0  0  0  0  0  0  0  0  0  0
   -4.7720   -4.8107   -5.8352 O   0  0  0  0  0  0  0  0  0  0  0  0
   -2.3268   -3.9368   -7.1746 C   0  0  0  0  0  0  0  0  0  0  0  0
   -0.7682   -3.3233   -7.5311 S   0  0  0  0  0  0  0  0  0  0  0  0
   -0.3991   -3.1615   -5.8647 C   0  0  0  0  0  0  0  0  0  0  0  0
   -5.9065   -5.6373   -3.8255 C   0  0  0  0  0  0  0  0  0  0  0  0
   -7.2313   -5.3837   -3.8824 C   0  0  0  0  0  0  0  0  0  0  0  0
   -7.9308   -4.2657   -3.1970 C   0  0  0  0  0  0  0  0  0  0  0  0
   -7.5068   -3.5783   -2.2903 O   0  0  0  0  0  0  0  0  0  0  0  0
   -9.2798   -4.2259   -3.7850 C   0  0  0  0  0  0  0  0  0  0  0  0
  -10.3027   -3.3319   -3.5298 C   0  0  0  0  0  0  0  0  0  0  0  0
  -11.5064   -3.4576   -4.2099 C   0  0  0  0  0  0  0  0  0  0  0  0
  -12.6507   -2.5234   -3.9934 C   0  0  0  0  0  0  0  0  0  0  0  0
  -11.6230   -4.5041   -5.1298 C   0  0  0  0  0  0  0  0  0  0  0  0
  -12.7850   -4.6276   -5.7991 F   0  0  0  0  0  0  0  0  0  0  0  0
  -10.6212   -5.4199   -5.3963 C   0  0  0  0  0  0  0  0  0  0  0  0
   -9.4250   -5.2780   -4.7066 C   0  0  0  0  0  0  0  0  0  0  0  0
   -8.1962   -6.0582   -4.7437 C   0  0  0  0  0  0  0  0  0  0  0  0
   -7.9978   -7.2162   -5.4410 C   0  0  0  0  0  0  0  0  0  0  0  0
   -6.8243   -8.0007   -5.4004 C   0  0  0  0  0  0  0  0  0  0  0  0
   -5.9210   -8.7093   -5.4026 N   0  0  0  0  0  0  0  0  0  0  0  0
   -8.9668   -7.8088   -6.2797 C   0  0  0  0  0  0  0  0  0  0  0  0
   -9.7099   -8.3340   -6.9787 N   0  0  0  0  0  0  0  0  0  0  0  0
    4.8046    8.6199    5.1540 H   0  0  0  0  0  0  0  0  0  0  0  0
    9.0985   11.3100    6.7869 H   0  0  0  0  0  0  0  0  0  0  0  0
   12.3861   12.0060    5.8747 H   0  0  0  0  0  0  0  0  0  0  0  0
   11.3579   11.9774    7.3173 H   0  0  0  0  0  0  0  0  0  0  0  0
   12.5910   10.7285    7.0596 H   0  0  0  0  0  0  0  0  0  0  0  0
   10.8696    8.1099    3.4132 H   0  0  0  0  0  0  0  0  0  0  0  0
    3.1744    7.5057    3.5373 H   0  0  0  0  0  0  0  0  0  0  0  0
    1.5603    6.9808    2.0021 H   0  0  0  0  0  0  0  0  0  0  0  0
    0.7249    5.6743    1.1514 H   0  0  0  0  0  0  0  0  0  0  0  0
   -0.6225    6.5803    3.0844 H   0  0  0  0  0  0  0  0  0  0  0  0
    0.6598    6.0646    4.1900 H   0  0  0  0  0  0  0  0  0  0  0  0
   -0.2481    4.8636    3.2747 H   0  0  0  0  0  0  0  0  0  0  0  0
    6.2945    3.6169    3.6059 H   0  0  0  0  0  0  0  0  0  0  0  0
    6.9735    5.7970    4.5318 H   0  0  0  0  0  0  0  0  0  0  0  0
    4.9505    1.5319    2.4051 H   0  0  0  0  0  0  0  0  0  0  0  0
    3.2559    0.0762    1.3562 H   0  0  0  0  0  0  0  0  0  0  0  0
    0.5029    3.3323    1.0456 H   0  0  0  0  0  0  0  0  0  0  0  0
    1.6585   -2.7120    0.6681 H   0  0  0  0  0  0  0  0  0  0  0  0
    1.9859   -5.0871    1.0304 H   0  0  0  0  0  0  0  0  0  0  0  0
    1.0614   -7.2617    1.2175 H   0  0  0  0  0  0  0  0  0  0  0  0
    2.8389   -7.2130    1.4534 H   0  0  0  0  0  0  0  0  0  0  0  0
    1.8932   -8.5867    2.0641 H   0  0  0  0  0  0  0  0  0  0  0  0
    0.8670   -4.6241    5.1331 H   0  0  0  0  0  0  0  0  0  0  0  0
    0.5035   -2.2168    4.7569 H   0  0  0  0  0  0  0  0  0  0  0  0
    2.8562   -0.8616    4.1624 H   0  0  0  0  0  0  0  0  0  0  0  0
    3.4014    0.9771    5.6670 H   0  0  0  0  0  0  0  0  0  0  0  0
    4.0647    4.3485    6.9552 H   0  0  0  0  0  0  0  0  0  0  0  0
    3.8898    2.6082    7.2682 H   0  0  0  0  0  0  0  0  0  0  0  0
    4.3318    3.1968    5.6289 H   0  0  0  0  0  0  0  0  0  0  0  0
   -0.2319    2.9470    4.5885 H   0  0  0  0  0  0  0  0  0  0  0  0
   -0.7699    1.0980    3.0467 H   0  0  0  0  0  0  0  0  0  0  0  0
   -2.5941    1.5044   -4.3122 H   0  0  0  0  0  0  0  0  0  0  0  0
   -0.9647    2.7434   -5.6349 H   0  0  0  0  0  0  0  0  0  0  0  0
    0.3862    3.5574   -7.3502 H   0  0  0  0  0  0  0  0  0  0  0  0
    1.9590    4.3504   -7.1214 H   0  0  0  0  0  0  0  0  0  0  0  0
    0.7831    4.3473   -5.7882 H   0  0  0  0  0  0  0  0  0  0  0  0
    2.0901   -0.0037   -4.4449 H   0  0  0  0  0  0  0  0  0  0  0  0
    0.4324   -1.2712   -3.1322 H   0  0  0  0  0  0  0  0  0  0  0  0
   -2.6803   -1.0257   -5.4381 H   0  0  0  0  0  0  0  0  0  0  0  0
   -4.8375   -1.6005   -6.4138 H   0  0  0  0  0  0  0  0  0  0  0  0
   -8.0645   -3.3291   -7.0086 H   0  0  0  0  0  0  0  0  0  0  0  0
   -6.8516   -2.1216   -7.4798 H   0  0  0  0  0  0  0  0  0  0  0  0
   -6.3577   -3.5912   -6.5722 H   0  0  0  0  0  0  0  0  0  0  0  0
   -6.6403   -1.4112   -2.5443 H   0  0  0  0  0  0  0  0  0  0  0  0
   -4.4586   -0.8287   -1.5580 H   0  0  0  0  0  0  0  0  0  0  0  0
   -6.3200   -1.6493    0.6609 H   0  0  0  0  0  0  0  0  0  0  0  0
   -6.7084   -3.0325   -0.3864 H   0  0  0  0  0  0  0  0  0  0  0  0
   -7.0646   -4.4596    1.6206 H   0  0  0  0  0  0  0  0  0  0  0  0
   -6.5565   -3.1351    2.6771 H   0  0  0  0  0  0  0  0  0  0  0  0
   -8.0585   -3.0097    1.7530 H   0  0  0  0  0  0  0  0  0  0  0  0
   -5.8603   -7.0597    1.0232 H   0  0  0  0  0  0  0  0  0  0  0  0
   -4.7319   -5.6867    1.0746 H   0  0  0  0  0  0  0  0  0  0  0  0
   -3.5478   -7.8447    0.5475 H   0  0  0  0  0  0  0  0  0  0  0  0
   -4.5589   -8.0369   -0.8904 H   0  0  0  0  0  0  0  0  0  0  0  0
   -3.4105   -6.6965   -0.7861 H   0  0  0  0  0  0  0  0  0  0  0  0
   -2.9952   -4.2234   -7.9625 H   0  0  0  0  0  0  0  0  0  0  0  0
    0.5483   -2.7693   -5.5521 H   0  0  0  0  0  0  0  0  0  0  0  0
   -5.5008   -6.4541   -4.4082 H   0  0  0  0  0  0  0  0  0  0  0  0
  -10.1531   -2.5376   -2.8152 H   0  0  0  0  0  0  0  0  0  0  0  0
  -12.9018   -2.0172   -4.9249 H   0  0  0  0  0  0  0  0  0  0  0  0
  -12.4055   -1.7808   -3.2402 H   0  0  0  0  0  0  0  0  0  0  0  0
  -13.5343   -3.0772   -3.6780 H   0  0  0  0  0  0  0  0  0  0  0  0
  -10.7946   -6.1987   -6.1206 H   0  0  0  0  0  0  0  0  0  0  0  0
  1  2  2  0  0  0  0
  2  3  1  0  0  0  0
  3  4  2  0  0  0  0
  3  5  1  0  0  0  0
  5  6  2  0  0  0  0
  6  7  1  0  0  0  0
  7  8  1  0  0  0  0
  7  9  2  0  0  0  0
  9 10  1  0  0  0  0
  9 11  1  0  0  0  0
 11 12  2  0  0  0  0
 12 13  1  0  0  0  0
 13 14  2  0  0  0  0
 14 15  1  0  0  0  0
 15 16  3  0  0  0  0
 14 17  1  0  0  0  0
 17 18  3  0  0  0  0
  1 19  1  0  0  0  0
 19 20  2  0  0  0  0
 20 21  1  0  0  0  0
 21 22  1  0  0  0  0
 22 23  1  0  0  0  0
 23 24  1  0  0  0  0
 22 25  1  0  0  0  0
 25 26  2  0  0  0  0
 26 27  1  0  0  0  0
 27 28  1  0  0  0  0
 28 29  2  0  0  0  0
 26 30  1  0  0  0  0
 30 31  2  0  0  0  0
 31 32  1  0  0  0  0
 32 33  2  0  0  0  0
 32 34  1  0  0  0  0
 34 35  2  0  0  0  0
 35 36  1  0  0  0  0
 36 37  1  0  0  0  0
 37 38  2  0  0  0  0
 38 39  1  0  0  0  0
 39 40  2  0  0  0  0
 40 41  1  0  0  0  0
 41 42  1  0  0  0  0
 40 43  1  0  0  0  0
 43 44  2  0  0  0  0
 36 45  1  0  0  0  0
 45 46  2  0  0  0  0
 46 47  1  0  0  0  0
 47 48  2  0  0  0  0
 48 49  1  0  0  0  0
 49 50  1  0  0  0  0
 48 51  1  0  0  0  0
 51 52  2  0  0  0  0
 35 53  1  0  0  0  0
 53 54  1  0  0  0  0
 54 55  1  0  0  0  0
 55 56  2  0  0  0  0
 56 57  1  0  0  0  0
 57 58  1  0  0  0  0
 58 59  2  0  0  0  0
 59 60  1  0  0  0  0
 60 61  2  0  0  0  0
 61 62  1  0  0  0  0
 62 63  1  0  0  0  0
 61 64  1  0  0  0  0
 64 65  2  0  0  0  0
 57 66  1  0  0  0  0
 66 67  2  0  0  0  0
 67 68  1  0  0  0  0
 68 69  2  0  0  0  0
 69 70  1  0  0  0  0
 70 71  1  0  0  0  0
 69 72  1  0  0  0  0
 72 73  2  0  0  0  0
 56 74  1  0  0  0  0
 74 75  1  0  0  0  0
 55 76  1  0  0  0  0
 76 77  2  0  0  0  0
 77 78  1  0  0  0  0
 78 79  1  0  0  0  0
 79 80  1  0  0  0  0
 77 81  1  0  0  0  0
 81 82  1  0  0  0  0
 82 83  1  0  0  0  0
 83 84  1  0  0  0  0
 81 85  2  0  0  0  0
 85 86  1  0  0  0  0
 86 87  2  0  0  0  0
 87 88  1  0  0  0  0
 88 89  2  0  0  0  0
 88 90  1  0  0  0  0
 90 91  1  0  0  0  0
 91 92  1  0  0  0  0
 92 93  2  0  0  0  0
 91 94  2  0  0  0  0
 94 95  1  0  0  0  0
 95 96  1  0  0  0  0
 85 97  1  0  0  0  0
 97 98  2  0  0  0  0
 98 99  1  0  0  0  0
 99100  2  0  0  0  0
 99101  1  0  0  0  0
101102  2  0  0  0  0
102103  1  0  0  0  0
103104  1  0  0  0  0
103105  2  0  0  0  0
105106  1  0  0  0  0
105107  1  0  0  0  0
107108  2  0  0  0  0
108109  1  0  0  0  0
109110  2  0  0  0  0
110111  1  0  0  0  0
111112  3  0  0  0  0
110113  1  0  0  0  0
113114  3  0  0  0  0
 13  2  1  0  0  0  0
 29 19  1  0  0  0  0
 75 34  1  0  0  0  0
 87 76  1  0  0  0  0
 96 90  2  0  0  0  0
109 98  1  0  0  0  0
 12  5  1  0  0  0  0
 27 21  2  0  0  0  0
 44 37  1  0  0  0  0
 52 45  1  0  0  0  0
 74 53  2  0  0  0  0
 92 86  1  0  0  0  0
108101  1  0  0  0  0
 33 25  1  0  0  0  0
 65 58  1  0  0  0  0
 73 66  1  0  0  0  0
  1115  1  0  0  0  0
  6116  1  0  0  0  0
  8117  1  0  0  0  0
  8118  1  0  0  0  0
  8119  1  0  0  0  0
 11120  1  0  0  0  0
 20121  1  0  0  0  0
 23122  1  0  0  0  0
 23123  1  0  0  0  0
 24124  1  0  0  0  0
 24125  1  0  0  0  0
 24126  1  0  0  0  0
 28127  1  0  0  0  0
 29128  1  0  0  0  0
 30129  1  0  0  0  0
 31130  1  0  0  0  0
 33131  1  0  0  0  0
 38132  1  0  0  0  0
 39133  1  0  0  0  0
 42134  1  0  0  0  0
 42135  1  0  0  0  0
 42136  1  0  0  0  0
 43137  1  0  0  0  0
 44138  1  0  0  0  0
 46139  1  0  0  0  0
 47140  1  0  0  0  0
 50141  1  0  0  0  0
 50142  1  0  0  0  0
 50143  1  0  0  0  0
 51144  1  0  0  0  0
 52145  1  0  0  0  0
 59146  1  0  0  0  0
 60147  1  0  0  0  0
 63148  1  0  0  0  0
 63149  1  0  0  0  0
 63150  1  0  0  0  0
 64151  1  0  0  0  0
 65152  1  0  0  0  0
 67153  1  0  0  0  0
 68154  1  0  0  0  0
 71155  1  0  0  0  0
 71156  1  0  0  0  0
 71157  1  0  0  0  0
 72158  1  0  0  0  0
 73159  1  0  0  0  0
 79160  1  0  0  0  0
 79161  1  0  0  0  0
 80162  1  0  0  0  0
 80163  1  0  0  0  0
 80164  1  0  0  0  0
 83165  1  0  0  0  0
 83166  1  0  0  0  0
 84167  1  0  0  0  0
 84168  1  0  0  0  0
 84169  1  0  0  0  0
 94170  1  0  0  0  0
 96171  1  0  0  0  0
 97172  1  0  0  0  0
102173  1  0  0  0  0
104174  1  0  0  0  0
104175  1  0  0  0  0
104176  1  0  0  0  0
107177  1  0  0  0  0
M  END
