
  xtb     02142205073D
 energy: -339.197269370931 gnorm: 0.000442185270 xtb: 6.4.1 (unknown)
198214  0     0  0            999 V2000
   -7.6461    4.8411   -1.5024 C   0  0  0  0  0  0  0  0  0  0  0  0
   -6.9809    5.9583   -1.1306 C   0  0  0  0  0  0  0  0  0  0  0  0
   -5.6537    5.9554   -0.4385 C   0  0  0  0  0  0  0  0  0  0  0  0
   -4.8147    5.0865   -0.4160 O   0  0  0  0  0  0  0  0  0  0  0  0
   -5.5995    7.2458    0.2733 C   0  0  0  0  0  0  0  0  0  0  0  0
   -4.6321    7.6816    1.1584 C   0  0  0  0  0  0  0  0  0  0  0  0
   -4.7541    8.9428    1.7296 C   0  0  0  0  0  0  0  0  0  0  0  0
   -3.7444    9.4793    2.6890 C   0  0  0  0  0  0  0  0  0  0  0  0
   -5.8660    9.7115    1.3714 C   0  0  0  0  0  0  0  0  0  0  0  0
   -5.9925   10.9304    1.9259 F   0  0  0  0  0  0  0  0  0  0  0  0
   -6.8482    9.2982    0.4860 C   0  0  0  0  0  0  0  0  0  0  0  0
   -6.7098    8.0366   -0.0725 C   0  0  0  0  0  0  0  0  0  0  0  0
   -7.5320    7.3020   -1.0233 C   0  0  0  0  0  0  0  0  0  0  0  0
   -8.5605    7.7933   -1.7769 C   0  0  0  0  0  0  0  0  0  0  0  0
   -9.1757    7.0513   -2.8082 C   0  0  0  0  0  0  0  0  0  0  0  0
   -9.6619    6.5028   -3.6913 N   0  0  0  0  0  0  0  0  0  0  0  0
   -9.0593    9.1083   -1.6653 C   0  0  0  0  0  0  0  0  0  0  0  0
   -9.5001   10.1653   -1.6014 N   0  0  0  0  0  0  0  0  0  0  0  0
   -7.0025    3.5440   -1.5451 C   0  0  0  0  0  0  0  0  0  0  0  0
   -7.5393    2.4445   -0.8738 C   0  0  0  0  0  0  0  0  0  0  0  0
   -8.7364    2.5742   -0.2684 F   0  0  0  0  0  0  0  0  0  0  0  0
   -6.8453    1.2620   -0.7234 C   0  0  0  0  0  0  0  0  0  0  0  0
   -5.5971    1.1278   -1.3199 C   0  0  0  0  0  0  0  0  0  0  0  0
   -5.0875    2.1831   -2.0789 C   0  0  0  0  0  0  0  0  0  0  0  0
   -5.7697    3.3708   -2.1780 C   0  0  0  0  0  0  0  0  0  0  0  0
   -4.6948    0.0086   -1.0390 C   0  0  0  0  0  0  0  0  0  0  0  0
   -4.1105   -0.9187   -1.8827 C   0  0  0  0  0  0  0  0  0  0  0  0
   -4.5597   -1.2396   -3.1424 N   0  0  0  0  0  0  0  0  0  0  0  0
   -5.6025   -0.4401   -3.6948 C   0  0  0  0  0  0  0  0  0  0  0  0
   -5.3203    0.6194   -4.5439 C   0  0  0  0  0  0  0  0  0  0  0  0
   -6.3296    1.4781   -4.9405 C   0  0  0  0  0  0  0  0  0  0  0  0
   -7.6264    1.2861   -4.4800 C   0  0  0  0  0  0  0  0  0  0  0  0
   -8.9548    2.4016   -4.7857 S   0  0  0  0  0  0  0  0  0  0  0  0
   -8.1209    3.9261   -5.3091 C   0  0  0  0  0  0  0  0  0  0  0  0
   -7.9223    0.1655   -3.7056 C   0  0  0  0  0  0  0  0  0  0  0  0
   -6.9176   -0.6932   -3.3192 C   0  0  0  0  0  0  0  0  0  0  0  0
   -4.1540   -2.3997   -3.8126 C   0  0  0  0  0  0  0  0  0  0  0  0
   -3.9997   -2.3874   -5.1997 C   0  0  0  0  0  0  0  0  0  0  0  0
   -3.5039   -3.4931   -5.8521 C   0  0  0  0  0  0  0  0  0  0  0  0
   -3.1540   -4.6409   -5.1422 C   0  0  0  0  0  0  0  0  0  0  0  0
   -2.4182   -5.9541   -6.0664 S   0  0  0  0  0  0  0  0  0  0  0  0
   -1.7857   -7.0746   -4.7877 C   0  0  0  0  0  0  0  0  0  0  0  0
   -3.4055   -4.6951   -3.7800 C   0  0  0  0  0  0  0  0  0  0  0  0
   -3.9133   -3.5875   -3.1259 C   0  0  0  0  0  0  0  0  0  0  0  0
   -2.9295   -1.4454   -1.2896 C   0  0  0  0  0  0  0  0  0  0  0  0
   -1.6403   -2.4436   -1.8618 S   0  0  0  0  0  0  0  0  0  0  0  0
   -0.6509   -2.0187   -0.4745 C   0  0  0  0  0  0  0  0  0  0  0  0
   -1.3692   -1.2831    0.4640 C   0  0  0  0  0  0  0  0  0  0  0  0
   -0.8966   -0.8829    1.7127 N   0  0  0  0  0  0  0  0  0  0  0  0
   -1.0361    0.4780    2.0268 C   0  0  0  0  0  0  0  0  0  0  0  0
   -0.7500    1.4276    1.0454 C   0  0  0  0  0  0  0  0  0  0  0  0
   -0.9073    2.7704    1.3068 C   0  0  0  0  0  0  0  0  0  0  0  0
   -1.3428    3.1942    2.5580 C   0  0  0  0  0  0  0  0  0  0  0  0
   -1.5245    4.9319    2.8159 S   0  0  0  0  0  0  0  0  0  0  0  0
   -1.2642    5.0887    4.6090 C   0  0  0  0  0  0  0  0  0  0  0  0
   -1.6382    2.2536    3.5349 C   0  0  0  0  0  0  0  0  0  0  0  0
   -1.4893    0.9072    3.2701 C   0  0  0  0  0  0  0  0  0  0  0  0
   -0.5915   -1.8457    2.6748 C   0  0  0  0  0  0  0  0  0  0  0  0
    0.2537   -1.5332    3.7424 C   0  0  0  0  0  0  0  0  0  0  0  0
    0.5860   -2.4883    4.6727 C   0  0  0  0  0  0  0  0  0  0  0  0
    0.0904   -3.7871    4.5656 C   0  0  0  0  0  0  0  0  0  0  0  0
    0.5986   -4.9249    5.8175 S   0  0  0  0  0  0  0  0  0  0  0  0
   -0.2659   -6.4628    5.3919 C   0  0  0  0  0  0  0  0  0  0  0  0
   -0.7463   -4.1064    3.5065 C   0  0  0  0  0  0  0  0  0  0  0  0
   -1.0847   -3.1443    2.5740 C   0  0  0  0  0  0  0  0  0  0  0  0
   -2.6374   -0.9247   -0.0387 C   0  0  0  0  0  0  0  0  0  0  0  0
   -3.8515    0.1743    0.4998 S   0  0  0  0  0  0  0  0  0  0  0  0
    0.7404   -2.2788   -0.4735 C   0  0  0  0  0  0  0  0  0  0  0  0
    1.5328   -2.7354   -1.5255 C   0  0  0  0  0  0  0  0  0  0  0  0
    1.0840   -3.0075   -2.8262 N   0  0  0  0  0  0  0  0  0  0  0  0
    0.5817   -1.9414   -3.5785 C   0  0  0  0  0  0  0  0  0  0  0  0
   -0.3339   -2.1514   -4.6142 C   0  0  0  0  0  0  0  0  0  0  0  0
   -0.9363   -1.0825   -5.2357 C   0  0  0  0  0  0  0  0  0  0  0  0
   -0.6674    0.2215   -4.8276 C   0  0  0  0  0  0  0  0  0  0  0  0
   -1.6185    1.5017   -5.5931 S   0  0  0  0  0  0  0  0  0  0  0  0
   -0.8184    3.0339   -5.0392 C   0  0  0  0  0  0  0  0  0  0  0  0
    0.2772    0.4416   -3.8370 C   0  0  0  0  0  0  0  0  0  0  0  0
    0.9059   -0.6298   -3.2331 C   0  0  0  0  0  0  0  0  0  0  0  0
    1.2998   -4.2855   -3.3407 C   0  0  0  0  0  0  0  0  0  0  0  0
    1.2386   -5.3830   -2.4845 C   0  0  0  0  0  0  0  0  0  0  0  0
    1.4286   -6.6668   -2.9588 C   0  0  0  0  0  0  0  0  0  0  0  0
    1.6801   -6.8768   -4.3068 C   0  0  0  0  0  0  0  0  0  0  0  0
    1.8772   -8.4710   -5.0455 S   0  0  0  0  0  0  0  0  0  0  0  0
    1.8907   -9.6099   -3.6314 C   0  0  0  0  0  0  0  0  0  0  0  0
    1.7672   -5.7811   -5.1638 C   0  0  0  0  0  0  0  0  0  0  0  0
    1.5904   -4.5017   -4.6890 C   0  0  0  0  0  0  0  0  0  0  0  0
    2.8934   -2.7524   -1.1687 C   0  0  0  0  0  0  0  0  0  0  0  0
    4.3278   -3.2390   -1.9811 S   0  0  0  0  0  0  0  0  0  0  0  0
    5.3227   -2.5837   -0.6715 C   0  0  0  0  0  0  0  0  0  0  0  0
    4.5338   -2.0994    0.3945 C   0  0  0  0  0  0  0  0  0  0  0  0
    4.9874   -1.6170    1.6032 N   0  0  0  0  0  0  0  0  0  0  0  0
    6.1555   -2.1084    2.2028 C   0  0  0  0  0  0  0  0  0  0  0  0
    6.9317   -1.2794    3.0173 C   0  0  0  0  0  0  0  0  0  0  0  0
    8.1212   -1.7339    3.5411 C   0  0  0  0  0  0  0  0  0  0  0  0
    8.5807   -3.0147    3.2437 C   0  0  0  0  0  0  0  0  0  0  0  0
   10.1798   -3.4639    3.8256 S   0  0  0  0  0  0  0  0  0  0  0  0
   10.6325   -4.8400    2.7277 C   0  0  0  0  0  0  0  0  0  0  0  0
    7.7734   -3.8703    2.5035 C   0  0  0  0  0  0  0  0  0  0  0  0
    6.5700   -3.4229    2.0004 C   0  0  0  0  0  0  0  0  0  0  0  0
    4.1790   -0.7215    2.3403 C   0  0  0  0  0  0  0  0  0  0  0  0
    3.5506    0.3570    1.7165 C   0  0  0  0  0  0  0  0  0  0  0  0
    2.7823    1.2345    2.4482 C   0  0  0  0  0  0  0  0  0  0  0  0
    2.6325    1.0650    3.8223 C   0  0  0  0  0  0  0  0  0  0  0  0
    1.6242    2.2469    4.6560 S   0  0  0  0  0  0  0  0  0  0  0  0
    1.4024    1.5374    6.3151 C   0  0  0  0  0  0  0  0  0  0  0  0
    3.2640   -0.0011    4.4505 C   0  0  0  0  0  0  0  0  0  0  0  0
    4.0185   -0.8910    3.7121 C   0  0  0  0  0  0  0  0  0  0  0  0
    3.1643   -2.2240    0.0889 C   0  0  0  0  0  0  0  0  0  0  0  0
    1.7025   -1.8038    0.9167 S   0  0  0  0  0  0  0  0  0  0  0  0
    6.7080   -2.6517   -0.8689 C   0  0  0  0  0  0  0  0  0  0  0  0
    7.7176   -1.9028   -0.3102 C   0  0  0  0  0  0  0  0  0  0  0  0
    9.0797   -2.4614   -0.1876 C   0  0  0  0  0  0  0  0  0  0  0  0
    9.4755   -3.5355   -0.5937 O   0  0  0  0  0  0  0  0  0  0  0  0
    9.8282   -1.4892    0.6373 C   0  0  0  0  0  0  0  0  0  0  0  0
   11.1245   -1.5642    1.1028 C   0  0  0  0  0  0  0  0  0  0  0  0
   11.6260   -0.5454    1.9077 C   0  0  0  0  0  0  0  0  0  0  0  0
   13.0028   -0.6056    2.4834 C   0  0  0  0  0  0  0  0  0  0  0  0
   10.7826    0.5296    2.1840 C   0  0  0  0  0  0  0  0  0  0  0  0
   11.2524    1.5266    2.9596 F   0  0  0  0  0  0  0  0  0  0  0  0
    9.4832    0.6400    1.7128 C   0  0  0  0  0  0  0  0  0  0  0  0
    8.9955   -0.3990    0.9411 C   0  0  0  0  0  0  0  0  0  0  0  0
    7.6978   -0.6066    0.3032 C   0  0  0  0  0  0  0  0  0  0  0  0
    6.7248    0.3550    0.1352 C   0  0  0  0  0  0  0  0  0  0  0  0
    6.6947    1.5722    0.8374 C   0  0  0  0  0  0  0  0  0  0  0  0
    6.5855    2.5499    1.4313 N   0  0  0  0  0  0  0  0  0  0  0  0
    5.6871    0.2470   -0.8035 C   0  0  0  0  0  0  0  0  0  0  0  0
    4.8463    0.2334   -1.5882 N   0  0  0  0  0  0  0  0  0  0  0  0
   -8.7123    4.8744   -1.6926 H   0  0  0  0  0  0  0  0  0  0  0  0
   -3.7954    7.0419    1.3973 H   0  0  0  0  0  0  0  0  0  0  0  0
   -2.9916    8.7286    2.9108 H   0  0  0  0  0  0  0  0  0  0  0  0
   -3.2573   10.3584    2.2678 H   0  0  0  0  0  0  0  0  0  0  0  0
   -4.2293    9.7907    3.6133 H   0  0  0  0  0  0  0  0  0  0  0  0
   -7.6783    9.9504    0.2680 H   0  0  0  0  0  0  0  0  0  0  0  0
   -7.2686    0.4673   -0.1296 H   0  0  0  0  0  0  0  0  0  0  0  0
   -4.1177    2.0795   -2.5398 H   0  0  0  0  0  0  0  0  0  0  0  0
   -5.3494    4.1898   -2.7405 H   0  0  0  0  0  0  0  0  0  0  0  0
   -4.3059    0.7956   -4.8710 H   0  0  0  0  0  0  0  0  0  0  0  0
   -6.0899    2.3031   -5.5917 H   0  0  0  0  0  0  0  0  0  0  0  0
   -7.7936    3.8442   -6.3416 H   0  0  0  0  0  0  0  0  0  0  0  0
   -8.8617    4.7149   -5.2133 H   0  0  0  0  0  0  0  0  0  0  0  0
   -7.2859    4.1232   -4.6436 H   0  0  0  0  0  0  0  0  0  0  0  0
   -8.9408    0.0000   -3.3904 H   0  0  0  0  0  0  0  0  0  0  0  0
   -7.1371   -1.5434   -2.6907 H   0  0  0  0  0  0  0  0  0  0  0  0
   -4.2540   -1.5006   -5.7587 H   0  0  0  0  0  0  0  0  0  0  0  0
   -3.3579   -3.4761   -6.9214 H   0  0  0  0  0  0  0  0  0  0  0  0
   -1.1522   -7.7847   -5.3107 H   0  0  0  0  0  0  0  0  0  0  0  0
   -1.1948   -6.5118   -4.0707 H   0  0  0  0  0  0  0  0  0  0  0  0
   -2.6069   -7.5972   -4.3048 H   0  0  0  0  0  0  0  0  0  0  0  0
   -3.2143   -5.5919   -3.2130 H   0  0  0  0  0  0  0  0  0  0  0  0
   -4.1372   -3.6544   -2.0718 H   0  0  0  0  0  0  0  0  0  0  0  0
   -0.3980    1.0997    0.0780 H   0  0  0  0  0  0  0  0  0  0  0  0
   -0.6887    3.5060    0.5483 H   0  0  0  0  0  0  0  0  0  0  0  0
   -0.4079    4.4839    4.8914 H   0  0  0  0  0  0  0  0  0  0  0  0
   -1.0573    6.1380    4.7941 H   0  0  0  0  0  0  0  0  0  0  0  0
   -2.1572    4.7907    5.1513 H   0  0  0  0  0  0  0  0  0  0  0  0
   -2.0024    2.5588    4.5029 H   0  0  0  0  0  0  0  0  0  0  0  0
   -1.7455    0.1821    4.0282 H   0  0  0  0  0  0  0  0  0  0  0  0
    0.6617   -0.5386    3.8106 H   0  0  0  0  0  0  0  0  0  0  0  0
    1.2477   -2.2488    5.4913 H   0  0  0  0  0  0  0  0  0  0  0  0
    0.0144   -7.1771    6.1597 H   0  0  0  0  0  0  0  0  0  0  0  0
   -1.3399   -6.3023    5.4122 H   0  0  0  0  0  0  0  0  0  0  0  0
    0.0635   -6.8186    4.4200 H   0  0  0  0  0  0  0  0  0  0  0  0
   -1.1493   -5.1000    3.3937 H   0  0  0  0  0  0  0  0  0  0  0  0
   -1.7429   -3.4070    1.7591 H   0  0  0  0  0  0  0  0  0  0  0  0
   -0.6077   -3.1540   -4.9014 H   0  0  0  0  0  0  0  0  0  0  0  0
   -1.6490   -1.2520   -6.0266 H   0  0  0  0  0  0  0  0  0  0  0  0
    0.2359    3.0090   -5.2982 H   0  0  0  0  0  0  0  0  0  0  0  0
   -1.3127    3.8362   -5.5783 H   0  0  0  0  0  0  0  0  0  0  0  0
   -0.9597    3.1677   -3.9703 H   0  0  0  0  0  0  0  0  0  0  0  0
    0.5354    1.4388   -3.5183 H   0  0  0  0  0  0  0  0  0  0  0  0
    1.6459   -0.4378   -2.4709 H   0  0  0  0  0  0  0  0  0  0  0  0
    1.0277   -5.2279   -1.4359 H   0  0  0  0  0  0  0  0  0  0  0  0
    1.3644   -7.4914   -2.2668 H   0  0  0  0  0  0  0  0  0  0  0  0
    2.6847   -9.3345   -2.9436 H   0  0  0  0  0  0  0  0  0  0  0  0
    2.0891  -10.5916   -4.0498 H   0  0  0  0  0  0  0  0  0  0  0  0
    0.9223   -9.6097   -3.1389 H   0  0  0  0  0  0  0  0  0  0  0  0
    1.9815   -5.9489   -6.2078 H   0  0  0  0  0  0  0  0  0  0  0  0
    1.6880   -3.6619   -5.3587 H   0  0  0  0  0  0  0  0  0  0  0  0
    6.6100   -0.2676    3.2150 H   0  0  0  0  0  0  0  0  0  0  0  0
    8.7277   -1.0858    4.1543 H   0  0  0  0  0  0  0  0  0  0  0  0
   10.3886   -4.5807    1.7015 H   0  0  0  0  0  0  0  0  0  0  0  0
   11.7049   -4.9658    2.8388 H   0  0  0  0  0  0  0  0  0  0  0  0
   10.1260   -5.7504    3.0353 H   0  0  0  0  0  0  0  0  0  0  0  0
    8.0725   -4.8873    2.3106 H   0  0  0  0  0  0  0  0  0  0  0  0
    5.9501   -4.1007    1.4336 H   0  0  0  0  0  0  0  0  0  0  0  0
    3.6641    0.5107    0.6554 H   0  0  0  0  0  0  0  0  0  0  0  0
    2.2920    2.0636    1.9623 H   0  0  0  0  0  0  0  0  0  0  0  0
    2.3467    1.5317    6.8512 H   0  0  0  0  0  0  0  0  0  0  0  0
    0.9845    0.5382    6.2346 H   0  0  0  0  0  0  0  0  0  0  0  0
    0.6998    2.1909    6.8228 H   0  0  0  0  0  0  0  0  0  0  0  0
    3.1718   -0.1573    5.5130 H   0  0  0  0  0  0  0  0  0  0  0  0
    4.4906   -1.7262    4.2078 H   0  0  0  0  0  0  0  0  0  0  0  0
    7.0433   -3.4431   -1.5333 H   0  0  0  0  0  0  0  0  0  0  0  0
   11.7444   -2.4096    0.8452 H   0  0  0  0  0  0  0  0  0  0  0  0
   12.9596   -1.0451    3.4807 H   0  0  0  0  0  0  0  0  0  0  0  0
   13.4280    0.3911    2.5757 H   0  0  0  0  0  0  0  0  0  0  0  0
   13.6513   -1.2212    1.8659 H   0  0  0  0  0  0  0  0  0  0  0  0
    8.8952    1.5048    1.9737 H   0  0  0  0  0  0  0  0  0  0  0  0
  1  2  2  0  0  0  0
  2  3  1  0  0  0  0
  3  4  2  0  0  0  0
  3  5  1  0  0  0  0
  5  6  2  0  0  0  0
  6  7  1  0  0  0  0
  7  8  1  0  0  0  0
  7  9  2  0  0  0  0
  9 10  1  0  0  0  0
  9 11  1  0  0  0  0
 11 12  2  0  0  0  0
 12 13  1  0  0  0  0
 13 14  2  0  0  0  0
 14 15  1  0  0  0  0
 15 16  3  0  0  0  0
 14 17  1  0  0  0  0
 17 18  3  0  0  0  0
  1 19  1  0  0  0  0
 19 20  2  0  0  0  0
 20 21  1  0  0  0  0
 20 22  1  0  0  0  0
 22 23  2  0  0  0  0
 23 24  1  0  0  0  0
 24 25  2  0  0  0  0
 23 26  1  0  0  0  0
 26 27  2  0  0  0  0
 27 28  1  0  0  0  0
 28 29  1  0  0  0  0
 29 30  2  0  0  0  0
 30 31  1  0  0  0  0
 31 32  2  0  0  0  0
 32 33  1  0  0  0  0
 33 34  1  0  0  0  0
 32 35  1  0  0  0  0
 35 36  2  0  0  0  0
 28 37  1  0  0  0  0
 37 38  2  0  0  0  0
 38 39  1  0  0  0  0
 39 40  2  0  0  0  0
 40 41  1  0  0  0  0
 41 42  1  0  0  0  0
 40 43  1  0  0  0  0
 43 44  2  0  0  0  0
 27 45  1  0  0  0  0
 45 46  1  0  0  0  0
 46 47  1  0  0  0  0
 47 48  2  0  0  0  0
 48 49  1  0  0  0  0
 49 50  1  0  0  0  0
 50 51  2  0  0  0  0
 51 52  1  0  0  0  0
 52 53  2  0  0  0  0
 53 54  1  0  0  0  0
 54 55  1  0  0  0  0
 53 56  1  0  0  0  0
 56 57  2  0  0  0  0
 49 58  1  0  0  0  0
 58 59  2  0  0  0  0
 59 60  1  0  0  0  0
 60 61  2  0  0  0  0
 61 62  1  0  0  0  0
 62 63  1  0  0  0  0
 61 64  1  0  0  0  0
 64 65  2  0  0  0  0
 48 66  1  0  0  0  0
 66 67  1  0  0  0  0
 47 68  1  0  0  0  0
 68 69  2  0  0  0  0
 69 70  1  0  0  0  0
 70 71  1  0  0  0  0
 71 72  2  0  0  0  0
 72 73  1  0  0  0  0
 73 74  2  0  0  0  0
 74 75  1  0  0  0  0
 75 76  1  0  0  0  0
 74 77  1  0  0  0  0
 77 78  2  0  0  0  0
 70 79  1  0  0  0  0
 79 80  2  0  0  0  0
 80 81  1  0  0  0  0
 81 82  2  0  0  0  0
 82 83  1  0  0  0  0
 83 84  1  0  0  0  0
 82 85  1  0  0  0  0
 85 86  2  0  0  0  0
 69 87  1  0  0  0  0
 87 88  1  0  0  0  0
 88 89  1  0  0  0  0
 89 90  2  0  0  0  0
 90 91  1  0  0  0  0
 91 92  1  0  0  0  0
 92 93  2  0  0  0  0
 93 94  1  0  0  0  0
 94 95  2  0  0  0  0
 95 96  1  0  0  0  0
 96 97  1  0  0  0  0
 95 98  1  0  0  0  0
 98 99  2  0  0  0  0
 91100  1  0  0  0  0
100101  2  0  0  0  0
101102  1  0  0  0  0
102103  2  0  0  0  0
103104  1  0  0  0  0
104105  1  0  0  0  0
103106  1  0  0  0  0
106107  2  0  0  0  0
 90108  1  0  0  0  0
108109  1  0  0  0  0
 89110  1  0  0  0  0
110111  2  0  0  0  0
111112  1  0  0  0  0
112113  2  0  0  0  0
112114  1  0  0  0  0
114115  2  0  0  0  0
115116  1  0  0  0  0
116117  1  0  0  0  0
116118  2  0  0  0  0
118119  1  0  0  0  0
118120  1  0  0  0  0
120121  2  0  0  0  0
121122  1  0  0  0  0
122123  2  0  0  0  0
123124  1  0  0  0  0
124125  3  0  0  0  0
123126  1  0  0  0  0
126127  3  0  0  0  0
 13  2  1  0  0  0  0
 25 19  1  0  0  0  0
 67 26  1  0  0  0  0
109 68  1  0  0  0  0
122111  1  0  0  0  0
 12  5  1  0  0  0  0
 36 29  1  0  0  0  0
 44 37  1  0  0  0  0
 66 45  2  0  0  0  0
 78 71  1  0  0  0  0
 86 79  1  0  0  0  0
108 87  2  0  0  0  0
121114  1  0  0  0  0
 57 50  1  0  0  0  0
 65 58  1  0  0  0  0
 99 92  1  0  0  0  0
107100  1  0  0  0  0
  1128  1  0  0  0  0
  6129  1  0  0  0  0
  8130  1  0  0  0  0
  8131  1  0  0  0  0
  8132  1  0  0  0  0
 11133  1  0  0  0  0
 22134  1  0  0  0  0
 24135  1  0  0  0  0
 25136  1  0  0  0  0
 30137  1  0  0  0  0
 31138  1  0  0  0  0
 34139  1  0  0  0  0
 34140  1  0  0  0  0
 34141  1  0  0  0  0
 35142  1  0  0  0  0
 36143  1  0  0  0  0
 38144  1  0  0  0  0
 39145  1  0  0  0  0
 42146  1  0  0  0  0
 42147  1  0  0  0  0
 42148  1  0  0  0  0
 43149  1  0  0  0  0
 44150  1  0  0  0  0
 51151  1  0  0  0  0
 52152  1  0  0  0  0
 55153  1  0  0  0  0
 55154  1  0  0  0  0
 55155  1  0  0  0  0
 56156  1  0  0  0  0
 57157  1  0  0  0  0
 59158  1  0  0  0  0
 60159  1  0  0  0  0
 63160  1  0  0  0  0
 63161  1  0  0  0  0
 63162  1  0  0  0  0
 64163  1  0  0  0  0
 65164  1  0  0  0  0
 72165  1  0  0  0  0
 73166  1  0  0  0  0
 76167  1  0  0  0  0
 76168  1  0  0  0  0
 76169  1  0  0  0  0
 77170  1  0  0  0  0
 78171  1  0  0  0  0
 80172  1  0  0  0  0
 81173  1  0  0  0  0
 84174  1  0  0  0  0
 84175  1  0  0  0  0
 84176  1  0  0  0  0
 85177  1  0  0  0  0
 86178  1  0  0  0  0
 93179  1  0  0  0  0
 94180  1  0  0  0  0
 97181  1  0  0  0  0
 97182  1  0  0  0  0
 97183  1  0  0  0  0
 98184  1  0  0  0  0
 99185  1  0  0  0  0
101186  1  0  0  0  0
102187  1  0  0  0  0
105188  1  0  0  0  0
105189  1  0  0  0  0
105190  1  0  0  0  0
106191  1  0  0  0  0
107192  1  0  0  0  0
110193  1  0  0  0  0
115194  1  0  0  0  0
117195  1  0  0  0  0
117196  1  0  0  0  0
117197  1  0  0  0  0
120198  1  0  0  0  0
M  END
