106

C          4.18990        1.44290       -7.46740
C          5.06760        2.43820       -7.11920
C          5.29620        2.93900       -5.75920
O          4.76750        2.56060       -4.72840
C          6.30660        4.00510       -5.88160
C          6.85050        4.79430       -4.88770
C          7.79610        5.75760       -5.22180
C          8.42050        6.65350       -4.20330
C          8.15090        5.87130       -6.56730
F          9.06690        6.79920       -6.90080
C          7.62040        5.09160       -7.58290
C          6.67660        4.14030       -7.23050
C          5.91970        3.17780       -8.02950
C          6.01350        3.03510       -9.39000
C          6.87360        3.80000      -10.20650
N          7.55290        4.38040      -10.92720
C          5.27660        2.12680      -10.17770
N          4.71720        1.41930      -10.88980
C          3.31260        0.69150       -6.67180
C          2.46900       -0.27550       -7.21480
C          1.64070       -0.89840       -6.29030
S          0.48190       -2.16780       -6.63610
C          0.30700       -2.09630       -8.45560
C         -0.40700       -0.84200       -8.91910
C          1.85330       -0.42080       -4.99150
S          3.08280        0.80540       -4.94870
C          1.20950       -0.78050       -3.78120
C          1.55500       -0.31520       -2.53630
C          0.73100       -0.79070       -1.49600
C          0.81310       -0.50390       -0.12330
C          1.90210        0.35430        0.44390
C          3.17840       -0.46260        0.65550
C         -0.14290       -1.08990        0.67950
C         -1.17990       -1.92990        0.18750
C         -1.25520       -2.22400       -1.18340
C         -2.29770       -3.14420       -1.74130
C         -1.87510       -4.60520       -1.57440
C         -0.28940       -1.65050       -1.98610
S         -0.16790       -1.85970       -3.71600
C         -2.03940       -2.35440        1.22390
C         -1.69590       -1.87890        2.46230
S         -0.25720       -0.88240        2.41070
C         -2.39350       -2.09460        3.67670
Se        -4.04290       -2.99400        3.73710
C         -4.15420       -2.57680        5.57750
C         -2.99440       -1.91270        5.98490
C         -2.51770       -1.44820        7.23800
C         -1.31160       -0.83030        7.15600
C         -0.52280       -0.22420        8.26170
C          0.80960       -0.94870        8.46080
S         -0.67440       -0.79550        5.52690
C         -2.06290       -1.65650        4.94460
C         -5.32120       -2.87180        6.29710
C         -5.82100       -2.21840        7.39510
C         -6.79530       -2.89180        8.28590
O         -7.36330       -3.94270        8.08650
C         -6.88070       -2.02910        9.48620
C         -7.58400       -2.23770       10.65550
C         -7.51130       -1.29470       11.67610
C         -8.24720       -1.45520       12.96610
C         -6.71580       -0.16860       11.45980
F         -6.62830        0.74240       12.44820
C         -6.00980        0.07270       10.29190
C         -6.09770       -0.87770        9.28890
C         -5.53490       -0.91750        7.94050
C         -5.03820        0.16650        7.25390
C         -4.84190        0.16280        5.86060
N         -4.72840        0.20640        4.71790
C         -4.74540        1.40810        7.84650
N         -4.44440        2.42260        8.29290
H          4.13710        1.18290       -8.51750
H          6.53760        4.65970       -3.86350
H          8.17390        7.69290       -4.41850
H          8.07280        6.40560       -3.20480
H          9.50570        6.56540       -4.23820
H          7.95260        5.24920       -8.59540
H          2.48920       -0.49700       -8.26640
H          1.29310       -2.20710       -8.90390
H         -0.28110       -2.98500       -8.68460
H          0.14990        0.05150       -8.64520
H         -1.39420       -0.78280       -8.46710
H         -0.51860       -0.86160      -10.00120
H          2.38370        0.35480       -2.39220
H          2.10860        1.18710       -0.22970
H          1.57270        0.76110        1.40260
H          2.99100       -1.27990        1.34810
H          3.52430       -0.88100       -0.28680
H          3.96360        0.16680        1.06640
H         -2.42970       -2.92900       -2.80370
H         -3.25070       -2.97780       -1.23650
H         -2.63610       -5.26560       -1.98220
H         -0.94090       -4.78730       -2.10030
H         -1.73170       -4.84500       -0.52320
H         -2.90190       -2.98640        1.08170
H         -3.03690       -1.59260        8.16860
H         -1.11190       -0.26590        9.18010
H         -0.32760        0.82640        8.03050
H          1.40940       -0.89170        7.55540
H          1.36490       -0.49250        9.27580
H          0.63980       -1.99630        8.69870
H         -5.89350       -3.73810        5.97470
H         -8.18600       -3.12630       10.76900
H         -7.54420       -1.49140       13.79790
H         -8.90260       -0.60110       13.13350
H         -8.84040       -2.36480       12.96200
H         -5.41990        0.97030       10.20200
