
  xtb     02032220113D
 energy: -169.254418173065 gnorm: 0.000748251874 xtb: 6.4.1 (unknown)
 92100  0     0  0            999 V2000
   -0.0250   -3.5800    5.4188 C   0  0  0  0  0  0  0  0  0  0  0  0
   -1.1857   -3.7548    6.1253 C   0  0  0  0  0  0  0  0  0  0  0  0
   -2.4666   -3.0938    5.8436 C   0  0  0  0  0  0  0  0  0  0  0  0
   -2.7296   -2.3456    4.9190 O   0  0  0  0  0  0  0  0  0  0  0  0
   -3.3858   -3.5114    6.9166 C   0  0  0  0  0  0  0  0  0  0  0  0
   -4.7016   -3.1416    7.1136 C   0  0  0  0  0  0  0  0  0  0  0  0
   -5.3970   -3.6496    8.2052 C   0  0  0  0  0  0  0  0  0  0  0  0
   -6.8189   -3.2911    8.4859 C   0  0  0  0  0  0  0  0  0  0  0  0
   -4.7131   -4.5227    9.0540 C   0  0  0  0  0  0  0  0  0  0  0  0
   -5.3768   -5.0184   10.1142 F   0  0  0  0  0  0  0  0  0  0  0  0
   -3.3947   -4.9110    8.8767 C   0  0  0  0  0  0  0  0  0  0  0  0
   -2.7178   -4.3924    7.7842 C   0  0  0  0  0  0  0  0  0  0  0  0
   -1.3487   -4.5808    7.3082 C   0  0  0  0  0  0  0  0  0  0  0  0
   -0.4198   -5.4073    7.8836 C   0  0  0  0  0  0  0  0  0  0  0  0
    0.8957   -5.6186    7.4199 C   0  0  0  0  0  0  0  0  0  0  0  0
    1.9770   -5.8484    7.1072 N   0  0  0  0  0  0  0  0  0  0  0  0
   -0.6622   -6.1853    9.0363 C   0  0  0  0  0  0  0  0  0  0  0  0
   -0.7911   -6.8412    9.9692 N   0  0  0  0  0  0  0  0  0  0  0  0
    0.2327   -2.7965    4.2810 C   0  0  0  0  0  0  0  0  0  0  0  0
    1.5098   -2.6688    3.7414 C   0  0  0  0  0  0  0  0  0  0  0  0
    1.5729   -1.8597    2.6110 C   0  0  0  0  0  0  0  0  0  0  0  0
    3.0521   -1.3482    1.8121 S   0  0  0  0  0  0  0  0  0  0  0  0
    4.1519   -2.7855    2.0755 C   0  0  0  0  0  0  0  0  0  0  0  0
    3.6119   -4.0405    1.4205 C   0  0  0  0  0  0  0  0  0  0  0  0
    0.3222   -1.3558    2.2620 C   0  0  0  0  0  0  0  0  0  0  0  0
   -0.9129   -1.8575    3.3624 S   0  0  0  0  0  0  0  0  0  0  0  0
   -0.0394   -0.4903    1.1679 C   0  0  0  0  0  0  0  0  0  0  0  0
   -0.9693    0.5203    1.3535 C   0  0  0  0  0  0  0  0  0  0  0  0
   -1.3415    1.3903    0.3362 C   0  0  0  0  0  0  0  0  0  0  0  0
   -0.8009    1.2985   -0.9394 C   0  0  0  0  0  0  0  0  0  0  0  0
    0.1260    0.2392   -1.1706 C   0  0  0  0  0  0  0  0  0  0  0  0
    0.6379    0.1036   -2.4015 N   0  0  0  0  0  0  0  0  0  0  0  0
    1.4457   -0.8963   -2.6410 C   0  0  0  0  0  0  0  0  0  0  0  0
    1.7344   -1.8405   -1.6397 C   0  0  0  0  0  0  0  0  0  0  0  0
    1.2675   -1.7290   -0.4251 N   0  0  0  0  0  0  0  0  0  0  0  0
    0.4888   -0.6703   -0.1421 C   0  0  0  0  0  0  0  0  0  0  0  0
   -1.1286    2.1758   -2.0219 C   0  0  0  0  0  0  0  0  0  0  0  0
   -0.4162    1.9564   -3.7486 Se  0  0  0  0  0  2  0  0  0  0  0  0
   -1.4337    3.4724   -4.2999 C   0  0  0  0  0  0  0  0  0  0  0  0
   -2.1587    3.9761   -3.2012 C   0  0  0  0  0  0  0  0  0  0  0  0
   -3.0449    5.0749   -3.0633 C   0  0  0  0  0  0  0  0  0  0  0  0
   -3.5381    5.2116   -1.8078 C   0  0  0  0  0  0  0  0  0  0  0  0
   -4.4633    6.2546   -1.2908 C   0  0  0  0  0  0  0  0  0  0  0  0
   -3.7494    7.1953   -0.3175 C   0  0  0  0  0  0  0  0  0  0  0  0
   -2.9313    3.9855   -0.7174 S   0  0  0  0  0  0  0  0  0  0  0  0
   -1.9854    3.2667   -1.9901 C   0  0  0  0  0  0  0  0  0  0  0  0
   -1.5412    4.0838   -5.5476 C   0  0  0  0  0  0  0  0  0  0  0  0
   -0.9426    3.7739   -6.7499 C   0  0  0  0  0  0  0  0  0  0  0  0
   -0.0133    2.6746   -6.9622 C   0  0  0  0  0  0  0  0  0  0  0  0
    0.3801    1.8675   -6.1293 O   0  0  0  0  0  0  0  0  0  0  0  0
    0.3651    2.7213   -8.3868 C   0  0  0  0  0  0  0  0  0  0  0  0
    1.2219    1.8958   -9.0865 C   0  0  0  0  0  0  0  0  0  0  0  0
    1.4357    2.1240  -10.4422 C   0  0  0  0  0  0  0  0  0  0  0  0
    2.3487    1.2730  -11.2628 C   0  0  0  0  0  0  0  0  0  0  0  0
    0.7596    3.1937  -11.0297 C   0  0  0  0  0  0  0  0  0  0  0  0
    0.9599    3.4226  -12.3416 F   0  0  0  0  0  0  0  0  0  0  0  0
   -0.1054    4.0376  -10.3498 C   0  0  0  0  0  0  0  0  0  0  0  0
   -0.3045    3.7944   -9.0014 C   0  0  0  0  0  0  0  0  0  0  0  0
   -1.1300    4.4729   -8.0007 C   0  0  0  0  0  0  0  0  0  0  0  0
   -1.9231    5.5676   -8.2385 C   0  0  0  0  0  0  0  0  0  0  0  0
   -2.7166    6.2300   -7.2799 C   0  0  0  0  0  0  0  0  0  0  0  0
   -3.3890    6.8245   -6.5612 N   0  0  0  0  0  0  0  0  0  0  0  0
   -2.0532    6.1896   -9.4975 C   0  0  0  0  0  0  0  0  0  0  0  0
   -2.2033    6.7432  -10.4922 N   0  0  0  0  0  0  0  0  0  0  0  0
    0.8521   -4.1037    5.7795 H   0  0  0  0  0  0  0  0  0  0  0  0
   -5.1775   -2.4629    6.4224 H   0  0  0  0  0  0  0  0  0  0  0  0
   -7.4362   -4.1886    8.5057 H   0  0  0  0  0  0  0  0  0  0  0  0
   -6.9007   -2.8216    9.4658 H   0  0  0  0  0  0  0  0  0  0  0  0
   -7.2025   -2.6106    7.7315 H   0  0  0  0  0  0  0  0  0  0  0  0
   -2.9465   -5.5893    9.5835 H   0  0  0  0  0  0  0  0  0  0  0  0
    2.3588   -3.1494    4.1939 H   0  0  0  0  0  0  0  0  0  0  0  0
    4.3125   -2.9128    3.1452 H   0  0  0  0  0  0  0  0  0  0  0  0
    5.0906   -2.4751    1.6168 H   0  0  0  0  0  0  0  0  0  0  0  0
    3.4436   -3.8671    0.3609 H   0  0  0  0  0  0  0  0  0  0  0  0
    2.6678   -4.3384    1.8711 H   0  0  0  0  0  0  0  0  0  0  0  0
    4.3251   -4.8540    1.5373 H   0  0  0  0  0  0  0  0  0  0  0  0
   -1.4054    0.6479    2.3335 H   0  0  0  0  0  0  0  0  0  0  0  0
   -2.0651    2.1561    0.5625 H   0  0  0  0  0  0  0  0  0  0  0  0
    1.8513   -0.9658   -3.6398 H   0  0  0  0  0  0  0  0  0  0  0  0
    2.3489   -2.7060   -1.8475 H   0  0  0  0  0  0  0  0  0  0  0  0
   -3.3120    5.7422   -3.8640 H   0  0  0  0  0  0  0  0  0  0  0  0
   -4.8570    6.8238   -2.1349 H   0  0  0  0  0  0  0  0  0  0  0  0
   -5.3010    5.7764   -0.7758 H   0  0  0  0  0  0  0  0  0  0  0  0
   -2.9180    7.6920   -0.8128 H   0  0  0  0  0  0  0  0  0  0  0  0
   -3.3634    6.6381    0.5337 H   0  0  0  0  0  0  0  0  0  0  0  0
   -4.4397    7.9519    0.0461 H   0  0  0  0  0  0  0  0  0  0  0  0
   -2.2091    4.9356   -5.5591 H   0  0  0  0  0  0  0  0  0  0  0  0
    1.7181    1.0824   -8.5795 H   0  0  0  0  0  0  0  0  0  0  0  0
    2.7913    0.4866  -10.6587 H   0  0  0  0  0  0  0  0  0  0  0  0
    1.8007    0.8231  -12.0899 H   0  0  0  0  0  0  0  0  0  0  0  0
    3.1426    1.8818  -11.6945 H   0  0  0  0  0  0  0  0  0  0  0  0
   -0.5857    4.8407  -10.8837 H   0  0  0  0  0  0  0  0  0  0  0  0
  1  2  2  0  0  0  0
  2  3  1  0  0  0  0
  3  4  2  0  0  0  0
  3  5  1  0  0  0  0
  5  6  2  0  0  0  0
  6  7  1  0  0  0  0
  7  8  1  0  0  0  0
  7  9  2  0  0  0  0
  9 10  1  0  0  0  0
  9 11  1  0  0  0  0
 11 12  2  0  0  0  0
 12 13  1  0  0  0  0
 13 14  2  0  0  0  0
 14 15  1  0  0  0  0
 15 16  3  0  0  0  0
 14 17  1  0  0  0  0
 17 18  3  0  0  0  0
  1 19  1  0  0  0  0
 19 20  2  0  0  0  0
 20 21  1  0  0  0  0
 21 22  1  0  0  0  0
 22 23  1  0  0  0  0
 23 24  1  0  0  0  0
 21 25  2  0  0  0  0
 25 26  1  0  0  0  0
 25 27  1  0  0  0  0
 27 28  2  0  0  0  0
 28 29  1  0  0  0  0
 29 30  2  0  0  0  0
 30 31  1  0  0  0  0
 31 32  2  0  0  0  0
 32 33  1  0  0  0  0
 33 34  2  0  0  0  0
 34 35  1  0  0  0  0
 35 36  2  0  0  0  0
 30 37  1  0  0  0  0
 37 38  1  0  0  0  0
 38 39  1  0  0  0  0
 39 40  2  0  0  0  0
 40 41  1  0  0  0  0
 41 42  2  0  0  0  0
 42 43  1  0  0  0  0
 43 44  1  0  0  0  0
 42 45  1  0  0  0  0
 45 46  1  0  0  0  0
 39 47  1  0  0  0  0
 47 48  2  0  0  0  0
 48 49  1  0  0  0  0
 49 50  2  0  0  0  0
 49 51  1  0  0  0  0
 51 52  2  0  0  0  0
 52 53  1  0  0  0  0
 53 54  1  0  0  0  0
 53 55  2  0  0  0  0
 55 56  1  0  0  0  0
 55 57  1  0  0  0  0
 57 58  2  0  0  0  0
 58 59  1  0  0  0  0
 59 60  2  0  0  0  0
 60 61  1  0  0  0  0
 61 62  3  0  0  0  0
 60 63  1  0  0  0  0
 63 64  3  0  0  0  0
 13  2  1  0  0  0  0
 26 19  1  0  0  0  0
 36 27  1  0  0  0  0
 46 37  2  0  0  0  0
 59 48  1  0  0  0  0
 12  5  1  0  0  0  0
 36 31  1  0  0  0  0
 46 40  1  0  0  0  0
 58 51  1  0  0  0  0
  1 65  1  0  0  0  0
  6 66  1  0  0  0  0
  8 67  1  0  0  0  0
  8 68  1  0  0  0  0
  8 69  1  0  0  0  0
 11 70  1  0  0  0  0
 20 71  1  0  0  0  0
 23 72  1  0  0  0  0
 23 73  1  0  0  0  0
 24 74  1  0  0  0  0
 24 75  1  0  0  0  0
 24 76  1  0  0  0  0
 28 77  1  0  0  0  0
 29 78  1  0  0  0  0
 33 79  1  0  0  0  0
 34 80  1  0  0  0  0
 41 81  1  0  0  0  0
 43 82  1  0  0  0  0
 43 83  1  0  0  0  0
 44 84  1  0  0  0  0
 44 85  1  0  0  0  0
 44 86  1  0  0  0  0
 47 87  1  0  0  0  0
 52 88  1  0  0  0  0
 54 89  1  0  0  0  0
 54 90  1  0  0  0  0
 54 91  1  0  0  0  0
 57 92  1  0  0  0  0
M  END
