175

C          8.15750        2.08020        5.54100
C          9.25990        2.86970        5.36840
C          9.38430        4.00090        4.43110
O          8.54480        4.43180        3.66560
C         10.75080        4.52490        4.61130
C         11.35650        5.58220        3.96110
C         12.66700        5.91910        4.27930
C         13.38770        7.04730        3.61800
C         13.30860        5.15500        5.25670
F         14.57760        5.47320        5.57170
C         12.72350        4.09120        5.92370
C         11.41590        3.77060        5.59260
C         10.51550        2.73130        6.08570
C         10.83120        1.80490        7.04520
C         12.08220        1.73860        7.69570
N         13.07390        1.62900        8.26290
C          9.98310        0.78710        7.53040
N          9.36560       -0.07000        7.98210
C          6.90680        2.09130        4.89170
C          5.92640        1.16550        5.20340
C          4.76390        1.28400        4.43190
C          3.58690        0.50460        4.51030
C          3.41830       -0.55100        5.49230
S          4.54610       -1.86150        5.66790
C          3.60650       -2.60650        6.91580
C          4.07880       -3.84060        7.60050
C          5.02500       -3.49420        8.75310
C          2.49220       -1.86600        7.18020
Cl         1.31770       -2.28100        8.36080
C          2.38260       -0.70400        6.37250
Cl         1.12910        0.44060        6.56410
C          2.58820        0.79890        3.60150
C          2.67770        1.86930        2.67200
C          3.81470        2.70480        2.65100
C          3.86720        3.85580        1.77680
C          2.85090        4.72000        1.46550
C          3.24290        5.75110        0.59240
C          4.55230        5.67580        0.22410
C          5.32820        6.60210       -0.64750
C          6.35170        7.39520        0.16750
S          5.33640        4.32320        0.97070
C          4.85690        2.35960        3.50760
S          6.38750        3.17940        3.62220
C          1.57060        1.88920        1.80500
C          0.65270        0.89360        2.03680
S          1.12170       -0.12150        3.38290
C         -0.48470        0.65610        1.22580
C         -1.46150       -0.33660        1.26240
N         -1.59700       -1.34920        2.19690
C         -2.05740       -2.57490        1.66900
C         -3.20890       -3.19000        2.14740
C         -3.72390       -4.30120        1.50890
C         -3.09780       -4.80810        0.37790
S         -3.72390       -6.15720       -0.56980
C         -5.43570       -6.32200        0.01200
C         -1.90600       -4.23600       -0.06150
C         -1.38900       -3.13300        0.57890
C         -1.65680       -1.11920        3.57330
C         -1.39670       -2.17090        4.45520
C         -1.50040       -1.98040        5.81270
C         -1.85770       -0.73500        6.32920
S         -1.99860       -0.62360        8.08280
C         -2.16510        1.15540        8.39570
C         -2.09390        0.31920        5.45730
C         -1.99500        0.12740        4.09290
C         -2.31650       -0.24290        0.13500
S         -3.63060       -1.21010       -0.44570
C         -3.78520       -0.18160       -1.85420
C         -2.79760        0.81290       -1.91130
N         -2.48490        1.56260       -3.02070
C         -1.82900        2.78680       -2.83850
C         -2.25270        3.66340       -1.83810
C         -1.55490        4.82440       -1.59580
C         -0.42090        5.13710       -2.34510
S          0.42740        6.61580       -1.90140
C          1.89490        6.62440       -2.97000
C         -0.02670        4.29060       -3.37390
C         -0.72740        3.12650       -3.61860
C         -2.65940        1.03500       -4.30890
C         -3.07350        1.85430       -5.35830
C         -3.34420        1.31210       -6.59710
C         -3.19250       -0.05480       -6.81870
S         -3.63030       -0.68580       -8.40720
C         -2.55060       -2.13890       -8.57070
C         -2.72500       -0.86630       -5.79120
C         -2.45410       -0.32230       -4.55440
C         -2.01040        0.78820       -0.73920
S         -0.66620        1.71440       -0.17540
C         -4.77530       -0.48690       -2.81630
C         -5.39020        0.47010       -3.65420
C         -6.17190        0.08790       -4.80740
N         -6.65710        1.15010       -5.44450
S         -6.22600        2.48200       -4.65680
N         -5.36230        1.79300       -3.48920
C         -6.31570       -1.26250       -5.21370
C         -5.90260       -2.20750       -4.24500
N         -6.12710       -3.51860       -4.26770
S         -5.46810       -4.19550       -2.97150
N         -4.88290       -2.86560       -2.28400
C         -5.18210       -1.81870       -3.05200
C         -6.85620       -1.56050       -6.47900
C         -6.57980       -2.66640       -7.24480
C         -5.38850       -3.51850       -7.10170
O         -4.48810       -3.44430       -6.28410
C         -5.39280       -4.41340       -8.27920
C         -4.49480       -5.38490       -8.61190
C         -4.67230       -6.10150       -9.81690
C         -3.77680       -7.11580      -10.20610
C         -3.96630       -7.78690      -11.38160
F         -3.10950       -8.75120      -11.75140
C         -5.05700       -7.47440      -12.21570
F         -5.21740       -8.14850      -13.36390
C         -5.94400       -6.49590      -11.86350
C         -5.77710       -5.78530      -10.65820
C         -6.69120       -4.77220      -10.28470
C         -6.50360       -4.09790       -9.10820
C         -7.26560       -3.03190       -8.46270
C         -8.46590       -2.53300       -8.90180
C         -9.25340       -1.59100       -8.20730
N         -9.97170       -0.85460       -7.69640
C         -9.09280       -2.93340      -10.09850
N         -9.64430       -3.21700      -11.06520
H          8.23070        1.29680        6.28580
H         10.80940        6.13620        3.21350
H         12.74000        7.55960        2.91280
H         13.73880        7.75850        4.36470
H         14.26500        6.67390        3.09040
H         13.29420        3.55720        6.66500
H          6.06480        0.41990        5.96610
H          3.21190       -4.37900        7.98780
H          4.59790       -4.47890        6.88360
H          5.35820       -4.40280        9.24700
H          4.51690       -2.86780        9.48170
H          5.89610       -2.96000        8.38160
H          1.86530        4.64980        1.88930
H          2.57250        6.52050        0.25210
H          5.85160        6.03180       -1.41950
H          4.63520        7.28900       -1.13800
H          7.04120        6.71750        0.66540
H          5.84900        7.99260        0.92460
H          6.91840        8.05900       -0.48100
H          1.46320        2.58630        0.99390
H         -3.71880       -2.77740        3.00500
H         -4.62750       -4.74720        1.89130
H         -5.91490       -7.01510       -0.67230
H         -5.45510       -6.73070        1.01820
H         -5.92610       -5.35430       -0.03310
H         -1.40590       -4.65620       -0.92020
H         -0.47890       -2.67220        0.22350
H         -1.11180       -3.13500        4.06210
H         -1.30090       -2.79260        6.49450
H         -1.32850        1.68400        7.94800
H         -2.13720        1.26640        9.47530
H         -3.11500        1.51850        8.01380
H         -2.36680        1.29530        5.82490
H         -2.19720        0.95140        3.42430
H         -3.13190        3.42150       -1.26080
H         -1.87340        5.50180       -0.81880
H          2.44590        7.52030       -2.70070
H          2.50030        5.74460       -2.77200
H          1.59850        6.68020       -4.01320
H          0.83390        4.51580       -3.98230
H         -0.40520        2.46090       -4.40580
H         -3.20550        2.91210       -5.18470
H         -3.69220        1.94010       -7.40260
H         -2.85300       -2.91470       -7.87540
H         -1.52170       -1.83760       -8.39940
H         -2.67570       -2.48720       -9.59120
H         -2.59910       -1.92590       -5.93650
H         -2.09210       -0.96210       -3.76320
H         -7.48310       -0.78160       -6.89590
H         -3.66120       -5.61240       -7.96420
H         -2.93660       -7.36770       -9.57790
H         -6.77520       -6.27010      -12.51310
H         -7.51470       -4.55300      -10.94470
