92

C         -0.02500       -3.58000        5.41880
C         -1.18570       -3.75480        6.12530
C         -2.46660       -3.09380        5.84360
O         -2.72960       -2.34560        4.91900
C         -3.38580       -3.51140        6.91660
C         -4.70160       -3.14160        7.11360
C         -5.39700       -3.64960        8.20520
C         -6.81890       -3.29110        8.48590
C         -4.71310       -4.52270        9.05400
F         -5.37680       -5.01840       10.11420
C         -3.39470       -4.91100        8.87670
C         -2.71780       -4.39240        7.78420
C         -1.34870       -4.58080        7.30820
C         -0.41980       -5.40730        7.88360
C          0.89570       -5.61860        7.41990
N          1.97700       -5.84840        7.10720
C         -0.66220       -6.18530        9.03630
N         -0.79110       -6.84120        9.96920
C          0.23270       -2.79650        4.28100
C          1.50980       -2.66880        3.74140
C          1.57290       -1.85970        2.61100
S          3.05210       -1.34820        1.81210
C          4.15190       -2.78550        2.07550
C          3.61190       -4.04050        1.42050
C          0.32220       -1.35580        2.26200
S         -0.91290       -1.85750        3.36240
C         -0.03940       -0.49030        1.16790
C         -0.96930        0.52030        1.35350
C         -1.34150        1.39030        0.33620
C         -0.80090        1.29850       -0.93940
C          0.12600        0.23920       -1.17060
N          0.63790        0.10360       -2.40150
C          1.44570       -0.89630       -2.64100
C          1.73440       -1.84050       -1.63970
N          1.26750       -1.72900       -0.42510
C          0.48880       -0.67030       -0.14210
C         -1.12860        2.17580       -2.02190
Se        -0.41620        1.95640       -3.74860
C         -1.43370        3.47240       -4.29990
C         -2.15870        3.97610       -3.20120
C         -3.04490        5.07490       -3.06330
C         -3.53810        5.21160       -1.80780
C         -4.46330        6.25460       -1.29080
C         -3.74940        7.19530       -0.31750
S         -2.93130        3.98550       -0.71740
C         -1.98540        3.26670       -1.99010
C         -1.54120        4.08380       -5.54760
C         -0.94260        3.77390       -6.74990
C         -0.01330        2.67460       -6.96220
O          0.38010        1.86750       -6.12930
C          0.36510        2.72130       -8.38680
C          1.22190        1.89580       -9.08650
C          1.43570        2.12400      -10.44220
C          2.34870        1.27300      -11.26280
C          0.75960        3.19370      -11.02970
F          0.95990        3.42260      -12.34160
C         -0.10540        4.03760      -10.34980
C         -0.30450        3.79440       -9.00140
C         -1.13000        4.47290       -8.00070
C         -1.92310        5.56760       -8.23850
C         -2.71660        6.23000       -7.27990
N         -3.38900        6.82450       -6.56120
C         -2.05320        6.18960       -9.49750
N         -2.20330        6.74320      -10.49220
H          0.85210       -4.10370        5.77950
H         -5.17750       -2.46290        6.42240
H         -7.43620       -4.18860        8.50570
H         -6.90070       -2.82160        9.46580
H         -7.20250       -2.61060        7.73150
H         -2.94650       -5.58930        9.58350
H          2.35880       -3.14940        4.19390
H          4.31250       -2.91280        3.14520
H          5.09060       -2.47510        1.61680
H          3.44360       -3.86710        0.36090
H          2.66780       -4.33840        1.87110
H          4.32510       -4.85400        1.53730
H         -1.40540        0.64790        2.33350
H         -2.06510        2.15610        0.56250
H          1.85130       -0.96580       -3.63980
H          2.34890       -2.70600       -1.84750
H         -3.31200        5.74220       -3.86400
H         -4.85700        6.82380       -2.13490
H         -5.30100        5.77640       -0.77580
H         -2.91800        7.69200       -0.81280
H         -3.36340        6.63810        0.53370
H         -4.43970        7.95190        0.04610
H         -2.20910        4.93560       -5.55910
H          1.71810        1.08240       -8.57950
H          2.79130        0.48660      -10.65870
H          1.80070        0.82310      -12.08990
H          3.14260        1.88180      -11.69450
H         -0.58570        4.84070      -10.88370
