
  xtb     02032220593D
 energy: -186.853280005426 gnorm: 0.000865084314 xtb: 6.4.1 (unknown)
106115  0     0  0            999 V2000
    4.1899    1.4429   -7.4674 C   0  0  0  0  0  0  0  0  0  0  0  0
    5.0676    2.4382   -7.1192 C   0  0  0  0  0  0  0  0  0  0  0  0
    5.2962    2.9390   -5.7592 C   0  0  0  0  0  0  0  0  0  0  0  0
    4.7675    2.5606   -4.7284 O   0  0  0  0  0  0  0  0  0  0  0  0
    6.3066    4.0051   -5.8816 C   0  0  0  0  0  0  0  0  0  0  0  0
    6.8505    4.7943   -4.8877 C   0  0  0  0  0  0  0  0  0  0  0  0
    7.7961    5.7576   -5.2218 C   0  0  0  0  0  0  0  0  0  0  0  0
    8.4205    6.6535   -4.2033 C   0  0  0  0  0  0  0  0  0  0  0  0
    8.1509    5.8713   -6.5673 C   0  0  0  0  0  0  0  0  0  0  0  0
    9.0669    6.7992   -6.9008 F   0  0  0  0  0  0  0  0  0  0  0  0
    7.6204    5.0916   -7.5829 C   0  0  0  0  0  0  0  0  0  0  0  0
    6.6766    4.1403   -7.2305 C   0  0  0  0  0  0  0  0  0  0  0  0
    5.9197    3.1778   -8.0295 C   0  0  0  0  0  0  0  0  0  0  0  0
    6.0135    3.0351   -9.3900 C   0  0  0  0  0  0  0  0  0  0  0  0
    6.8736    3.8000  -10.2065 C   0  0  0  0  0  0  0  0  0  0  0  0
    7.5529    4.3804  -10.9272 N   0  0  0  0  0  0  0  0  0  0  0  0
    5.2766    2.1268  -10.1777 C   0  0  0  0  0  0  0  0  0  0  0  0
    4.7172    1.4193  -10.8898 N   0  0  0  0  0  0  0  0  0  0  0  0
    3.3126    0.6915   -6.6718 C   0  0  0  0  0  0  0  0  0  0  0  0
    2.4690   -0.2755   -7.2148 C   0  0  0  0  0  0  0  0  0  0  0  0
    1.6407   -0.8984   -6.2903 C   0  0  0  0  0  0  0  0  0  0  0  0
    0.4819   -2.1678   -6.6361 S   0  0  0  0  0  0  0  0  0  0  0  0
    0.3070   -2.0963   -8.4556 C   0  0  0  0  0  0  0  0  0  0  0  0
   -0.4070   -0.8420   -8.9191 C   0  0  0  0  0  0  0  0  0  0  0  0
    1.8533   -0.4208   -4.9915 C   0  0  0  0  0  0  0  0  0  0  0  0
    3.0828    0.8054   -4.9487 S   0  0  0  0  0  0  0  0  0  0  0  0
    1.2095   -0.7805   -3.7812 C   0  0  0  0  0  0  0  0  0  0  0  0
    1.5550   -0.3152   -2.5363 C   0  0  0  0  0  0  0  0  0  0  0  0
    0.7310   -0.7907   -1.4960 C   0  0  0  0  0  0  0  0  0  0  0  0
    0.8131   -0.5039   -0.1233 C   0  0  0  0  0  0  0  0  0  0  0  0
    1.9021    0.3543    0.4439 C   0  0  0  0  0  0  0  0  0  0  0  0
    3.1784   -0.4626    0.6555 C   0  0  0  0  0  0  0  0  0  0  0  0
   -0.1429   -1.0899    0.6795 C   0  0  0  0  0  0  0  0  0  0  0  0
   -1.1799   -1.9299    0.1875 C   0  0  0  0  0  0  0  0  0  0  0  0
   -1.2552   -2.2240   -1.1834 C   0  0  0  0  0  0  0  0  0  0  0  0
   -2.2977   -3.1442   -1.7413 C   0  0  0  0  0  0  0  0  0  0  0  0
   -1.8751   -4.6052   -1.5744 C   0  0  0  0  0  0  0  0  0  0  0  0
   -0.2894   -1.6505   -1.9861 C   0  0  0  0  0  0  0  0  0  0  0  0
   -0.1679   -1.8597   -3.7160 S   0  0  0  0  0  0  0  0  0  0  0  0
   -2.0394   -2.3544    1.2239 C   0  0  0  0  0  0  0  0  0  0  0  0
   -1.6959   -1.8789    2.4623 C   0  0  0  0  0  0  0  0  0  0  0  0
   -0.2572   -0.8824    2.4107 S   0  0  0  0  0  0  0  0  0  0  0  0
   -2.3935   -2.0946    3.6767 C   0  0  0  0  0  0  0  0  0  0  0  0
   -4.0429   -2.9940    3.7371 Se  0  0  0  0  0  2  0  0  0  0  0  0
   -4.1542   -2.5768    5.5775 C   0  0  0  0  0  0  0  0  0  0  0  0
   -2.9944   -1.9127    5.9849 C   0  0  0  0  0  0  0  0  0  0  0  0
   -2.5177   -1.4482    7.2380 C   0  0  0  0  0  0  0  0  0  0  0  0
   -1.3116   -0.8303    7.1560 C   0  0  0  0  0  0  0  0  0  0  0  0
   -0.5228   -0.2242    8.2617 C   0  0  0  0  0  0  0  0  0  0  0  0
    0.8096   -0.9487    8.4608 C   0  0  0  0  0  0  0  0  0  0  0  0
   -0.6744   -0.7955    5.5269 S   0  0  0  0  0  0  0  0  0  0  0  0
   -2.0629   -1.6565    4.9446 C   0  0  0  0  0  0  0  0  0  0  0  0
   -5.3212   -2.8718    6.2971 C   0  0  0  0  0  0  0  0  0  0  0  0
   -5.8210   -2.2184    7.3951 C   0  0  0  0  0  0  0  0  0  0  0  0
   -6.7953   -2.8918    8.2859 C   0  0  0  0  0  0  0  0  0  0  0  0
   -7.3633   -3.9427    8.0865 O   0  0  0  0  0  0  0  0  0  0  0  0
   -6.8807   -2.0291    9.4862 C   0  0  0  0  0  0  0  0  0  0  0  0
   -7.5840   -2.2377   10.6555 C   0  0  0  0  0  0  0  0  0  0  0  0
   -7.5113   -1.2947   11.6761 C   0  0  0  0  0  0  0  0  0  0  0  0
   -8.2472   -1.4552   12.9661 C   0  0  0  0  0  0  0  0  0  0  0  0
   -6.7158   -0.1686   11.4598 C   0  0  0  0  0  0  0  0  0  0  0  0
   -6.6283    0.7424   12.4482 F   0  0  0  0  0  0  0  0  0  0  0  0
   -6.0098    0.0727   10.2919 C   0  0  0  0  0  0  0  0  0  0  0  0
   -6.0977   -0.8777    9.2889 C   0  0  0  0  0  0  0  0  0  0  0  0
   -5.5349   -0.9175    7.9405 C   0  0  0  0  0  0  0  0  0  0  0  0
   -5.0382    0.1665    7.2539 C   0  0  0  0  0  0  0  0  0  0  0  0
   -4.8419    0.1628    5.8606 C   0  0  0  0  0  0  0  0  0  0  0  0
   -4.7284    0.2064    4.7179 N   0  0  0  0  0  0  0  0  0  0  0  0
   -4.7454    1.4081    7.8465 C   0  0  0  0  0  0  0  0  0  0  0  0
   -4.4444    2.4226    8.2929 N   0  0  0  0  0  0  0  0  0  0  0  0
    4.1371    1.1829   -8.5175 H   0  0  0  0  0  0  0  0  0  0  0  0
    6.5376    4.6597   -3.8635 H   0  0  0  0  0  0  0  0  0  0  0  0
    8.1739    7.6929   -4.4185 H   0  0  0  0  0  0  0  0  0  0  0  0
    8.0728    6.4056   -3.2048 H   0  0  0  0  0  0  0  0  0  0  0  0
    9.5057    6.5654   -4.2382 H   0  0  0  0  0  0  0  0  0  0  0  0
    7.9526    5.2492   -8.5954 H   0  0  0  0  0  0  0  0  0  0  0  0
    2.4892   -0.4970   -8.2664 H   0  0  0  0  0  0  0  0  0  0  0  0
    1.2931   -2.2071   -8.9039 H   0  0  0  0  0  0  0  0  0  0  0  0
   -0.2811   -2.9850   -8.6846 H   0  0  0  0  0  0  0  0  0  0  0  0
    0.1499    0.0515   -8.6452 H   0  0  0  0  0  0  0  0  0  0  0  0
   -1.3942   -0.7828   -8.4671 H   0  0  0  0  0  0  0  0  0  0  0  0
   -0.5186   -0.8616  -10.0012 H   0  0  0  0  0  0  0  0  0  0  0  0
    2.3837    0.3548   -2.3922 H   0  0  0  0  0  0  0  0  0  0  0  0
    2.1086    1.1871   -0.2297 H   0  0  0  0  0  0  0  0  0  0  0  0
    1.5727    0.7611    1.4026 H   0  0  0  0  0  0  0  0  0  0  0  0
    2.9910   -1.2799    1.3481 H   0  0  0  0  0  0  0  0  0  0  0  0
    3.5243   -0.8810   -0.2868 H   0  0  0  0  0  0  0  0  0  0  0  0
    3.9636    0.1668    1.0664 H   0  0  0  0  0  0  0  0  0  0  0  0
   -2.4297   -2.9290   -2.8037 H   0  0  0  0  0  0  0  0  0  0  0  0
   -3.2507   -2.9778   -1.2365 H   0  0  0  0  0  0  0  0  0  0  0  0
   -2.6361   -5.2656   -1.9822 H   0  0  0  0  0  0  0  0  0  0  0  0
   -0.9409   -4.7873   -2.1003 H   0  0  0  0  0  0  0  0  0  0  0  0
   -1.7317   -4.8450   -0.5232 H   0  0  0  0  0  0  0  0  0  0  0  0
   -2.9019   -2.9864    1.0817 H   0  0  0  0  0  0  0  0  0  0  0  0
   -3.0369   -1.5926    8.1686 H   0  0  0  0  0  0  0  0  0  0  0  0
   -1.1119   -0.2659    9.1801 H   0  0  0  0  0  0  0  0  0  0  0  0
   -0.3276    0.8264    8.0305 H   0  0  0  0  0  0  0  0  0  0  0  0
    1.4094   -0.8917    7.5554 H   0  0  0  0  0  0  0  0  0  0  0  0
    1.3649   -0.4925    9.2758 H   0  0  0  0  0  0  0  0  0  0  0  0
    0.6398   -1.9963    8.6987 H   0  0  0  0  0  0  0  0  0  0  0  0
   -5.8935   -3.7381    5.9747 H   0  0  0  0  0  0  0  0  0  0  0  0
   -8.1860   -3.1263   10.7690 H   0  0  0  0  0  0  0  0  0  0  0  0
   -7.5442   -1.4914   13.7979 H   0  0  0  0  0  0  0  0  0  0  0  0
   -8.9026   -0.6011   13.1335 H   0  0  0  0  0  0  0  0  0  0  0  0
   -8.8404   -2.3648   12.9620 H   0  0  0  0  0  0  0  0  0  0  0  0
   -5.4199    0.9703   10.2020 H   0  0  0  0  0  0  0  0  0  0  0  0
  1  2  2  0  0  0  0
  2  3  1  0  0  0  0
  3  4  2  0  0  0  0
  3  5  1  0  0  0  0
  5  6  2  0  0  0  0
  6  7  1  0  0  0  0
  7  8  1  0  0  0  0
  7  9  2  0  0  0  0
  9 10  1  0  0  0  0
  9 11  1  0  0  0  0
 11 12  2  0  0  0  0
 12 13  1  0  0  0  0
 13 14  2  0  0  0  0
 14 15  1  0  0  0  0
 15 16  3  0  0  0  0
 14 17  1  0  0  0  0
 17 18  3  0  0  0  0
  1 19  1  0  0  0  0
 19 20  2  0  0  0  0
 20 21  1  0  0  0  0
 21 22  1  0  0  0  0
 22 23  1  0  0  0  0
 23 24  1  0  0  0  0
 21 25  2  0  0  0  0
 25 26  1  0  0  0  0
 25 27  1  0  0  0  0
 27 28  2  0  0  0  0
 28 29  1  0  0  0  0
 29 30  2  0  0  0  0
 30 31  1  0  0  0  0
 31 32  1  0  0  0  0
 30 33  1  0  0  0  0
 33 34  2  0  0  0  0
 34 35  1  0  0  0  0
 35 36  1  0  0  0  0
 36 37  1  0  0  0  0
 35 38  2  0  0  0  0
 38 39  1  0  0  0  0
 34 40  1  0  0  0  0
 40 41  2  0  0  0  0
 41 42  1  0  0  0  0
 41 43  1  0  0  0  0
 43 44  1  0  0  0  0
 44 45  1  0  0  0  0
 45 46  2  0  0  0  0
 46 47  1  0  0  0  0
 47 48  2  0  0  0  0
 48 49  1  0  0  0  0
 49 50  1  0  0  0  0
 48 51  1  0  0  0  0
 51 52  1  0  0  0  0
 45 53  1  0  0  0  0
 53 54  2  0  0  0  0
 54 55  1  0  0  0  0
 55 56  2  0  0  0  0
 55 57  1  0  0  0  0
 57 58  2  0  0  0  0
 58 59  1  0  0  0  0
 59 60  1  0  0  0  0
 59 61  2  0  0  0  0
 61 62  1  0  0  0  0
 61 63  1  0  0  0  0
 63 64  2  0  0  0  0
 64 65  1  0  0  0  0
 65 66  2  0  0  0  0
 66 67  1  0  0  0  0
 67 68  3  0  0  0  0
 66 69  1  0  0  0  0
 69 70  3  0  0  0  0
 13  2  1  0  0  0  0
 26 19  1  0  0  0  0
 39 27  1  0  0  0  0
 52 43  2  0  0  0  0
 65 54  1  0  0  0  0
 12  5  1  0  0  0  0
 38 29  1  0  0  0  0
 52 46  1  0  0  0  0
 64 57  1  0  0  0  0
 42 33  1  0  0  0  0
  1 71  1  0  0  0  0
  6 72  1  0  0  0  0
  8 73  1  0  0  0  0
  8 74  1  0  0  0  0
  8 75  1  0  0  0  0
 11 76  1  0  0  0  0
 20 77  1  0  0  0  0
 23 78  1  0  0  0  0
 23 79  1  0  0  0  0
 24 80  1  0  0  0  0
 24 81  1  0  0  0  0
 24 82  1  0  0  0  0
 28 83  1  0  0  0  0
 31 84  1  0  0  0  0
 31 85  1  0  0  0  0
 32 86  1  0  0  0  0
 32 87  1  0  0  0  0
 32 88  1  0  0  0  0
 36 89  1  0  0  0  0
 36 90  1  0  0  0  0
 37 91  1  0  0  0  0
 37 92  1  0  0  0  0
 37 93  1  0  0  0  0
 40 94  1  0  0  0  0
 47 95  1  0  0  0  0
 49 96  1  0  0  0  0
 49 97  1  0  0  0  0
 50 98  1  0  0  0  0
 50 99  1  0  0  0  0
 50100  1  0  0  0  0
 53101  1  0  0  0  0
 58102  1  0  0  0  0
 60103  1  0  0  0  0
 60104  1  0  0  0  0
 60105  1  0  0  0  0
 63106  1  0  0  0  0
M  END
