
  xtb     02102223433D
 energy: -316.150510117626 gnorm: 0.000252346608 xtb: 6.4.1 (unknown)
169186  0     0  0            999 V2000
    4.2629   -7.1305    4.6147 C   0  0  0  0  0  0  0  0  0  0  0  0
    5.3884   -7.7519    4.1455 C   0  0  0  0  0  0  0  0  0  0  0  0
    5.9743   -7.7287    2.7831 C   0  0  0  0  0  0  0  0  0  0  0  0
    5.4884   -7.3431    1.7390 O   0  0  0  0  0  0  0  0  0  0  0  0
    7.3303   -8.2937    2.9251 C   0  0  0  0  0  0  0  0  0  0  0  0
    8.3069   -8.4142    1.9554 C   0  0  0  0  0  0  0  0  0  0  0  0
    9.5372   -8.9665    2.2909 C   0  0  0  0  0  0  0  0  0  0  0  0
   10.6434   -9.1212    1.2996 C   0  0  0  0  0  0  0  0  0  0  0  0
    9.7183   -9.3788    3.6132 C   0  0  0  0  0  0  0  0  0  0  0  0
   10.9088   -9.9088    3.9492 F   0  0  0  0  0  0  0  0  0  0  0  0
    8.7531   -9.2760    4.6014 C   0  0  0  0  0  0  0  0  0  0  0  0
    7.5333   -8.7210    4.2461 C   0  0  0  0  0  0  0  0  0  0  0  0
    6.3178   -8.4650    5.0122 C   0  0  0  0  0  0  0  0  0  0  0  0
    6.0968   -8.8898    6.2951 C   0  0  0  0  0  0  0  0  0  0  0  0
    4.8994   -8.7433    7.0290 C   0  0  0  0  0  0  0  0  0  0  0  0
    3.9663   -8.6924    7.6966 N   0  0  0  0  0  0  0  0  0  0  0  0
    7.0501   -9.5910    7.0651 C   0  0  0  0  0  0  0  0  0  0  0  0
    7.7787  -10.1594    7.7458 N   0  0  0  0  0  0  0  0  0  0  0  0
    3.2789   -6.3657    3.9527 C   0  0  0  0  0  0  0  0  0  0  0  0
    3.0463   -6.1290    2.6194 C   0  0  0  0  0  0  0  0  0  0  0  0
    1.9814   -5.2456    2.3795 C   0  0  0  0  0  0  0  0  0  0  0  0
    1.5183   -4.7933    1.1250 C   0  0  0  0  0  0  0  0  0  0  0  0
    2.1431   -5.2220   -0.1129 C   0  0  0  0  0  0  0  0  0  0  0  0
    3.8591   -5.0975   -0.3498 S   0  0  0  0  0  0  0  0  0  0  0  0
    3.7652   -5.7570   -1.9442 C   0  0  0  0  0  0  0  0  0  0  0  0
    5.0064   -6.0196   -2.7225 C   0  0  0  0  0  0  0  0  0  0  0  0
    5.7437   -7.2337   -2.1510 C   0  0  0  0  0  0  0  0  0  0  0  0
    2.4712   -6.0451   -2.2622 C   0  0  0  0  0  0  0  0  0  0  0  0
    1.9828   -6.7130   -3.7645 Cl  0  0  0  0  0  0  0  0  0  0  0  0
    1.5460   -5.7386   -1.2303 C   0  0  0  0  0  0  0  0  0  0  0  0
   -0.1282   -6.0863   -1.3502 Cl  0  0  0  0  0  0  0  0  0  0  0  0
    0.4756   -3.8862    1.1381 C   0  0  0  0  0  0  0  0  0  0  0  0
   -0.1572   -3.4431    2.3304 C   0  0  0  0  0  0  0  0  0  0  0  0
    0.2563   -3.9472    3.5845 C   0  0  0  0  0  0  0  0  0  0  0  0
   -0.4276   -3.5614    4.7993 C   0  0  0  0  0  0  0  0  0  0  0  0
   -1.7727   -3.3878    4.9856 C   0  0  0  0  0  0  0  0  0  0  0  0
   -2.1095   -3.0323    6.3047 C   0  0  0  0  0  0  0  0  0  0  0  0
   -1.0317   -2.9230    7.1301 C   0  0  0  0  0  0  0  0  0  0  0  0
   -0.9995   -2.5615    8.5745 C   0  0  0  0  0  0  0  0  0  0  0  0
   -0.2356   -1.2592    8.8165 C   0  0  0  0  0  0  0  0  0  0  0  0
    0.4367   -3.2711    6.2822 S   0  0  0  0  0  0  0  0  0  0  0  0
    1.3471   -4.8115    3.5751 C   0  0  0  0  0  0  0  0  0  0  0  0
    2.1087   -5.5194    4.9668 S   0  0  0  0  0  0  0  0  0  0  0  0
   -1.0867   -2.4189    2.0677 C   0  0  0  0  0  0  0  0  0  0  0  0
   -1.1743   -2.0681    0.7413 C   0  0  0  0  0  0  0  0  0  0  0  0
   -0.1317   -3.0514   -0.2638 S   0  0  0  0  0  0  0  0  0  0  0  0
   -1.8456   -0.9326    0.2314 C   0  0  0  0  0  0  0  0  0  0  0  0
   -1.8276   -0.3945   -1.0567 C   0  0  0  0  0  0  0  0  0  0  0  0
   -1.3956   -1.0228   -2.2065 N   0  0  0  0  0  0  0  0  0  0  0  0
   -1.7810   -2.3235   -2.5487 C   0  0  0  0  0  0  0  0  0  0  0  0
   -2.9150   -2.9227   -1.9992 C   0  0  0  0  0  0  0  0  0  0  0  0
   -3.2675   -4.2022   -2.3634 C   0  0  0  0  0  0  0  0  0  0  0  0
   -2.5060   -4.9141   -3.2886 C   0  0  0  0  0  0  0  0  0  0  0  0
   -3.0636   -6.5397   -3.6782 S   0  0  0  0  0  0  0  0  0  0  0  0
   -1.7224   -7.2329   -4.6840 C   0  0  0  0  0  0  0  0  0  0  0  0
   -1.3812   -4.3176   -3.8455 C   0  0  0  0  0  0  0  0  0  0  0  0
   -1.0222   -3.0385   -3.4739 C   0  0  0  0  0  0  0  0  0  0  0  0
   -0.8710   -0.1667   -3.2005 C   0  0  0  0  0  0  0  0  0  0  0  0
   -1.4604   -0.0744   -4.4602 C   0  0  0  0  0  0  0  0  0  0  0  0
   -1.0381    0.8920   -5.3445 C   0  0  0  0  0  0  0  0  0  0  0  0
   -0.0197    1.7783   -4.9935 C   0  0  0  0  0  0  0  0  0  0  0  0
    0.3457    3.0549   -6.1533 S   0  0  0  0  0  0  0  0  0  0  0  0
    1.8305    3.8444   -5.4783 C   0  0  0  0  0  0  0  0  0  0  0  0
    0.6172    1.6405   -3.7671 C   0  0  0  0  0  0  0  0  0  0  0  0
    0.1921    0.6715   -2.8797 C   0  0  0  0  0  0  0  0  0  0  0  0
   -2.2765    0.9465   -1.0443 C   0  0  0  0  0  0  0  0  0  0  0  0
   -2.3758    2.1738   -2.2610 S   0  0  0  0  0  0  0  0  0  0  0  0
   -2.8540    3.3571   -1.0481 C   0  0  0  0  0  0  0  0  0  0  0  0
   -3.1389    2.7502    0.1977 C   0  0  0  0  0  0  0  0  0  0  0  0
   -3.7972    3.3063    1.2601 N   0  0  0  0  0  0  0  0  0  0  0  0
   -3.5167    2.7797    2.5385 C   0  0  0  0  0  0  0  0  0  0  0  0
   -4.5405    2.3130    3.3551 C   0  0  0  0  0  0  0  0  0  0  0  0
   -4.2513    1.7171    4.5672 C   0  0  0  0  0  0  0  0  0  0  0  0
   -2.9303    1.5829    4.9777 C   0  0  0  0  0  0  0  0  0  0  0  0
   -2.4310    0.7854    6.4641 S   0  0  0  0  0  0  0  0  0  0  0  0
   -3.9803    0.1705    7.1821 C   0  0  0  0  0  0  0  0  0  0  0  0
   -1.9061    2.0939    4.1803 C   0  0  0  0  0  0  0  0  0  0  0  0
   -2.1946    2.6860    2.9722 C   0  0  0  0  0  0  0  0  0  0  0  0
   -4.7635    4.3006    1.1244 C   0  0  0  0  0  0  0  0  0  0  0  0
   -5.5076    4.4411   -0.0500 C   0  0  0  0  0  0  0  0  0  0  0  0
   -6.4166    5.4647   -0.1782 C   0  0  0  0  0  0  0  0  0  0  0  0
   -6.6228    6.3704    0.8637 C   0  0  0  0  0  0  0  0  0  0  0  0
   -7.7758    7.6634    0.5644 S   0  0  0  0  0  0  0  0  0  0  0  0
   -7.5805    8.7633    1.9953 C   0  0  0  0  0  0  0  0  0  0  0  0
   -5.9293    6.1977    2.0568 C   0  0  0  0  0  0  0  0  0  0  0  0
   -5.0169    5.1723    2.1849 C   0  0  0  0  0  0  0  0  0  0  0  0
   -2.7169    1.4013    0.1886 C   0  0  0  0  0  0  0  0  0  0  0  0
   -2.5993    0.1588    1.3925 S   0  0  0  0  0  0  0  0  0  0  0  0
   -2.7184    4.7103   -1.4135 C   0  0  0  0  0  0  0  0  0  0  0  0
   -2.6179    5.8152   -0.5317 C   0  0  0  0  0  0  0  0  0  0  0  0
   -2.3818    7.1601   -1.0110 C   0  0  0  0  0  0  0  0  0  0  0  0
   -2.2957    8.0308   -0.0102 N   0  0  0  0  0  0  0  0  0  0  0  0
   -2.4534    7.2517    1.3878 S   0  0  0  0  0  4  0  0  0  0  0  0
   -2.6529    5.7677    0.7987 N   0  0  0  0  0  0  0  0  0  0  0  0
   -2.1464    7.4855   -2.3740 C   0  0  0  0  0  0  0  0  0  0  0  0
   -2.2286    6.3797   -3.2514 C   0  0  0  0  0  0  0  0  0  0  0  0
   -2.0868    6.3990   -4.5794 N   0  0  0  0  0  0  0  0  0  0  0  0
   -2.2406    4.9057   -5.1616 S   0  0  0  0  0  0  0  0  0  0  0  0
   -2.5312    4.1611   -3.7682 N   0  0  0  0  0  0  0  0  0  0  0  0
   -2.5063    5.0479   -2.7749 C   0  0  0  0  0  0  0  0  0  0  0  0
   -1.8852    8.8239   -2.7183 C   0  0  0  0  0  0  0  0  0  0  0  0
   -1.3369    9.3794   -3.8474 C   0  0  0  0  0  0  0  0  0  0  0  0
   -1.5751   10.8172   -4.1166 C   0  0  0  0  0  0  0  0  0  0  0  0
   -2.0784   11.6316   -3.3763 O   0  0  0  0  0  0  0  0  0  0  0  0
   -1.0987   11.0386   -5.5043 C   0  0  0  0  0  0  0  0  0  0  0  0
   -1.1746   12.1813   -6.2738 C   0  0  0  0  0  0  0  0  0  0  0  0
   -0.6748   12.1214   -7.5659 C   0  0  0  0  0  0  0  0  0  0  0  0
   -0.7289   13.2087   -8.3489 F   0  0  0  0  0  0  0  0  0  0  0  0
   -0.1204   10.9424   -8.0598 C   0  0  0  0  0  0  0  0  0  0  0  0
    0.3418   10.9088   -9.3172 F   0  0  0  0  0  0  0  0  0  0  0  0
   -0.0338    9.7963   -7.2821 C   0  0  0  0  0  0  0  0  0  0  0  0
   -0.5268    9.8505   -5.9896 C   0  0  0  0  0  0  0  0  0  0  0  0
   -0.5546    8.8458   -4.9234 C   0  0  0  0  0  0  0  0  0  0  0  0
    0.2299    7.7173   -4.9029 C   0  0  0  0  0  0  0  0  0  0  0  0
    1.0114    7.2804   -5.9874 C   0  0  0  0  0  0  0  0  0  0  0  0
    1.6648    6.8457   -6.8273 N   0  0  0  0  0  0  0  0  0  0  0  0
    0.4422    6.8984   -3.7795 C   0  0  0  0  0  0  0  0  0  0  0  0
    0.7034    6.1906   -2.9117 N   0  0  0  0  0  0  0  0  0  0  0  0
    4.1048   -7.1808    5.6859 H   0  0  0  0  0  0  0  0  0  0  0  0
    8.1089   -8.0775    0.9491 H   0  0  0  0  0  0  0  0  0  0  0  0
   10.9479  -10.1651    1.2351 H   0  0  0  0  0  0  0  0  0  0  0  0
   10.3331   -8.7779    0.3171 H   0  0  0  0  0  0  0  0  0  0  0  0
   11.5147   -8.5499    1.6185 H   0  0  0  0  0  0  0  0  0  0  0  0
    8.9802   -9.6183    5.5972 H   0  0  0  0  0  0  0  0  0  0  0  0
    3.6369   -6.5799    1.8454 H   0  0  0  0  0  0  0  0  0  0  0  0
    4.7437   -6.1987   -3.7666 H   0  0  0  0  0  0  0  0  0  0  0  0
    5.6582   -5.1449   -2.6723 H   0  0  0  0  0  0  0  0  0  0  0  0
    5.9548   -7.0801   -1.0950 H   0  0  0  0  0  0  0  0  0  0  0  0
    6.6787   -7.3882   -2.6831 H   0  0  0  0  0  0  0  0  0  0  0  0
    5.1331   -8.1277   -2.2523 H   0  0  0  0  0  0  0  0  0  0  0  0
   -2.5003   -3.5591    4.2125 H   0  0  0  0  0  0  0  0  0  0  0  0
   -3.1215   -2.8779    6.6348 H   0  0  0  0  0  0  0  0  0  0  0  0
   -0.5194   -3.3656    9.1391 H   0  0  0  0  0  0  0  0  0  0  0  0
   -2.0267   -2.4648    8.9334 H   0  0  0  0  0  0  0  0  0  0  0  0
    0.7969   -1.3658    8.4928 H   0  0  0  0  0  0  0  0  0  0  0  0
   -0.6884   -0.4430    8.2583 H   0  0  0  0  0  0  0  0  0  0  0  0
   -0.2443   -1.0084    9.8742 H   0  0  0  0  0  0  0  0  0  0  0  0
   -1.6314   -1.8946    2.8320 H   0  0  0  0  0  0  0  0  0  0  0  0
   -3.5219   -2.3811   -1.2892 H   0  0  0  0  0  0  0  0  0  0  0  0
   -4.1434   -4.6673   -1.9376 H   0  0  0  0  0  0  0  0  0  0  0  0
   -1.6568   -6.7110   -5.6344 H   0  0  0  0  0  0  0  0  0  0  0  0
   -0.7878   -7.1771   -4.1347 H   0  0  0  0  0  0  0  0  0  0  0  0
   -1.9907   -8.2713   -4.8527 H   0  0  0  0  0  0  0  0  0  0  0  0
   -0.7689   -4.8425   -4.5602 H   0  0  0  0  0  0  0  0  0  0  0  0
   -0.1395   -2.5847   -3.8987 H   0  0  0  0  0  0  0  0  0  0  0  0
   -2.2704   -0.7387   -4.7212 H   0  0  0  0  0  0  0  0  0  0  0  0
   -1.5115    0.9945   -6.3084 H   0  0  0  0  0  0  0  0  0  0  0  0
    1.6038    4.3252   -4.5304 H   0  0  0  0  0  0  0  0  0  0  0  0
    2.1179    4.5961   -6.2082 H   0  0  0  0  0  0  0  0  0  0  0  0
    2.6192    3.1057   -5.3729 H   0  0  0  0  0  0  0  0  0  0  0  0
    1.4223    2.2960   -3.4792 H   0  0  0  0  0  0  0  0  0  0  0  0
    0.6627    0.5821   -1.9114 H   0  0  0  0  0  0  0  0  0  0  0  0
   -5.5659    2.3991    3.0274 H   0  0  0  0  0  0  0  0  0  0  0  0
   -5.0636    1.3493    5.1725 H   0  0  0  0  0  0  0  0  0  0  0  0
   -4.6264    1.0021    7.4477 H   0  0  0  0  0  0  0  0  0  0  0  0
   -4.4678   -0.5031    6.4837 H   0  0  0  0  0  0  0  0  0  0  0  0
   -3.6909   -0.3695    8.0781 H   0  0  0  0  0  0  0  0  0  0  0  0
   -0.8853    2.0074    4.5190 H   0  0  0  0  0  0  0  0  0  0  0  0
   -1.4058    3.0770    2.3481 H   0  0  0  0  0  0  0  0  0  0  0  0
   -5.3703    3.7468   -0.8644 H   0  0  0  0  0  0  0  0  0  0  0  0
   -6.9811    5.5795   -1.0907 H   0  0  0  0  0  0  0  0  0  0  0  0
   -6.5421    9.0680    2.0845 H   0  0  0  0  0  0  0  0  0  0  0  0
   -8.2019    9.6280    1.7840 H   0  0  0  0  0  0  0  0  0  0  0  0
   -7.9305    8.2726    2.8988 H   0  0  0  0  0  0  0  0  0  0  0  0
   -6.0836    6.8633    2.8904 H   0  0  0  0  0  0  0  0  0  0  0  0
   -4.4585    5.0676    3.1022 H   0  0  0  0  0  0  0  0  0  0  0  0
   -2.2158    9.5473   -1.9784 H   0  0  0  0  0  0  0  0  0  0  0  0
   -1.6051   13.0924   -5.8904 H   0  0  0  0  0  0  0  0  0  0  0  0
    0.4007    8.9074   -7.7092 H   0  0  0  0  0  0  0  0  0  0  0  0
  1  2  2  0  0  0  0
  2  3  1  0  0  0  0
  3  4  2  0  0  0  0
  3  5  1  0  0  0  0
  5  6  2  0  0  0  0
  6  7  1  0  0  0  0
  7  8  1  0  0  0  0
  7  9  2  0  0  0  0
  9 10  1  0  0  0  0
  9 11  1  0  0  0  0
 11 12  2  0  0  0  0
 12 13  1  0  0  0  0
 13 14  2  0  0  0  0
 14 15  1  0  0  0  0
 15 16  3  0  0  0  0
 14 17  1  0  0  0  0
 17 18  3  0  0  0  0
  1 19  1  0  0  0  0
 19 20  2  0  0  0  0
 20 21  1  0  0  0  0
 21 22  2  0  0  0  0
 22 23  1  0  0  0  0
 23 24  1  0  0  0  0
 24 25  1  0  0  0  0
 25 26  1  0  0  0  0
 26 27  1  0  0  0  0
 25 28  2  0  0  0  0
 28 29  1  0  0  0  0
 28 30  1  0  0  0  0
 30 31  1  0  0  0  0
 22 32  1  0  0  0  0
 32 33  2  0  0  0  0
 33 34  1  0  0  0  0
 34 35  1  0  0  0  0
 35 36  2  0  0  0  0
 36 37  1  0  0  0  0
 37 38  2  0  0  0  0
 38 39  1  0  0  0  0
 39 40  1  0  0  0  0
 38 41  1  0  0  0  0
 34 42  2  0  0  0  0
 42 43  1  0  0  0  0
 33 44  1  0  0  0  0
 44 45  2  0  0  0  0
 45 46  1  0  0  0  0
 45 47  1  0  0  0  0
 47 48  2  0  0  0  0
 48 49  1  0  0  0  0
 49 50  1  0  0  0  0
 50 51  2  0  0  0  0
 51 52  1  0  0  0  0
 52 53  2  0  0  0  0
 53 54  1  0  0  0  0
 54 55  1  0  0  0  0
 53 56  1  0  0  0  0
 56 57  2  0  0  0  0
 49 58  1  0  0  0  0
 58 59  2  0  0  0  0
 59 60  1  0  0  0  0
 60 61  2  0  0  0  0
 61 62  1  0  0  0  0
 62 63  1  0  0  0  0
 61 64  1  0  0  0  0
 64 65  2  0  0  0  0
 48 66  1  0  0  0  0
 66 67  1  0  0  0  0
 67 68  1  0  0  0  0
 68 69  2  0  0  0  0
 69 70  1  0  0  0  0
 70 71  1  0  0  0  0
 71 72  2  0  0  0  0
 72 73  1  0  0  0  0
 73 74  2  0  0  0  0
 74 75  1  0  0  0  0
 75 76  1  0  0  0  0
 74 77  1  0  0  0  0
 77 78  2  0  0  0  0
 70 79  1  0  0  0  0
 79 80  2  0  0  0  0
 80 81  1  0  0  0  0
 81 82  2  0  0  0  0
 82 83  1  0  0  0  0
 83 84  1  0  0  0  0
 82 85  1  0  0  0  0
 85 86  2  0  0  0  0
 69 87  1  0  0  0  0
 87 88  1  0  0  0  0
 68 89  1  0  0  0  0
 89 90  2  0  0  0  0
 90 91  1  0  0  0  0
 91 92  1  0  0  0  0
 92 93  2  0  0  0  0
 93 94  2  0  0  0  0
 91 95  2  0  0  0  0
 95 96  1  0  0  0  0
 96 97  2  0  0  0  0
 97 98  1  0  0  0  0
 98 99  1  0  0  0  0
 99100  2  0  0  0  0
 95101  1  0  0  0  0
101102  2  0  0  0  0
102103  1  0  0  0  0
103104  2  0  0  0  0
103105  1  0  0  0  0
105106  2  0  0  0  0
106107  1  0  0  0  0
107108  1  0  0  0  0
107109  2  0  0  0  0
109110  1  0  0  0  0
109111  1  0  0  0  0
111112  2  0  0  0  0
112113  1  0  0  0  0
113114  2  0  0  0  0
114115  1  0  0  0  0
115116  3  0  0  0  0
114117  1  0  0  0  0
117118  3  0  0  0  0
 13  2  1  0  0  0  0
 43 19  1  0  0  0  0
 88 47  1  0  0  0  0
100 89  1  0  0  0  0
113102  1  0  0  0  0
 12  5  1  0  0  0  0
 42 21  1  0  0  0  0
 57 50  1  0  0  0  0
 65 58  1  0  0  0  0
 87 66  2  0  0  0  0
 94 90  1  0  0  0  0
100 96  1  0  0  0  0
112105  1  0  0  0  0
 30 23  2  0  0  0  0
 46 32  1  0  0  0  0
 78 71  1  0  0  0  0
 86 79  1  0  0  0  0
 41 35  1  0  0  0  0
  1119  1  0  0  0  0
  6120  1  0  0  0  0
  8121  1  0  0  0  0
  8122  1  0  0  0  0
  8123  1  0  0  0  0
 11124  1  0  0  0  0
 20125  1  0  0  0  0
 26126  1  0  0  0  0
 26127  1  0  0  0  0
 27128  1  0  0  0  0
 27129  1  0  0  0  0
 27130  1  0  0  0  0
 36131  1  0  0  0  0
 37132  1  0  0  0  0
 39133  1  0  0  0  0
 39134  1  0  0  0  0
 40135  1  0  0  0  0
 40136  1  0  0  0  0
 40137  1  0  0  0  0
 44138  1  0  0  0  0
 51139  1  0  0  0  0
 52140  1  0  0  0  0
 55141  1  0  0  0  0
 55142  1  0  0  0  0
 55143  1  0  0  0  0
 56144  1  0  0  0  0
 57145  1  0  0  0  0
 59146  1  0  0  0  0
 60147  1  0  0  0  0
 63148  1  0  0  0  0
 63149  1  0  0  0  0
 63150  1  0  0  0  0
 64151  1  0  0  0  0
 65152  1  0  0  0  0
 72153  1  0  0  0  0
 73154  1  0  0  0  0
 76155  1  0  0  0  0
 76156  1  0  0  0  0
 76157  1  0  0  0  0
 77158  1  0  0  0  0
 78159  1  0  0  0  0
 80160  1  0  0  0  0
 81161  1  0  0  0  0
 84162  1  0  0  0  0
 84163  1  0  0  0  0
 84164  1  0  0  0  0
 85165  1  0  0  0  0
 86166  1  0  0  0  0
101167  1  0  0  0  0
106168  1  0  0  0  0
111169  1  0  0  0  0
M  END
