169

C          4.26290       -7.13050        4.61470
C          5.38840       -7.75190        4.14550
C          5.97430       -7.72870        2.78310
O          5.48840       -7.34310        1.73900
C          7.33030       -8.29370        2.92510
C          8.30690       -8.41420        1.95540
C          9.53720       -8.96650        2.29090
C         10.64340       -9.12120        1.29960
C          9.71830       -9.37880        3.61320
F         10.90880       -9.90880        3.94920
C          8.75310       -9.27600        4.60140
C          7.53330       -8.72100        4.24610
C          6.31780       -8.46500        5.01220
C          6.09680       -8.88980        6.29510
C          4.89940       -8.74330        7.02900
N          3.96630       -8.69240        7.69660
C          7.05010       -9.59100        7.06510
N          7.77870      -10.15940        7.74580
C          3.27890       -6.36570        3.95270
C          3.04630       -6.12900        2.61940
C          1.98140       -5.24560        2.37950
C          1.51830       -4.79330        1.12500
C          2.14310       -5.22200       -0.11290
S          3.85910       -5.09750       -0.34980
C          3.76520       -5.75700       -1.94420
C          5.00640       -6.01960       -2.72250
C          5.74370       -7.23370       -2.15100
C          2.47120       -6.04510       -2.26220
Cl         1.98280       -6.71300       -3.76450
C          1.54600       -5.73860       -1.23030
Cl        -0.12820       -6.08630       -1.35020
C          0.47560       -3.88620        1.13810
C         -0.15720       -3.44310        2.33040
C          0.25630       -3.94720        3.58450
C         -0.42760       -3.56140        4.79930
C         -1.77270       -3.38780        4.98560
C         -2.10950       -3.03230        6.30470
C         -1.03170       -2.92300        7.13010
C         -0.99950       -2.56150        8.57450
C         -0.23560       -1.25920        8.81650
S          0.43670       -3.27110        6.28220
C          1.34710       -4.81150        3.57510
S          2.10870       -5.51940        4.96680
C         -1.08670       -2.41890        2.06770
C         -1.17430       -2.06810        0.74130
S         -0.13170       -3.05140       -0.26380
C         -1.84560       -0.93260        0.23140
C         -1.82760       -0.39450       -1.05670
N         -1.39560       -1.02280       -2.20650
C         -1.78100       -2.32350       -2.54870
C         -2.91500       -2.92270       -1.99920
C         -3.26750       -4.20220       -2.36340
C         -2.50600       -4.91410       -3.28860
S         -3.06360       -6.53970       -3.67820
C         -1.72240       -7.23290       -4.68400
C         -1.38120       -4.31760       -3.84550
C         -1.02220       -3.03850       -3.47390
C         -0.87100       -0.16670       -3.20050
C         -1.46040       -0.07440       -4.46020
C         -1.03810        0.89200       -5.34450
C         -0.01970        1.77830       -4.99350
S          0.34570        3.05490       -6.15330
C          1.83050        3.84440       -5.47830
C          0.61720        1.64050       -3.76710
C          0.19210        0.67150       -2.87970
C         -2.27650        0.94650       -1.04430
S         -2.37580        2.17380       -2.26100
C         -2.85400        3.35710       -1.04810
C         -3.13890        2.75020        0.19770
N         -3.79720        3.30630        1.26010
C         -3.51670        2.77970        2.53850
C         -4.54050        2.31300        3.35510
C         -4.25130        1.71710        4.56720
C         -2.93030        1.58290        4.97770
S         -2.43100        0.78540        6.46410
C         -3.98030        0.17050        7.18210
C         -1.90610        2.09390        4.18030
C         -2.19460        2.68600        2.97220
C         -4.76350        4.30060        1.12440
C         -5.50760        4.44110       -0.05000
C         -6.41660        5.46470       -0.17820
C         -6.62280        6.37040        0.86370
S         -7.77580        7.66340        0.56440
C         -7.58050        8.76330        1.99530
C         -5.92930        6.19770        2.05680
C         -5.01690        5.17230        2.18490
C         -2.71690        1.40130        0.18860
S         -2.59930        0.15880        1.39250
C         -2.71840        4.71030       -1.41350
C         -2.61790        5.81520       -0.53170
C         -2.38180        7.16010       -1.01100
N         -2.29570        8.03080       -0.01020
S         -2.45340        7.25170        1.38780
N         -2.65290        5.76770        0.79870
C         -2.14640        7.48550       -2.37400
C         -2.22860        6.37970       -3.25140
N         -2.08680        6.39900       -4.57940
S         -2.24060        4.90570       -5.16160
N         -2.53120        4.16110       -3.76820
C         -2.50630        5.04790       -2.77490
C         -1.88520        8.82390       -2.71830
C         -1.33690        9.37940       -3.84740
C         -1.57510       10.81720       -4.11660
O         -2.07840       11.63160       -3.37630
C         -1.09870       11.03860       -5.50430
C         -1.17460       12.18130       -6.27380
C         -0.67480       12.12140       -7.56590
F         -0.72890       13.20870       -8.34890
C         -0.12040       10.94240       -8.05980
F          0.34180       10.90880       -9.31720
C         -0.03380        9.79630       -7.28210
C         -0.52680        9.85050       -5.98960
C         -0.55460        8.84580       -4.92340
C          0.22990        7.71730       -4.90290
C          1.01140        7.28040       -5.98740
N          1.66480        6.84570       -6.82730
C          0.44220        6.89840       -3.77950
N          0.70340        6.19060       -2.91170
H          4.10480       -7.18080        5.68590
H          8.10890       -8.07750        0.94910
H         10.94790      -10.16510        1.23510
H         10.33310       -8.77790        0.31710
H         11.51470       -8.54990        1.61850
H          8.98020       -9.61830        5.59720
H          3.63690       -6.57990        1.84540
H          4.74370       -6.19870       -3.76660
H          5.65820       -5.14490       -2.67230
H          5.95480       -7.08010       -1.09500
H          6.67870       -7.38820       -2.68310
H          5.13310       -8.12770       -2.25230
H         -2.50030       -3.55910        4.21250
H         -3.12150       -2.87790        6.63480
H         -0.51940       -3.36560        9.13910
H         -2.02670       -2.46480        8.93340
H          0.79690       -1.36580        8.49280
H         -0.68840       -0.44300        8.25830
H         -0.24430       -1.00840        9.87420
H         -1.63140       -1.89460        2.83200
H         -3.52190       -2.38110       -1.28920
H         -4.14340       -4.66730       -1.93760
H         -1.65680       -6.71100       -5.63440
H         -0.78780       -7.17710       -4.13470
H         -1.99070       -8.27130       -4.85270
H         -0.76890       -4.84250       -4.56020
H         -0.13950       -2.58470       -3.89870
H         -2.27040       -0.73870       -4.72120
H         -1.51150        0.99450       -6.30840
H          1.60380        4.32520       -4.53040
H          2.11790        4.59610       -6.20820
H          2.61920        3.10570       -5.37290
H          1.42230        2.29600       -3.47920
H          0.66270        0.58210       -1.91140
H         -5.56590        2.39910        3.02740
H         -5.06360        1.34930        5.17250
H         -4.62640        1.00210        7.44770
H         -4.46780       -0.50310        6.48370
H         -3.69090       -0.36950        8.07810
H         -0.88530        2.00740        4.51900
H         -1.40580        3.07700        2.34810
H         -5.37030        3.74680       -0.86440
H         -6.98110        5.57950       -1.09070
H         -6.54210        9.06800        2.08450
H         -8.20190        9.62800        1.78400
H         -7.93050        8.27260        2.89880
H         -6.08360        6.86330        2.89040
H         -4.45850        5.06760        3.10220
H         -2.21580        9.54730       -1.97840
H         -1.60510       13.09240       -5.89040
H          0.40070        8.90740       -7.70920
