
  xtb     02102220343D
 energy: -371.079926892437 gnorm: 0.000584876892 xtb: 6.4.1 (unknown)
205225  0     0  0            999 V2000
   -5.4747    7.2009    8.3532 C   0  0  0  0  0  0  0  0  0  0  0  0
   -6.8016    6.9876    8.5806 C   0  0  0  0  0  0  0  0  0  0  0  0
   -7.3680    7.3657    9.9067 C   0  0  0  0  0  0  0  0  0  0  0  0
   -6.8800    8.1174   10.7175 O   0  0  0  0  0  0  0  0  0  0  0  0
   -8.6099    6.5742   10.0321 C   0  0  0  0  0  0  0  0  0  0  0  0
   -9.4491    6.4455   11.1217 C   0  0  0  0  0  0  0  0  0  0  0  0
  -10.5563    5.6082   11.0373 C   0  0  0  0  0  0  0  0  0  0  0  0
  -11.5034    5.4184   12.1762 C   0  0  0  0  0  0  0  0  0  0  0  0
  -10.7651    4.9293    9.8343 C   0  0  0  0  0  0  0  0  0  0  0  0
  -11.8279    4.1081    9.7506 F   0  0  0  0  0  0  0  0  0  0  0  0
   -9.9472    5.0480    8.7228 C   0  0  0  0  0  0  0  0  0  0  0  0
   -8.8510    5.8880    8.8285 C   0  0  0  0  0  0  0  0  0  0  0  0
   -7.8283    6.2637    7.8567 C   0  0  0  0  0  0  0  0  0  0  0  0
   -7.9604    6.1435    6.4977 C   0  0  0  0  0  0  0  0  0  0  0  0
   -8.9625    5.3900    5.8555 C   0  0  0  0  0  0  0  0  0  0  0  0
   -9.7086    4.7455    5.2663 N   0  0  0  0  0  0  0  0  0  0  0  0
   -7.1054    6.7772    5.5707 C   0  0  0  0  0  0  0  0  0  0  0  0
   -6.4639    7.3010    4.7766 N   0  0  0  0  0  0  0  0  0  0  0  0
   -4.6412    6.5830    7.3916 C   0  0  0  0  0  0  0  0  0  0  0  0
   -4.9206    5.4812    6.6250 C   0  0  0  0  0  0  0  0  0  0  0  0
   -3.8803    5.0996    5.7642 C   0  0  0  0  0  0  0  0  0  0  0  0
   -3.9270    4.0801    4.7896 C   0  0  0  0  0  0  0  0  0  0  0  0
   -5.1345    3.2804    4.6736 C   0  0  0  0  0  0  0  0  0  0  0  0
   -6.0616    3.2017    3.2058 S   0  0  0  0  0  0  0  0  0  0  0  0
   -7.3664    2.3688    3.9778 C   0  0  0  0  0  0  0  0  0  0  0  0
   -8.6071    2.0025    3.2411 C   0  0  0  0  0  0  0  0  0  0  0  0
   -8.7587    0.4862    3.1020 C   0  0  0  0  0  0  0  0  0  0  0  0
   -7.0717    2.1395    5.2895 C   0  0  0  0  0  0  0  0  0  0  0  0
   -8.1382    1.3837    6.4001 Cl  0  0  0  0  0  0  0  0  0  0  0  0
   -5.8074    2.6456    5.6834 C   0  0  0  0  0  0  0  0  0  0  0  0
   -5.1789    2.4122    7.2684 Cl  0  0  0  0  0  0  0  0  0  0  0  0
   -2.8252    3.9735    3.9636 C   0  0  0  0  0  0  0  0  0  0  0  0
   -1.6479    4.7477    4.1439 C   0  0  0  0  0  0  0  0  0  0  0  0
   -1.5909    5.7468    5.1366 C   0  0  0  0  0  0  0  0  0  0  0  0
   -0.3951    6.5365    5.3530 C   0  0  0  0  0  0  0  0  0  0  0  0
    0.8995    6.1082    5.4455 C   0  0  0  0  0  0  0  0  0  0  0  0
    1.8052    7.1453    5.7430 C   0  0  0  0  0  0  0  0  0  0  0  0
    1.2124    8.3655    5.8580 C   0  0  0  0  0  0  0  0  0  0  0  0
    1.8294    9.6783    6.1967 C   0  0  0  0  0  0  0  0  0  0  0  0
    1.3233   10.1987    7.5428 C   0  0  0  0  0  0  0  0  0  0  0  0
   -0.4960    8.2535    5.6063 S   0  0  0  0  0  0  0  0  0  0  0  0
   -2.7436    5.9347    5.8935 C   0  0  0  0  0  0  0  0  0  0  0  0
   -3.0074    7.1578    7.1043 S   0  0  0  0  0  0  0  0  0  0  0  0
   -0.6543    4.4281    3.1893 C   0  0  0  0  0  0  0  0  0  0  0  0
   -1.0454    3.4894    2.2749 C   0  0  0  0  0  0  0  0  0  0  0  0
   -2.6729    2.8992    2.6083 S   0  0  0  0  0  0  0  0  0  0  0  0
   -0.3761    2.8986    1.1655 C   0  0  0  0  0  0  0  0  0  0  0  0
    0.9585    2.8826    0.7643 C   0  0  0  0  0  0  0  0  0  0  0  0
    2.0158    3.6155    1.2836 N   0  0  0  0  0  0  0  0  0  0  0  0
    3.2850    3.0008    1.2130 C   0  0  0  0  0  0  0  0  0  0  0  0
    4.3576    3.6284    0.5813 C   0  0  0  0  0  0  0  0  0  0  0  0
    5.5434    2.9513    0.3966 C   0  0  0  0  0  0  0  0  0  0  0  0
    5.6757    1.6375    0.8329 C   0  0  0  0  0  0  0  0  0  0  0  0
    7.1828    0.7842    0.4680 S   0  0  0  0  0  0  0  0  0  0  0  0
    6.5608   -0.8624    0.0088 C   0  0  0  0  0  0  0  0  0  0  0  0
    4.6368    1.0332    1.5272 C   0  0  0  0  0  0  0  0  0  0  0  0
    3.4499    1.7125    1.7171 C   0  0  0  0  0  0  0  0  0  0  0  0
    1.9394    4.9895    1.5235 C   0  0  0  0  0  0  0  0  0  0  0  0
    2.8585    5.5803    2.3913 C   0  0  0  0  0  0  0  0  0  0  0  0
    2.8142    6.9337    2.6523 C   0  0  0  0  0  0  0  0  0  0  0  0
    1.8369    7.7255    2.0641 C   0  0  0  0  0  0  0  0  0  0  0  0
    1.6861    9.4575    2.3736 S   0  0  0  0  0  0  0  0  0  0  0  0
    3.3812    9.9287    2.8327 C   0  0  0  0  0  0  0  0  0  0  0  0
    0.9110    7.1413    1.2048 C   0  0  0  0  0  0  0  0  0  0  0  0
    0.9659    5.7927    0.9261 C   0  0  0  0  0  0  0  0  0  0  0  0
    1.1491    1.9365   -0.2760 C   0  0  0  0  0  0  0  0  0  0  0  0
    2.5439    1.3520   -1.1106 S   0  0  0  0  0  0  0  0  0  0  0  0
    1.5657    0.1782   -1.9783 C   0  0  0  0  0  0  0  0  0  0  0  0
    0.2000    0.3394   -1.7370 C   0  0  0  0  0  0  0  0  0  0  0  0
   -0.8288   -0.3063   -2.3828 N   0  0  0  0  0  0  0  0  0  0  0  0
   -2.0776   -0.3743   -1.7270 C   0  0  0  0  0  0  0  0  0  0  0  0
   -3.2145    0.1521   -2.3296 C   0  0  0  0  0  0  0  0  0  0  0  0
   -4.4179    0.1739   -1.6545 C   0  0  0  0  0  0  0  0  0  0  0  0
   -4.5003   -0.3342   -0.3638 C   0  0  0  0  0  0  0  0  0  0  0  0
   -5.9672   -0.2916    0.6098 S   0  0  0  0  0  0  0  0  0  0  0  0
   -7.0699    0.8045   -0.3284 C   0  0  0  0  0  0  0  0  0  0  0  0
   -3.3758   -0.9147    0.2193 C   0  0  0  0  0  0  0  0  0  0  0  0
   -2.1741   -0.9353   -0.4546 C   0  0  0  0  0  0  0  0  0  0  0  0
   -0.7589   -0.6890   -3.7297 C   0  0  0  0  0  0  0  0  0  0  0  0
   -1.4969   -1.7894   -4.1626 C   0  0  0  0  0  0  0  0  0  0  0  0
   -1.4147   -2.2313   -5.4680 C   0  0  0  0  0  0  0  0  0  0  0  0
   -0.5922   -1.5725   -6.3731 C   0  0  0  0  0  0  0  0  0  0  0  0
   -0.3858   -2.0397   -8.0574 S   0  0  0  0  0  0  0  0  0  0  0  0
   -1.5953   -3.3689   -8.3012 C   0  0  0  0  0  0  0  0  0  0  0  0
    0.1304   -0.4577   -5.9486 C   0  0  0  0  0  0  0  0  0  0  0  0
    0.0497   -0.0185   -4.6473 C   0  0  0  0  0  0  0  0  0  0  0  0
   -0.0031    1.3076   -0.7204 C   0  0  0  0  0  0  0  0  0  0  0  0
   -1.3826    1.8709    0.1501 S   0  0  0  0  0  0  0  0  0  0  0  0
    2.2571   -0.8470   -2.6690 C   0  0  0  0  0  0  0  0  0  0  0  0
    1.7916   -2.0522   -3.1213 C   0  0  0  0  0  0  0  0  0  0  0  0
    2.7927   -2.8792   -3.6663 C   0  0  0  0  0  0  0  0  0  0  0  0
    2.6313   -4.1646   -4.2124 C   0  0  0  0  0  0  0  0  0  0  0  0
    1.3178   -4.7825   -4.2994 C   0  0  0  0  0  0  0  0  0  0  0  0
    0.3059   -4.9630   -2.8947 S   0  0  0  0  0  0  0  0  0  0  0  0
   -0.9435   -5.7581   -3.7917 C   0  0  0  0  0  0  0  0  0  0  0  0
   -2.1961   -6.2153   -3.1277 C   0  0  0  0  0  0  0  0  0  0  0  0
   -3.0863   -5.0397   -2.7220 C   0  0  0  0  0  0  0  0  0  0  0  0
   -0.5869   -5.8544   -5.1022 C   0  0  0  0  0  0  0  0  0  0  0  0
   -1.5721   -6.5785   -6.3100 Cl  0  0  0  0  0  0  0  0  0  0  0  0
    0.6933   -5.3082   -5.3947 C   0  0  0  0  0  0  0  0  0  0  0  0
    1.3352   -5.2632   -6.9817 Cl  0  0  0  0  0  0  0  0  0  0  0  0
    3.7780   -4.8143   -4.6483 C   0  0  0  0  0  0  0  0  0  0  0  0
    5.0721   -4.2295   -4.5495 C   0  0  0  0  0  0  0  0  0  0  0  0
    5.2381   -2.9327   -3.9968 C   0  0  0  0  0  0  0  0  0  0  0  0
    6.5468   -2.3482   -3.8084 C   0  0  0  0  0  0  0  0  0  0  0  0
    7.6909   -2.9535   -3.3621 C   0  0  0  0  0  0  0  0  0  0  0  0
    8.7801   -2.0691   -3.2508 C   0  0  0  0  0  0  0  0  0  0  0  0
    8.4827   -0.7909   -3.6190 C   0  0  0  0  0  0  0  0  0  0  0  0
    9.3820    0.3952   -3.6625 C   0  0  0  0  0  0  0  0  0  0  0  0
    8.8205    1.5720   -2.8661 C   0  0  0  0  0  0  0  0  0  0  0  0
    6.8235   -0.6524   -4.0942 S   0  0  0  0  0  0  0  0  0  0  0  0
    4.0790   -2.2838   -3.6067 C   0  0  0  0  0  0  0  0  0  0  0  0
    3.9887   -0.6917   -2.8985 S   0  0  0  0  0  0  0  0  0  0  0  0
    6.0513   -5.0854   -5.0637 C   0  0  0  0  0  0  0  0  0  0  0  0
    5.5677   -6.3101   -5.5005 C   0  0  0  0  0  0  0  0  0  0  0  0
    3.8300   -6.4219   -5.3047 S   0  0  0  0  0  0  0  0  0  0  0  0
    6.4268   -7.2955   -6.0168 C   0  0  0  0  0  0  0  0  0  0  0  0
    6.1648   -8.5659   -6.4609 C   0  0  0  0  0  0  0  0  0  0  0  0
    4.8409   -9.2033   -6.5195 C   0  0  0  0  0  0  0  0  0  0  0  0
    3.7701   -8.7356   -6.1824 O   0  0  0  0  0  0  0  0  0  0  0  0
    5.0619  -10.5527   -7.0724 C   0  0  0  0  0  0  0  0  0  0  0  0
    4.1441  -11.5311   -7.3215 C   0  0  0  0  0  0  0  0  0  0  0  0
    4.5841  -12.7643   -7.8516 C   0  0  0  0  0  0  0  0  0  0  0  0
    3.6820  -13.8108   -8.1236 C   0  0  0  0  0  0  0  0  0  0  0  0
    4.1361  -14.9951   -8.6327 C   0  0  0  0  0  0  0  0  0  0  0  0
    3.2762  -15.9913   -8.8894 F   0  0  0  0  0  0  0  0  0  0  0  0
    5.5080  -15.1837   -8.8925 C   0  0  0  0  0  0  0  0  0  0  0  0
    5.9244  -16.3558   -9.3912 F   0  0  0  0  0  0  0  0  0  0  0  0
    6.4073  -14.1860   -8.6400 C   0  0  0  0  0  0  0  0  0  0  0  0
    5.9718  -12.9533   -8.1138 C   0  0  0  0  0  0  0  0  0  0  0  0
    6.8972  -11.9179   -7.8466 C   0  0  0  0  0  0  0  0  0  0  0  0
    6.4493  -10.7305   -7.3304 C   0  0  0  0  0  0  0  0  0  0  0  0
    7.1532   -9.5069   -6.9507 C   0  0  0  0  0  0  0  0  0  0  0  0
    8.5104   -9.3227   -7.0394 C   0  0  0  0  0  0  0  0  0  0  0  0
    9.2181   -8.1640   -6.6590 C   0  0  0  0  0  0  0  0  0  0  0  0
    9.8761   -7.2674   -6.3696 N   0  0  0  0  0  0  0  0  0  0  0  0
    9.4083  -10.2959   -7.5253 C   0  0  0  0  0  0  0  0  0  0  0  0
   10.1941  -11.0402   -7.9087 N   0  0  0  0  0  0  0  0  0  0  0  0
   -4.9874    7.8646    9.0600 H   0  0  0  0  0  0  0  0  0  0  0  0
   -9.2405    6.9928   12.0282 H   0  0  0  0  0  0  0  0  0  0  0  0
  -11.5420    4.3673   12.4607 H   0  0  0  0  0  0  0  0  0  0  0  0
  -11.1990    6.0092   13.0350 H   0  0  0  0  0  0  0  0  0  0  0  0
  -12.5106    5.7101   11.8802 H   0  0  0  0  0  0  0  0  0  0  0  0
  -10.1729    4.4844    7.8321 H   0  0  0  0  0  0  0  0  0  0  0  0
   -5.8406    4.9368    6.6999 H   0  0  0  0  0  0  0  0  0  0  0  0
   -8.5799    2.4713    2.2564 H   0  0  0  0  0  0  0  0  0  0  0  0
   -9.4640    2.4063    3.7872 H   0  0  0  0  0  0  0  0  0  0  0  0
   -7.8870    0.0565    2.6134 H   0  0  0  0  0  0  0  0  0  0  0  0
   -9.6442    0.2537    2.5159 H   0  0  0  0  0  0  0  0  0  0  0  0
   -8.8636    0.0242    4.0791 H   0  0  0  0  0  0  0  0  0  0  0  0
    1.1877    5.0759    5.3545 H   0  0  0  0  0  0  0  0  0  0  0  0
    2.8600    6.9836    5.8816 H   0  0  0  0  0  0  0  0  0  0  0  0
    1.5862   10.4072    5.4189 H   0  0  0  0  0  0  0  0  0  0  0  0
    2.9152    9.5603    6.2357 H   0  0  0  0  0  0  0  0  0  0  0  0
    1.7884   11.1529    7.7772 H   0  0  0  0  0  0  0  0  0  0  0  0
    0.2450   10.3342    7.5107 H   0  0  0  0  0  0  0  0  0  0  0  0
    1.5591    9.4918    8.3351 H   0  0  0  0  0  0  0  0  0  0  0  0
    0.2988    4.9154    3.1772 H   0  0  0  0  0  0  0  0  0  0  0  0
    4.2404    4.6317    0.1999 H   0  0  0  0  0  0  0  0  0  0  0  0
    6.3654    3.4198   -0.1216 H   0  0  0  0  0  0  0  0  0  0  0  0
    7.3574   -1.3408   -0.5528 H   0  0  0  0  0  0  0  0  0  0  0  0
    6.3340   -1.4472    0.8952 H   0  0  0  0  0  0  0  0  0  0  0  0
    5.6830   -0.7421   -0.6187 H   0  0  0  0  0  0  0  0  0  0  0  0
    4.7428    0.0297    1.9086 H   0  0  0  0  0  0  0  0  0  0  0  0
    2.6289    1.2364    2.2334 H   0  0  0  0  0  0  0  0  0  0  0  0
    3.6099    4.9683    2.8676 H   0  0  0  0  0  0  0  0  0  0  0  0
    3.5390    7.3601    3.3259 H   0  0  0  0  0  0  0  0  0  0  0  0
    3.4028   11.0137    2.8125 H   0  0  0  0  0  0  0  0  0  0  0  0
    3.6175    9.5764    3.8320 H   0  0  0  0  0  0  0  0  0  0  0  0
    4.0762    9.5290    2.1007 H   0  0  0  0  0  0  0  0  0  0  0  0
    0.1536    7.7592    0.7485 H   0  0  0  0  0  0  0  0  0  0  0  0
    0.2546    5.3566    0.2421 H   0  0  0  0  0  0  0  0  0  0  0  0
   -3.1453    0.5658   -3.3248 H   0  0  0  0  0  0  0  0  0  0  0  0
   -5.2775    0.6055   -2.1399 H   0  0  0  0  0  0  0  0  0  0  0  0
   -7.9533    0.9317    0.2881 H   0  0  0  0  0  0  0  0  0  0  0  0
   -7.3479    0.3419   -1.2709 H   0  0  0  0  0  0  0  0  0  0  0  0
   -6.5825    1.7627   -0.4810 H   0  0  0  0  0  0  0  0  0  0  0  0
   -3.4539   -1.3308    1.2116 H   0  0  0  0  0  0  0  0  0  0  0  0
   -1.2969   -1.3674    0.0040 H   0  0  0  0  0  0  0  0  0  0  0  0
   -2.1304   -2.3092   -3.4595 H   0  0  0  0  0  0  0  0  0  0  0  0
   -1.9853   -3.0971   -5.7625 H   0  0  0  0  0  0  0  0  0  0  0  0
   -2.5908   -3.0125   -8.0536 H   0  0  0  0  0  0  0  0  0  0  0  0
   -1.5441   -3.6170   -9.3569 H   0  0  0  0  0  0  0  0  0  0  0  0
   -1.3229   -4.2362   -7.7087 H   0  0  0  0  0  0  0  0  0  0  0  0
    0.7558    0.0608   -6.6588 H   0  0  0  0  0  0  0  0  0  0  0  0
    0.6067    0.8535   -4.3411 H   0  0  0  0  0  0  0  0  0  0  0  0
    0.7710   -2.3629   -3.0301 H   0  0  0  0  0  0  0  0  0  0  0  0
   -1.9399   -6.7930   -2.2367 H   0  0  0  0  0  0  0  0  0  0  0  0
   -2.7361   -6.8657   -3.8178 H   0  0  0  0  0  0  0  0  0  0  0  0
   -3.3823   -4.4687   -3.5987 H   0  0  0  0  0  0  0  0  0  0  0  0
   -2.5557   -4.3836   -2.0352 H   0  0  0  0  0  0  0  0  0  0  0  0
   -3.9833   -5.4040   -2.2286 H   0  0  0  0  0  0  0  0  0  0  0  0
    7.7374   -3.9892   -3.0763 H   0  0  0  0  0  0  0  0  0  0  0  0
    9.7546   -2.3727   -2.9117 H   0  0  0  0  0  0  0  0  0  0  0  0
    9.5197    0.7028   -4.7039 H   0  0  0  0  0  0  0  0  0  0  0  0
   10.3578    0.1068   -3.2661 H   0  0  0  0  0  0  0  0  0  0  0  0
    7.8502    1.8654   -3.2609 H   0  0  0  0  0  0  0  0  0  0  0  0
    9.4941    2.4227   -2.9298 H   0  0  0  0  0  0  0  0  0  0  0  0
    8.6993    1.3024   -1.8198 H   0  0  0  0  0  0  0  0  0  0  0  0
    7.0927   -4.8277   -5.1390 H   0  0  0  0  0  0  0  0  0  0  0  0
    7.4608   -6.9736   -6.0476 H   0  0  0  0  0  0  0  0  0  0  0  0
    3.0974  -11.3662   -7.1153 H   0  0  0  0  0  0  0  0  0  0  0  0
    2.6285  -13.6818   -7.9303 H   0  0  0  0  0  0  0  0  0  0  0  0
    7.4543  -14.3470   -8.8445 H   0  0  0  0  0  0  0  0  0  0  0  0
    7.9391  -12.0949   -8.0576 H   0  0  0  0  0  0  0  0  0  0  0  0
  1  2  2  0  0  0  0
  2  3  1  0  0  0  0
  3  4  2  0  0  0  0
  3  5  1  0  0  0  0
  5  6  2  0  0  0  0
  6  7  1  0  0  0  0
  7  8  1  0  0  0  0
  7  9  2  0  0  0  0
  9 10  1  0  0  0  0
  9 11  1  0  0  0  0
 11 12  2  0  0  0  0
 12 13  1  0  0  0  0
 13 14  2  0  0  0  0
 14 15  1  0  0  0  0
 15 16  3  0  0  0  0
 14 17  1  0  0  0  0
 17 18  3  0  0  0  0
  1 19  1  0  0  0  0
 19 20  2  0  0  0  0
 20 21  1  0  0  0  0
 21 22  2  0  0  0  0
 22 23  1  0  0  0  0
 23 24  1  0  0  0  0
 24 25  1  0  0  0  0
 25 26  1  0  0  0  0
 26 27  1  0  0  0  0
 25 28  2  0  0  0  0
 28 29  1  0  0  0  0
 28 30  1  0  0  0  0
 30 31  1  0  0  0  0
 22 32  1  0  0  0  0
 32 33  2  0  0  0  0
 33 34  1  0  0  0  0
 34 35  1  0  0  0  0
 35 36  2  0  0  0  0
 36 37  1  0  0  0  0
 37 38  2  0  0  0  0
 38 39  1  0  0  0  0
 39 40  1  0  0  0  0
 38 41  1  0  0  0  0
 34 42  2  0  0  0  0
 42 43  1  0  0  0  0
 33 44  1  0  0  0  0
 44 45  2  0  0  0  0
 45 46  1  0  0  0  0
 45 47  1  0  0  0  0
 47 48  2  0  0  0  0
 48 49  1  0  0  0  0
 49 50  1  0  0  0  0
 50 51  2  0  0  0  0
 51 52  1  0  0  0  0
 52 53  2  0  0  0  0
 53 54  1  0  0  0  0
 54 55  1  0  0  0  0
 53 56  1  0  0  0  0
 56 57  2  0  0  0  0
 49 58  1  0  0  0  0
 58 59  2  0  0  0  0
 59 60  1  0  0  0  0
 60 61  2  0  0  0  0
 61 62  1  0  0  0  0
 62 63  1  0  0  0  0
 61 64  1  0  0  0  0
 64 65  2  0  0  0  0
 48 66  1  0  0  0  0
 66 67  1  0  0  0  0
 67 68  1  0  0  0  0
 68 69  2  0  0  0  0
 69 70  1  0  0  0  0
 70 71  1  0  0  0  0
 71 72  2  0  0  0  0
 72 73  1  0  0  0  0
 73 74  2  0  0  0  0
 74 75  1  0  0  0  0
 75 76  1  0  0  0  0
 74 77  1  0  0  0  0
 77 78  2  0  0  0  0
 70 79  1  0  0  0  0
 79 80  2  0  0  0  0
 80 81  1  0  0  0  0
 81 82  2  0  0  0  0
 82 83  1  0  0  0  0
 83 84  1  0  0  0  0
 82 85  1  0  0  0  0
 85 86  2  0  0  0  0
 69 87  1  0  0  0  0
 87 88  1  0  0  0  0
 68 89  1  0  0  0  0
 89 90  2  0  0  0  0
 90 91  1  0  0  0  0
 91 92  2  0  0  0  0
 92 93  1  0  0  0  0
 93 94  1  0  0  0  0
 94 95  1  0  0  0  0
 95 96  1  0  0  0  0
 96 97  1  0  0  0  0
 95 98  2  0  0  0  0
 98 99  1  0  0  0  0
 98100  1  0  0  0  0
100101  1  0  0  0  0
 92102  1  0  0  0  0
102103  2  0  0  0  0
103104  1  0  0  0  0
104105  1  0  0  0  0
105106  2  0  0  0  0
106107  1  0  0  0  0
107108  2  0  0  0  0
108109  1  0  0  0  0
109110  1  0  0  0  0
108111  1  0  0  0  0
104112  2  0  0  0  0
112113  1  0  0  0  0
103114  1  0  0  0  0
114115  2  0  0  0  0
115116  1  0  0  0  0
115117  1  0  0  0  0
117118  2  0  0  0  0
118119  1  0  0  0  0
119120  2  0  0  0  0
119121  1  0  0  0  0
121122  2  0  0  0  0
122123  1  0  0  0  0
123124  2  0  0  0  0
124125  1  0  0  0  0
125126  1  0  0  0  0
125127  2  0  0  0  0
127128  1  0  0  0  0
127129  1  0  0  0  0
129130  2  0  0  0  0
130131  1  0  0  0  0
131132  2  0  0  0  0
132133  1  0  0  0  0
133134  2  0  0  0  0
134135  1  0  0  0  0
135136  3  0  0  0  0
134137  1  0  0  0  0
137138  3  0  0  0  0
 13  2  1  0  0  0  0
 43 19  1  0  0  0  0
 88 47  1  0  0  0  0
113 89  1  0  0  0  0
133118  1  0  0  0  0
 12  5  1  0  0  0  0
 42 21  1  0  0  0  0
 57 50  1  0  0  0  0
 65 58  1  0  0  0  0
 87 66  2  0  0  0  0
112 91  1  0  0  0  0
132121  1  0  0  0  0
 30 23  2  0  0  0  0
 46 32  1  0  0  0  0
 78 71  1  0  0  0  0
 86 79  1  0  0  0  0
100 93  2  0  0  0  0
116102  1  0  0  0  0
130123  1  0  0  0  0
 41 35  1  0  0  0  0
111105  1  0  0  0  0
  1139  1  0  0  0  0
  6140  1  0  0  0  0
  8141  1  0  0  0  0
  8142  1  0  0  0  0
  8143  1  0  0  0  0
 11144  1  0  0  0  0
 20145  1  0  0  0  0
 26146  1  0  0  0  0
 26147  1  0  0  0  0
 27148  1  0  0  0  0
 27149  1  0  0  0  0
 27150  1  0  0  0  0
 36151  1  0  0  0  0
 37152  1  0  0  0  0
 39153  1  0  0  0  0
 39154  1  0  0  0  0
 40155  1  0  0  0  0
 40156  1  0  0  0  0
 40157  1  0  0  0  0
 44158  1  0  0  0  0
 51159  1  0  0  0  0
 52160  1  0  0  0  0
 55161  1  0  0  0  0
 55162  1  0  0  0  0
 55163  1  0  0  0  0
 56164  1  0  0  0  0
 57165  1  0  0  0  0
 59166  1  0  0  0  0
 60167  1  0  0  0  0
 63168  1  0  0  0  0
 63169  1  0  0  0  0
 63170  1  0  0  0  0
 64171  1  0  0  0  0
 65172  1  0  0  0  0
 72173  1  0  0  0  0
 73174  1  0  0  0  0
 76175  1  0  0  0  0
 76176  1  0  0  0  0
 76177  1  0  0  0  0
 77178  1  0  0  0  0
 78179  1  0  0  0  0
 80180  1  0  0  0  0
 81181  1  0  0  0  0
 84182  1  0  0  0  0
 84183  1  0  0  0  0
 84184  1  0  0  0  0
 85185  1  0  0  0  0
 86186  1  0  0  0  0
 90187  1  0  0  0  0
 96188  1  0  0  0  0
 96189  1  0  0  0  0
 97190  1  0  0  0  0
 97191  1  0  0  0  0
 97192  1  0  0  0  0
106193  1  0  0  0  0
107194  1  0  0  0  0
109195  1  0  0  0  0
109196  1  0  0  0  0
110197  1  0  0  0  0
110198  1  0  0  0  0
110199  1  0  0  0  0
114200  1  0  0  0  0
117201  1  0  0  0  0
122202  1  0  0  0  0
124203  1  0  0  0  0
129204  1  0  0  0  0
131205  1  0  0  0  0
M  END
