
  xtb     02152221283D
 energy: -400.671832960274 gnorm: 0.000435805151 xtb: 6.4.1 (unknown)
242263  0     0  0            999 V2000
    5.2274   -6.3906   -4.1727 C   0  0  0  0  0  0  0  0  0  0  0  0
    5.7218   -6.4596   -5.4449 C   0  0  0  0  0  0  0  0  0  0  0  0
    7.1115   -6.9597   -5.6685 C   0  0  0  0  0  0  0  0  0  0  0  0
    7.8304   -7.4903   -4.8541 O   0  0  0  0  0  0  0  0  0  0  0  0
    7.4097   -6.6068   -7.0664 C   0  0  0  0  0  0  0  0  0  0  0  0
    8.4923   -6.6879   -7.9595 C   0  0  0  0  0  0  0  0  0  0  0  0
    8.1470   -6.2163   -9.1901 C   0  0  0  0  0  0  0  0  0  0  0  0
    6.5050   -5.6773   -9.2938 S   0  0  0  0  0  0  0  0  0  0  0  0
    6.2708   -6.0681   -7.6442 C   0  0  0  0  0  0  0  0  0  0  0  0
    5.1770   -6.0301   -6.7087 C   0  0  0  0  0  0  0  0  0  0  0  0
    3.8490   -5.8504   -7.0279 C   0  0  0  0  0  0  0  0  0  0  0  0
    3.4622   -5.4050   -8.3040 C   0  0  0  0  0  0  0  0  0  0  0  0
    3.1559   -5.0006   -9.3343 N   0  0  0  0  0  0  0  0  0  0  0  0
    2.8050   -6.1628   -6.1469 C   0  0  0  0  0  0  0  0  0  0  0  0
    1.9316   -6.4435   -5.4545 N   0  0  0  0  0  0  0  0  0  0  0  0
    4.2191   -5.5817   -3.6168 C   0  0  0  0  0  0  0  0  0  0  0  0
    3.6468   -4.3594   -4.0086 C   0  0  0  0  0  0  0  0  0  0  0  0
    3.9770   -3.5868   -5.1007 N   0  0  0  0  0  0  0  0  0  0  0  0
    5.2840   -3.4619   -5.5840 C   0  0  0  0  0  0  0  0  0  0  0  0
    5.4885   -3.0651   -6.9070 C   0  0  0  0  0  0  0  0  0  0  0  0
    6.7602   -2.9329   -7.4226 C   0  0  0  0  0  0  0  0  0  0  0  0
    7.8669   -3.2185   -6.6311 C   0  0  0  0  0  0  0  0  0  0  0  0
    9.5324   -3.1559   -7.1959 S   0  0  0  0  0  0  0  0  0  0  0  0
    9.3871   -2.6264   -8.9263 C   0  0  0  0  0  0  0  0  0  0  0  0
    7.6717   -3.5859   -5.3004 C   0  0  0  0  0  0  0  0  0  0  0  0
    6.4009   -3.6945   -4.7791 C   0  0  0  0  0  0  0  0  0  0  0  0
    3.0248   -2.6304   -5.5398 C   0  0  0  0  0  0  0  0  0  0  0  0
    3.3955   -1.2996   -5.6893 C   0  0  0  0  0  0  0  0  0  0  0  0
    2.4744   -0.3457   -6.0684 C   0  0  0  0  0  0  0  0  0  0  0  0
    1.1576   -0.7130   -6.3122 C   0  0  0  0  0  0  0  0  0  0  0  0
   -0.1137    0.4203   -6.7578 S   0  0  0  0  0  0  0  0  0  0  0  0
    0.6857    2.0459   -6.6182 C   0  0  0  0  0  0  0  0  0  0  0  0
    0.7901   -2.0530   -6.1995 C   0  0  0  0  0  0  0  0  0  0  0  0
    1.7096   -3.0037   -5.8141 C   0  0  0  0  0  0  0  0  0  0  0  0
    2.7014   -3.9259   -3.0472 C   0  0  0  0  0  0  0  0  0  0  0  0
    1.7160   -2.5132   -2.8943 S   0  0  0  0  0  0  0  0  0  0  0  0
    1.1708   -3.0422   -1.3143 C   0  0  0  0  0  0  0  0  0  0  0  0
    1.6775   -4.2703   -0.9588 C   0  0  0  0  0  0  0  0  0  0  0  0
    1.3436   -4.9306    0.2233 N   0  0  0  0  0  0  0  0  0  0  0  0
    2.3680   -5.3428    1.0736 C   0  0  0  0  0  0  0  0  0  0  0  0
    3.6197   -4.7290    0.9887 C   0  0  0  0  0  0  0  0  0  0  0  0
    4.6477   -5.1027    1.8222 C   0  0  0  0  0  0  0  0  0  0  0  0
    4.4534   -6.0947    2.7766 C   0  0  0  0  0  0  0  0  0  0  0  0
    5.8283   -6.5018    3.8115 S   0  0  0  0  0  0  0  0  0  0  0  0
    5.0290   -7.1900    5.2895 C   0  0  0  0  0  0  0  0  0  0  0  0
    3.2222   -6.7300    2.8509 C   0  0  0  0  0  0  0  0  0  0  0  0
    2.1942   -6.3649    2.0036 C   0  0  0  0  0  0  0  0  0  0  0  0
   -0.0231   -5.1547    0.4425 C   0  0  0  0  0  0  0  0  0  0  0  0
   -0.8451   -5.4002   -0.6601 C   0  0  0  0  0  0  0  0  0  0  0  0
   -2.1976   -5.5976   -0.4963 C   0  0  0  0  0  0  0  0  0  0  0  0
   -2.7579   -5.5763    0.7745 C   0  0  0  0  0  0  0  0  0  0  0  0
   -4.5024   -5.8562    0.9144 S   0  0  0  0  0  0  0  0  0  0  0  0
   -4.5577   -7.0594    2.2790 C   0  0  0  0  0  0  0  0  0  0  0  0
   -1.9507   -5.3270    1.8754 C   0  0  0  0  0  0  0  0  0  0  0  0
   -0.5960   -5.1085    1.7116 C   0  0  0  0  0  0  0  0  0  0  0  0
    2.5696   -4.7581   -1.9462 C   0  0  0  0  0  0  0  0  0  0  0  0
    3.6132   -6.1191   -2.0446 S   0  0  0  0  0  0  0  0  0  0  0  0
    0.4115   -2.1040   -0.5178 C   0  0  0  0  0  0  0  0  0  0  0  0
    1.0012   -1.0164    0.0862 C   0  0  0  0  0  0  0  0  0  0  0  0
    2.3929   -0.9295    0.2972 N   0  0  0  0  0  0  0  0  0  0  0  0
    2.8533   -1.4808    1.4960 C   0  0  0  0  0  0  0  0  0  0  0  0
    4.1402   -1.2194    1.9657 C   0  0  0  0  0  0  0  0  0  0  0  0
    4.6056   -1.7933    3.1334 C   0  0  0  0  0  0  0  0  0  0  0  0
    3.7865   -2.6299    3.8776 C   0  0  0  0  0  0  0  0  0  0  0  0
    4.2677   -3.4256    5.3794 S   0  0  0  0  0  0  0  0  0  0  0  0
    6.0722   -3.2499    5.4004 C   0  0  0  0  0  0  0  0  0  0  0  0
    2.4805   -2.8424    3.4520 C   0  0  0  0  0  0  0  0  0  0  0  0
    2.0181   -2.2780    2.2861 C   0  0  0  0  0  0  0  0  0  0  0  0
    3.2161   -0.5745   -0.7734 C   0  0  0  0  0  0  0  0  0  0  0  0
    2.8099    0.4558   -1.6255 C   0  0  0  0  0  0  0  0  0  0  0  0
    3.6054    0.8450   -2.6786 C   0  0  0  0  0  0  0  0  0  0  0  0
    4.8244    0.2151   -2.9167 C   0  0  0  0  0  0  0  0  0  0  0  0
    5.7952    0.8391   -4.2602 S   0  0  0  0  0  0  0  0  0  0  0  0
    7.3774   -0.0360   -4.1078 C   0  0  0  0  0  0  0  0  0  0  0  0
    5.2101   -0.8436   -2.1086 C   0  0  0  0  0  0  0  0  0  0  0  0
    4.4132   -1.2317   -1.0488 C   0  0  0  0  0  0  0  0  0  0  0  0
    0.0387   -0.1571    0.6591 C   0  0  0  0  0  0  0  0  0  0  0  0
    0.0769    1.4392    1.3048 S   0  0  0  0  0  0  0  0  0  0  0  0
   -1.6664    1.4039    1.5492 C   0  0  0  0  0  0  0  0  0  0  0  0
   -2.2273    0.2153    1.1340 C   0  0  0  0  0  0  0  0  0  0  0  0
   -3.5570   -0.1677    1.3160 N   0  0  0  0  0  0  0  0  0  0  0  0
   -3.7743   -1.2863    2.1330 C   0  0  0  0  0  0  0  0  0  0  0  0
   -4.9400   -2.0454    2.0200 C   0  0  0  0  0  0  0  0  0  0  0  0
   -5.1832   -3.0824    2.8938 C   0  0  0  0  0  0  0  0  0  0  0  0
   -4.2593   -3.3989    3.8858 C   0  0  0  0  0  0  0  0  0  0  0  0
   -4.6756   -4.6938    5.0235 S   0  0  0  0  0  0  0  0  0  0  0  0
   -3.6220   -4.3321    6.4594 C   0  0  0  0  0  0  0  0  0  0  0  0
   -3.0595   -2.7078    3.9452 C   0  0  0  0  0  0  0  0  0  0  0  0
   -2.8233   -1.6591    3.0803 C   0  0  0  0  0  0  0  0  0  0  0  0
   -4.5778    0.7320    0.9982 C   0  0  0  0  0  0  0  0  0  0  0  0
   -5.7093    0.8776    1.8017 C   0  0  0  0  0  0  0  0  0  0  0  0
   -6.6717    1.8095    1.4827 C   0  0  0  0  0  0  0  0  0  0  0  0
   -6.5287    2.6251    0.3625 C   0  0  0  0  0  0  0  0  0  0  0  0
   -7.8020    3.8222    0.0969 S   0  0  0  0  0  0  0  0  0  0  0  0
   -7.5078    4.3965   -1.5980 C   0  0  0  0  0  0  0  0  0  0  0  0
   -5.4163    2.4724   -0.4517 C   0  0  0  0  0  0  0  0  0  0  0  0
   -4.4593    1.5258   -0.1405 C   0  0  0  0  0  0  0  0  0  0  0  0
   -1.2517   -0.6519    0.5799 C   0  0  0  0  0  0  0  0  0  0  0  0
   -1.3254   -2.1437   -0.2946 S   0  0  0  0  0  0  0  0  0  0  0  0
   -2.3650    2.6137    1.9212 C   0  0  0  0  0  0  0  0  0  0  0  0
   -2.9576    2.9939    3.1078 C   0  0  0  0  0  0  0  0  0  0  0  0
   -2.8992    2.2804    4.2893 N   0  0  0  0  0  0  0  0  0  0  0  0
   -3.9226    2.4306    5.2425 C   0  0  0  0  0  0  0  0  0  0  0  0
   -5.2551    2.4760    4.8404 C   0  0  0  0  0  0  0  0  0  0  0  0
   -6.2586    2.6421    5.7734 C   0  0  0  0  0  0  0  0  0  0  0  0
   -5.9684    2.7611    7.1273 C   0  0  0  0  0  0  0  0  0  0  0  0
   -7.0700    2.9585    8.1223 C   0  0  0  0  0  0  0  0  0  0  0  0
   -4.6374    2.7057    7.5207 C   0  0  0  0  0  0  0  0  0  0  0  0
   -3.6230    2.5475    6.5967 C   0  0  0  0  0  0  0  0  0  0  0  0
   -1.7264    1.5937    4.6460 C   0  0  0  0  0  0  0  0  0  0  0  0
   -1.8100    0.4034    5.3643 C   0  0  0  0  0  0  0  0  0  0  0  0
   -0.6605   -0.2567    5.7529 C   0  0  0  0  0  0  0  0  0  0  0  0
    0.5979    0.2394    5.4336 C   0  0  0  0  0  0  0  0  0  0  0  0
    1.8460   -0.4497    5.8891 C   0  0  0  0  0  0  0  0  0  0  0  0
    0.6713    1.4243    4.7120 C   0  0  0  0  0  0  0  0  0  0  0  0
   -0.4696    2.1009    4.3287 C   0  0  0  0  0  0  0  0  0  0  0  0
   -3.6036    4.2533    2.9613 C   0  0  0  0  0  0  0  0  0  0  0  0
   -4.5504    5.2407    4.0081 S   0  0  0  0  0  0  0  0  0  0  0  0
   -4.7242    6.4676    2.7446 C   0  0  0  0  0  0  0  0  0  0  0  0
   -4.1377    6.0610    1.5325 C   0  0  0  0  0  0  0  0  0  0  0  0
   -4.2794    6.6526    0.3071 N   0  0  0  0  0  0  0  0  0  0  0  0
   -5.3764    7.4577   -0.0287 C   0  0  0  0  0  0  0  0  0  0  0  0
   -6.6597    7.1650    0.4318 C   0  0  0  0  0  0  0  0  0  0  0  0
   -7.7155    7.9963    0.1229 C   0  0  0  0  0  0  0  0  0  0  0  0
   -7.5329    9.1396   -0.6510 C   0  0  0  0  0  0  0  0  0  0  0  0
   -8.6735   10.0710   -0.9160 C   0  0  0  0  0  0  0  0  0  0  0  0
   -6.2614    9.3976   -1.1469 C   0  0  0  0  0  0  0  0  0  0  0  0
   -5.1939    8.5736   -0.8440 C   0  0  0  0  0  0  0  0  0  0  0  0
   -3.2934    6.4246   -0.6769 C   0  0  0  0  0  0  0  0  0  0  0  0
   -1.9433    6.5379   -0.3617 C   0  0  0  0  0  0  0  0  0  0  0  0
   -0.9861    6.2806   -1.3243 C   0  0  0  0  0  0  0  0  0  0  0  0
   -1.3464    5.9106   -2.6135 C   0  0  0  0  0  0  0  0  0  0  0  0
   -0.3124    5.5908   -3.6492 C   0  0  0  0  0  0  0  0  0  0  0  0
   -2.6994    5.8319   -2.9265 C   0  0  0  0  0  0  0  0  0  0  0  0
   -3.6653    6.0872   -1.9747 C   0  0  0  0  0  0  0  0  0  0  0  0
   -3.4685    4.8241    1.7052 C   0  0  0  0  0  0  0  0  0  0  0  0
   -2.5164    3.8343    0.6622 S   0  0  0  0  0  0  0  0  0  0  0  0
   -5.4468    7.6186    3.0846 C   0  0  0  0  0  0  0  0  0  0  0  0
   -5.3623    8.8408    2.4626 C   0  0  0  0  0  0  0  0  0  0  0  0
   -4.1872    9.3151    1.6961 C   0  0  0  0  0  0  0  0  0  0  0  0
   -3.1390    8.7258    1.5175 O   0  0  0  0  0  0  0  0  0  0  0  0
   -4.5161   10.7004    1.3123 C   0  0  0  0  0  0  0  0  0  0  0  0
   -3.9370   11.7516    0.5838 C   0  0  0  0  0  0  0  0  0  0  0  0
   -4.7728   12.8285    0.5310 C   0  0  0  0  0  0  0  0  0  0  0  0
   -6.2666   12.5918    1.3640 S   0  0  0  0  0  0  0  0  0  0  0  0
   -5.7706   11.0126    1.8067 C   0  0  0  0  0  0  0  0  0  0  0  0
   -6.3380    9.9039    2.5276 C   0  0  0  0  0  0  0  0  0  0  0  0
   -7.6148    9.8609    3.0327 C   0  0  0  0  0  0  0  0  0  0  0  0
   -8.4755   10.9663    2.8990 C   0  0  0  0  0  0  0  0  0  0  0  0
   -9.1839   11.8612    2.7710 N   0  0  0  0  0  0  0  0  0  0  0  0
   -8.1976    8.7444    3.6573 C   0  0  0  0  0  0  0  0  0  0  0  0
   -8.7331    7.8617    4.1609 N   0  0  0  0  0  0  0  0  0  0  0  0
    5.7527   -7.0166   -3.4564 H   0  0  0  0  0  0  0  0  0  0  0  0
    9.4639   -7.0694   -7.7066 H   0  0  0  0  0  0  0  0  0  0  0  0
    8.7612   -6.1632  -10.0680 H   0  0  0  0  0  0  0  0  0  0  0  0
    4.6382   -2.8709   -7.5437 H   0  0  0  0  0  0  0  0  0  0  0  0
    6.8703   -2.6255   -8.4491 H   0  0  0  0  0  0  0  0  0  0  0  0
    8.9365   -1.6397   -8.9767 H   0  0  0  0  0  0  0  0  0  0  0  0
   10.4042   -2.5861   -9.3033 H   0  0  0  0  0  0  0  0  0  0  0  0
    8.8123   -3.3540   -9.4914 H   0  0  0  0  0  0  0  0  0  0  0  0
    8.5311   -3.7863   -4.6790 H   0  0  0  0  0  0  0  0  0  0  0  0
    6.2735   -3.9526   -3.7392 H   0  0  0  0  0  0  0  0  0  0  0  0
    4.4129   -1.0002   -5.4964 H   0  0  0  0  0  0  0  0  0  0  0  0
    2.8037    0.6761   -6.1588 H   0  0  0  0  0  0  0  0  0  0  0  0
    1.4681    2.1454   -7.3645 H   0  0  0  0  0  0  0  0  0  0  0  0
    1.0780    2.1774   -5.6141 H   0  0  0  0  0  0  0  0  0  0  0  0
   -0.0975    2.7732   -6.8087 H   0  0  0  0  0  0  0  0  0  0  0  0
   -0.2285   -2.3396   -6.4090 H   0  0  0  0  0  0  0  0  0  0  0  0
    1.4057   -4.0334   -5.7130 H   0  0  0  0  0  0  0  0  0  0  0  0
    3.7777   -3.9381    0.2730 H   0  0  0  0  0  0  0  0  0  0  0  0
    5.6105   -4.6203    1.7474 H   0  0  0  0  0  0  0  0  0  0  0  0
    5.8007   -7.2361    6.0514 H   0  0  0  0  0  0  0  0  0  0  0  0
    4.6550   -8.1898    5.0886 H   0  0  0  0  0  0  0  0  0  0  0  0
    4.2325   -6.5220    5.6032 H   0  0  0  0  0  0  0  0  0  0  0  0
    3.0542   -7.5251    3.5600 H   0  0  0  0  0  0  0  0  0  0  0  0
    1.2531   -6.8905    2.0570 H   0  0  0  0  0  0  0  0  0  0  0  0
   -0.4147   -5.4502   -1.6490 H   0  0  0  0  0  0  0  0  0  0  0  0
   -2.8290   -5.7879   -1.3499 H   0  0  0  0  0  0  0  0  0  0  0  0
   -4.4131   -6.5616    3.2321 H   0  0  0  0  0  0  0  0  0  0  0  0
   -3.7995   -7.8175    2.1106 H   0  0  0  0  0  0  0  0  0  0  0  0
   -5.5465   -7.5046    2.2459 H   0  0  0  0  0  0  0  0  0  0  0  0
   -2.3814   -5.2909    2.8633 H   0  0  0  0  0  0  0  0  0  0  0  0
    0.0206   -4.8883    2.5702 H   0  0  0  0  0  0  0  0  0  0  0  0
    4.7857   -0.5521    1.4147 H   0  0  0  0  0  0  0  0  0  0  0  0
    5.6110   -1.5712    3.4545 H   0  0  0  0  0  0  0  0  0  0  0  0
    6.4830   -3.6417    4.4750 H   0  0  0  0  0  0  0  0  0  0  0  0
    6.4173   -3.8486    6.2374 H   0  0  0  0  0  0  0  0  0  0  0  0
    6.3471   -2.2104    5.5550 H   0  0  0  0  0  0  0  0  0  0  0  0
    1.8314   -3.4698    4.0438 H   0  0  0  0  0  0  0  0  0  0  0  0
    1.0016   -2.4762    1.9866 H   0  0  0  0  0  0  0  0  0  0  0  0
    1.8712    0.9560   -1.4415 H   0  0  0  0  0  0  0  0  0  0  0  0
    3.3012    1.6574   -3.3206 H   0  0  0  0  0  0  0  0  0  0  0  0
    7.2484   -1.0956   -4.3135 H   0  0  0  0  0  0  0  0  0  0  0  0
    8.0275    0.4038   -4.8579 H   0  0  0  0  0  0  0  0  0  0  0  0
    7.7925    0.1284   -3.1179 H   0  0  0  0  0  0  0  0  0  0  0  0
    6.1286   -1.3787   -2.2919 H   0  0  0  0  0  0  0  0  0  0  0  0
    4.7281   -2.0606   -0.4327 H   0  0  0  0  0  0  0  0  0  0  0  0
   -5.6613   -1.8078    1.2535 H   0  0  0  0  0  0  0  0  0  0  0  0
   -6.0937   -3.6556    2.8163 H   0  0  0  0  0  0  0  0  0  0  0  0
   -2.5923   -4.6152    6.2595 H   0  0  0  0  0  0  0  0  0  0  0  0
   -4.0147   -4.9354    7.2720 H   0  0  0  0  0  0  0  0  0  0  0  0
   -3.6985   -3.2775    6.7062 H   0  0  0  0  0  0  0  0  0  0  0  0
   -2.3032   -2.9588    4.6718 H   0  0  0  0  0  0  0  0  0  0  0  0
   -1.8981   -1.1106    3.1705 H   0  0  0  0  0  0  0  0  0  0  0  0
   -5.8247    0.2653    2.6832 H   0  0  0  0  0  0  0  0  0  0  0  0
   -7.5431    1.9286    2.1087 H   0  0  0  0  0  0  0  0  0  0  0  0
   -6.5918    4.9783   -1.6422 H   0  0  0  0  0  0  0  0  0  0  0  0
   -7.4695    3.5454   -2.2713 H   0  0  0  0  0  0  0  0  0  0  0  0
   -8.3529    5.0315   -1.8448 H   0  0  0  0  0  0  0  0  0  0  0  0
   -5.2738    3.0853   -1.3274 H   0  0  0  0  0  0  0  0  0  0  0  0
   -3.5983    1.4087   -0.7821 H   0  0  0  0  0  0  0  0  0  0  0  0
   -5.4970    2.3828    3.7932 H   0  0  0  0  0  0  0  0  0  0  0  0
   -7.2863    2.6823    5.4438 H   0  0  0  0  0  0  0  0  0  0  0  0
   -7.5609    3.9160    7.9511 H   0  0  0  0  0  0  0  0  0  0  0  0
   -6.6859    2.9438    9.1390 H   0  0  0  0  0  0  0  0  0  0  0  0
   -7.8226    2.1780    8.0203 H   0  0  0  0  0  0  0  0  0  0  0  0
   -4.3852    2.8009    8.5672 H   0  0  0  0  0  0  0  0  0  0  0  0
   -2.5931    2.5227    6.9213 H   0  0  0  0  0  0  0  0  0  0  0  0
   -2.7825    0.0077    5.6183 H   0  0  0  0  0  0  0  0  0  0  0  0
   -0.7412   -1.1753    6.3168 H   0  0  0  0  0  0  0  0  0  0  0  0
    1.6699   -1.5056    6.0775 H   0  0  0  0  0  0  0  0  0  0  0  0
    2.2032    0.0029    6.8150 H   0  0  0  0  0  0  0  0  0  0  0  0
    2.6318   -0.3541    5.1433 H   0  0  0  0  0  0  0  0  0  0  0  0
    1.6383    1.8310    4.4542 H   0  0  0  0  0  0  0  0  0  0  0  0
   -0.3886    3.0352    3.7926 H   0  0  0  0  0  0  0  0  0  0  0  0
   -6.8317    6.2857    1.0332 H   0  0  0  0  0  0  0  0  0  0  0  0
   -8.6996    7.7560    0.4979 H   0  0  0  0  0  0  0  0  0  0  0  0
   -8.8305   10.7247   -0.0564 H   0  0  0  0  0  0  0  0  0  0  0  0
   -9.5952    9.5170   -1.0803 H   0  0  0  0  0  0  0  0  0  0  0  0
   -8.4745   10.6959   -1.7830 H   0  0  0  0  0  0  0  0  0  0  0  0
   -6.0962   10.2681   -1.7656 H   0  0  0  0  0  0  0  0  0  0  0  0
   -4.2083    8.7976   -1.2242 H   0  0  0  0  0  0  0  0  0  0  0  0
   -1.6621    6.8535    0.6305 H   0  0  0  0  0  0  0  0  0  0  0  0
    0.0590    6.3721   -1.0674 H   0  0  0  0  0  0  0  0  0  0  0  0
    0.6741    5.9145   -3.3282 H   0  0  0  0  0  0  0  0  0  0  0  0
   -0.2815    4.5145   -3.8211 H   0  0  0  0  0  0  0  0  0  0  0  0
   -0.5515    6.0725   -4.5956 H   0  0  0  0  0  0  0  0  0  0  0  0
   -2.9997    5.5607   -3.9286 H   0  0  0  0  0  0  0  0  0  0  0  0
   -4.7127    6.0297   -2.2350 H   0  0  0  0  0  0  0  0  0  0  0  0
   -6.1193    7.5142    3.9278 H   0  0  0  0  0  0  0  0  0  0  0  0
   -2.9679   11.7139    0.1214 H   0  0  0  0  0  0  0  0  0  0  0  0
   -4.6018   13.7674    0.0416 H   0  0  0  0  0  0  0  0  0  0  0  0
  1  2  2  0  0  0  0
  2  3  1  0  0  0  0
  3  4  2  0  0  0  0
  3  5  1  0  0  0  0
  5  6  1  0  0  0  0
  6  7  2  0  0  0  0
  7  8  1  0  0  0  0
  8  9  1  0  0  0  0
  9 10  1  0  0  0  0
 10 11  2  0  0  0  0
 11 12  1  0  0  0  0
 12 13  3  0  0  0  0
 11 14  1  0  0  0  0
 14 15  3  0  0  0  0
  1 16  1  0  0  0  0
 16 17  2  0  0  0  0
 17 18  1  0  0  0  0
 18 19  1  0  0  0  0
 19 20  2  0  0  0  0
 20 21  1  0  0  0  0
 21 22  2  0  0  0  0
 22 23  1  0  0  0  0
 23 24  1  0  0  0  0
 22 25  1  0  0  0  0
 25 26  2  0  0  0  0
 18 27  1  0  0  0  0
 27 28  2  0  0  0  0
 28 29  1  0  0  0  0
 29 30  2  0  0  0  0
 30 31  1  0  0  0  0
 31 32  1  0  0  0  0
 30 33  1  0  0  0  0
 33 34  2  0  0  0  0
 17 35  1  0  0  0  0
 35 36  1  0  0  0  0
 36 37  1  0  0  0  0
 37 38  2  0  0  0  0
 38 39  1  0  0  0  0
 39 40  1  0  0  0  0
 40 41  2  0  0  0  0
 41 42  1  0  0  0  0
 42 43  2  0  0  0  0
 43 44  1  0  0  0  0
 44 45  1  0  0  0  0
 43 46  1  0  0  0  0
 46 47  2  0  0  0  0
 39 48  1  0  0  0  0
 48 49  2  0  0  0  0
 49 50  1  0  0  0  0
 50 51  2  0  0  0  0
 51 52  1  0  0  0  0
 52 53  1  0  0  0  0
 51 54  1  0  0  0  0
 54 55  2  0  0  0  0
 38 56  1  0  0  0  0
 56 57  1  0  0  0  0
 37 58  1  0  0  0  0
 58 59  2  0  0  0  0
 59 60  1  0  0  0  0
 60 61  1  0  0  0  0
 61 62  2  0  0  0  0
 62 63  1  0  0  0  0
 63 64  2  0  0  0  0
 64 65  1  0  0  0  0
 65 66  1  0  0  0  0
 64 67  1  0  0  0  0
 67 68  2  0  0  0  0
 60 69  1  0  0  0  0
 69 70  2  0  0  0  0
 70 71  1  0  0  0  0
 71 72  2  0  0  0  0
 72 73  1  0  0  0  0
 73 74  1  0  0  0  0
 72 75  1  0  0  0  0
 75 76  2  0  0  0  0
 59 77  1  0  0  0  0
 77 78  1  0  0  0  0
 78 79  1  0  0  0  0
 79 80  2  0  0  0  0
 80 81  1  0  0  0  0
 81 82  1  0  0  0  0
 82 83  2  0  0  0  0
 83 84  1  0  0  0  0
 84 85  2  0  0  0  0
 85 86  1  0  0  0  0
 86 87  1  0  0  0  0
 85 88  1  0  0  0  0
 88 89  2  0  0  0  0
 81 90  1  0  0  0  0
 90 91  2  0  0  0  0
 91 92  1  0  0  0  0
 92 93  2  0  0  0  0
 93 94  1  0  0  0  0
 94 95  1  0  0  0  0
 93 96  1  0  0  0  0
 96 97  2  0  0  0  0
 80 98  1  0  0  0  0
 98 99  1  0  0  0  0
 79100  1  0  0  0  0
100101  2  0  0  0  0
101102  1  0  0  0  0
102103  1  0  0  0  0
103104  2  0  0  0  0
104105  1  0  0  0  0
105106  2  0  0  0  0
106107  1  0  0  0  0
106108  1  0  0  0  0
108109  2  0  0  0  0
102110  1  0  0  0  0
110111  2  0  0  0  0
111112  1  0  0  0  0
112113  2  0  0  0  0
113114  1  0  0  0  0
113115  1  0  0  0  0
115116  2  0  0  0  0
101117  1  0  0  0  0
117118  1  0  0  0  0
118119  1  0  0  0  0
119120  2  0  0  0  0
120121  1  0  0  0  0
121122  1  0  0  0  0
122123  2  0  0  0  0
123124  1  0  0  0  0
124125  2  0  0  0  0
125126  1  0  0  0  0
125127  1  0  0  0  0
127128  2  0  0  0  0
121129  1  0  0  0  0
129130  2  0  0  0  0
130131  1  0  0  0  0
131132  2  0  0  0  0
132133  1  0  0  0  0
132134  1  0  0  0  0
134135  2  0  0  0  0
120136  1  0  0  0  0
136137  1  0  0  0  0
119138  1  0  0  0  0
138139  2  0  0  0  0
139140  1  0  0  0  0
140141  2  0  0  0  0
140142  1  0  0  0  0
142143  1  0  0  0  0
143144  2  0  0  0  0
144145  1  0  0  0  0
145146  1  0  0  0  0
146147  1  0  0  0  0
147148  2  0  0  0  0
148149  1  0  0  0  0
149150  3  0  0  0  0
148151  1  0  0  0  0
151152  3  0  0  0  0
 10  2  1  0  0  0  0
 57 16  1  0  0  0  0
 99 58  1  0  0  0  0
137100  1  0  0  0  0
147139  1  0  0  0  0
  9  5  2  0  0  0  0
 26 19  1  0  0  0  0
 34 27  1  0  0  0  0
 56 35  2  0  0  0  0
 68 61  1  0  0  0  0
 76 69  1  0  0  0  0
 98 77  2  0  0  0  0
109103  1  0  0  0  0
116110  1  0  0  0  0
136117  2  0  0  0  0
146142  2  0  0  0  0
 47 40  1  0  0  0  0
 55 48  1  0  0  0  0
 89 82  1  0  0  0  0
 97 90  1  0  0  0  0
128122  1  0  0  0  0
135129  1  0  0  0  0
  1153  1  0  0  0  0
  6154  1  0  0  0  0
  7155  1  0  0  0  0
 20156  1  0  0  0  0
 21157  1  0  0  0  0
 24158  1  0  0  0  0
 24159  1  0  0  0  0
 24160  1  0  0  0  0
 25161  1  0  0  0  0
 26162  1  0  0  0  0
 28163  1  0  0  0  0
 29164  1  0  0  0  0
 32165  1  0  0  0  0
 32166  1  0  0  0  0
 32167  1  0  0  0  0
 33168  1  0  0  0  0
 34169  1  0  0  0  0
 41170  1  0  0  0  0
 42171  1  0  0  0  0
 45172  1  0  0  0  0
 45173  1  0  0  0  0
 45174  1  0  0  0  0
 46175  1  0  0  0  0
 47176  1  0  0  0  0
 49177  1  0  0  0  0
 50178  1  0  0  0  0
 53179  1  0  0  0  0
 53180  1  0  0  0  0
 53181  1  0  0  0  0
 54182  1  0  0  0  0
 55183  1  0  0  0  0
 62184  1  0  0  0  0
 63185  1  0  0  0  0
 66186  1  0  0  0  0
 66187  1  0  0  0  0
 66188  1  0  0  0  0
 67189  1  0  0  0  0
 68190  1  0  0  0  0
 70191  1  0  0  0  0
 71192  1  0  0  0  0
 74193  1  0  0  0  0
 74194  1  0  0  0  0
 74195  1  0  0  0  0
 75196  1  0  0  0  0
 76197  1  0  0  0  0
 83198  1  0  0  0  0
 84199  1  0  0  0  0
 87200  1  0  0  0  0
 87201  1  0  0  0  0
 87202  1  0  0  0  0
 88203  1  0  0  0  0
 89204  1  0  0  0  0
 91205  1  0  0  0  0
 92206  1  0  0  0  0
 95207  1  0  0  0  0
 95208  1  0  0  0  0
 95209  1  0  0  0  0
 96210  1  0  0  0  0
 97211  1  0  0  0  0
104212  1  0  0  0  0
105213  1  0  0  0  0
107214  1  0  0  0  0
107215  1  0  0  0  0
107216  1  0  0  0  0
108217  1  0  0  0  0
109218  1  0  0  0  0
111219  1  0  0  0  0
112220  1  0  0  0  0
114221  1  0  0  0  0
114222  1  0  0  0  0
114223  1  0  0  0  0
115224  1  0  0  0  0
116225  1  0  0  0  0
123226  1  0  0  0  0
124227  1  0  0  0  0
126228  1  0  0  0  0
126229  1  0  0  0  0
126230  1  0  0  0  0
127231  1  0  0  0  0
128232  1  0  0  0  0
130233  1  0  0  0  0
131234  1  0  0  0  0
133235  1  0  0  0  0
133236  1  0  0  0  0
133237  1  0  0  0  0
134238  1  0  0  0  0
135239  1  0  0  0  0
138240  1  0  0  0  0
143241  1  0  0  0  0
144242  1  0  0  0  0
M  END
