
  xtb     02052218023D
 energy: -347.279511646927 gnorm: 0.000333665383 xtb: 6.4.1 (unknown)
202219  0     0  0            999 V2000
   -3.9201   -6.5118    1.8685 C   0  0  0  0  0  0  0  0  0  0  0  0
   -4.5458   -7.3311    0.9898 C   0  0  0  0  0  0  0  0  0  0  0  0
   -5.9085   -7.8861    1.2758 C   0  0  0  0  0  0  0  0  0  0  0  0
   -6.4656   -7.9131    2.3484 O   0  0  0  0  0  0  0  0  0  0  0  0
   -6.4124   -8.2920   -0.0429 C   0  0  0  0  0  0  0  0  0  0  0  0
   -7.6035   -8.7861   -0.6030 C   0  0  0  0  0  0  0  0  0  0  0  0
   -7.4650   -8.9932   -1.9432 C   0  0  0  0  0  0  0  0  0  0  0  0
   -5.8930   -8.6080   -2.5536 S   0  0  0  0  0  0  0  0  0  0  0  0
   -5.3998   -8.1412   -0.9842 C   0  0  0  0  0  0  0  0  0  0  0  0
   -4.1898   -7.6691   -0.3769 C   0  0  0  0  0  0  0  0  0  0  0  0
   -2.9277   -7.7845   -0.9035 C   0  0  0  0  0  0  0  0  0  0  0  0
   -2.7064   -8.3142   -2.1872 C   0  0  0  0  0  0  0  0  0  0  0  0
   -2.4975   -8.7648   -3.2226 N   0  0  0  0  0  0  0  0  0  0  0  0
   -1.7535   -7.4985   -0.1827 C   0  0  0  0  0  0  0  0  0  0  0  0
   -0.7678   -7.3077    0.3749 N   0  0  0  0  0  0  0  0  0  0  0  0
   -2.9719   -5.5040    1.5339 C   0  0  0  0  0  0  0  0  0  0  0  0
   -2.9714   -4.7059    0.4005 C   0  0  0  0  0  0  0  0  0  0  0  0
   -3.8907   -4.8131   -0.6697 N   0  0  0  0  0  0  0  0  0  0  0  0
   -3.4345   -5.1133   -1.9532 C   0  0  0  0  0  0  0  0  0  0  0  0
   -4.3757   -5.2870   -2.9739 C   0  0  0  0  0  0  0  0  0  0  0  0
   -3.9768   -5.6436   -4.2406 C   0  0  0  0  0  0  0  0  0  0  0  0
   -2.6297   -5.8533   -4.5219 C   0  0  0  0  0  0  0  0  0  0  0  0
   -2.1862   -6.3276   -6.1663 S   0  0  0  0  0  0  0  0  0  0  0  0
   -0.8306   -7.4979   -5.8515 C   0  0  0  0  0  0  0  0  0  0  0  0
   -1.6893   -5.6785   -3.5195 C   0  0  0  0  0  0  0  0  0  0  0  0
   -2.0864   -5.3204   -2.2455 C   0  0  0  0  0  0  0  0  0  0  0  0
   -4.9616   -3.8804   -0.5422 C   0  0  0  0  0  0  0  0  0  0  0  0
   -5.0344   -2.7558   -1.3627 C   0  0  0  0  0  0  0  0  0  0  0  0
   -6.0431   -1.8354   -1.1841 C   0  0  0  0  0  0  0  0  0  0  0  0
   -6.9961   -2.0175   -0.1824 C   0  0  0  0  0  0  0  0  0  0  0  0
   -8.2185   -0.7609   -0.0074 S   0  0  0  0  0  0  0  0  0  0  0  0
   -8.9148   -1.0815    1.6381 C   0  0  0  0  0  0  0  0  0  0  0  0
   -6.9382   -3.1502    0.6176 C   0  0  0  0  0  0  0  0  0  0  0  0
   -5.9198   -4.0680    0.4440 C   0  0  0  0  0  0  0  0  0  0  0  0
   -2.0482   -3.6515    0.5245 C   0  0  0  0  0  0  0  0  0  0  0  0
   -1.6032   -2.3578   -0.5202 S   0  0  0  0  0  0  0  0  0  0  0  0
   -0.4227   -1.8057    0.6585 C   0  0  0  0  0  0  0  0  0  0  0  0
   -0.3237   -2.6409    1.7576 C   0  0  0  0  0  0  0  0  0  0  0  0
    0.6892   -2.5275    2.6949 N   0  0  0  0  0  0  0  0  0  0  0  0
    0.5558   -3.0602    3.9810 C   0  0  0  0  0  0  0  0  0  0  0  0
   -0.6689   -3.0052    4.6458 C   0  0  0  0  0  0  0  0  0  0  0  0
   -0.8047   -3.5382    5.9080 C   0  0  0  0  0  0  0  0  0  0  0  0
    0.2789   -4.1370    6.5447 C   0  0  0  0  0  0  0  0  0  0  0  0
   -0.0171   -4.7809    8.1616 S   0  0  0  0  0  0  0  0  0  0  0  0
    1.5499   -5.5793    8.6091 C   0  0  0  0  0  0  0  0  0  0  0  0
    1.5032   -4.1870    5.8919 C   0  0  0  0  0  0  0  0  0  0  0  0
    1.6373   -3.6596    4.6227 C   0  0  0  0  0  0  0  0  0  0  0  0
    1.9629   -2.1404    2.2290 C   0  0  0  0  0  0  0  0  0  0  0  0
    2.4576   -2.6408    1.0290 C   0  0  0  0  0  0  0  0  0  0  0  0
    3.6966   -2.2574    0.5578 C   0  0  0  0  0  0  0  0  0  0  0  0
    4.4717   -1.3698    1.2899 C   0  0  0  0  0  0  0  0  0  0  0  0
    6.0733   -0.8305    0.7821 S   0  0  0  0  0  0  0  0  0  0  0  0
    6.3080   -1.6277   -0.8305 C   0  0  0  0  0  0  0  0  0  0  0  0
    3.9899   -0.8800    2.5027 C   0  0  0  0  0  0  0  0  0  0  0  0
    2.7495   -1.2607    2.9696 C   0  0  0  0  0  0  0  0  0  0  0  0
   -1.3007   -3.6677    1.6958 C   0  0  0  0  0  0  0  0  0  0  0  0
   -1.8001   -4.9645    2.7214 S   0  0  0  0  0  0  0  0  0  0  0  0
    0.2959   -0.5954    0.3554 C   0  0  0  0  0  0  0  0  0  0  0  0
    0.2310    0.6315    0.9876 C   0  0  0  0  0  0  0  0  0  0  0  0
   -0.4562    0.9123    2.1570 N   0  0  0  0  0  0  0  0  0  0  0  0
   -1.6686    0.2795    2.4486 C   0  0  0  0  0  0  0  0  0  0  0  0
   -2.5828   -0.0196    1.4371 C   0  0  0  0  0  0  0  0  0  0  0  0
   -3.7293   -0.7318    1.7189 C   0  0  0  0  0  0  0  0  0  0  0  0
   -4.0003   -1.1294    3.0233 C   0  0  0  0  0  0  0  0  0  0  0  0
   -5.4540   -2.0937    3.3244 S   0  0  0  0  0  0  0  0  0  0  0  0
   -4.9015   -3.2089    4.6525 C   0  0  0  0  0  0  0  0  0  0  0  0
   -3.1437   -0.7523    4.0485 C   0  0  0  0  0  0  0  0  0  0  0  0
   -1.9797   -0.0668    3.7615 C   0  0  0  0  0  0  0  0  0  0  0  0
    0.0654    1.8828    3.0251 C   0  0  0  0  0  0  0  0  0  0  0  0
   -0.7833    2.7528    3.7109 C   0  0  0  0  0  0  0  0  0  0  0  0
   -0.2631    3.7081    4.5534 C   0  0  0  0  0  0  0  0  0  0  0  0
    1.1152    3.8279    4.7269 C   0  0  0  0  0  0  0  0  0  0  0  0
    1.6605    5.0892    5.8349 S   0  0  0  0  0  0  0  0  0  0  0  0
    3.4680    5.0678    5.6631 C   0  0  0  0  0  0  0  0  0  0  0  0
    1.9630    2.9673    4.0450 C   0  0  0  0  0  0  0  0  0  0  0  0
    1.4404    2.0031    3.2047 C   0  0  0  0  0  0  0  0  0  0  0  0
    0.9390    1.6176    0.2489 C   0  0  0  0  0  0  0  0  0  0  0  0
    1.1283    3.3320    0.3820 S   0  0  0  0  0  0  0  0  0  0  0  0
    1.9864    3.3839   -1.1487 C   0  0  0  0  0  0  0  0  0  0  0  0
    2.1573    2.1400   -1.6948 C   0  0  0  0  0  0  0  0  0  0  0  0
    2.8456    1.8341   -2.8814 N   0  0  0  0  0  0  0  0  0  0  0  0
    4.2400    1.7586   -2.8143 C   0  0  0  0  0  0  0  0  0  0  0  0
    4.9966    1.6753   -3.9854 C   0  0  0  0  0  0  0  0  0  0  0  0
    6.3654    1.5332   -3.9232 C   0  0  0  0  0  0  0  0  0  0  0  0
    7.0177    1.4898   -2.6921 C   0  0  0  0  0  0  0  0  0  0  0  0
    8.7705    1.2422   -2.7201 S   0  0  0  0  0  0  0  0  0  0  0  0
    9.2540    1.3325   -0.9707 C   0  0  0  0  0  0  0  0  0  0  0  0
    6.2781    1.6291   -1.5284 C   0  0  0  0  0  0  0  0  0  0  0  0
    4.9048    1.7574   -1.5905 C   0  0  0  0  0  0  0  0  0  0  0  0
    2.1038    1.0007   -3.7442 C   0  0  0  0  0  0  0  0  0  0  0  0
    2.5908   -0.2070   -4.2340 C   0  0  0  0  0  0  0  0  0  0  0  0
    1.7784   -1.0452   -4.9740 C   0  0  0  0  0  0  0  0  0  0  0  0
    0.4579   -0.6985   -5.2248 C   0  0  0  0  0  0  0  0  0  0  0  0
   -0.6830   -1.7228   -6.1015 S   0  0  0  0  0  0  0  0  0  0  0  0
    0.0934   -3.3621   -6.0523 C   0  0  0  0  0  0  0  0  0  0  0  0
   -0.0229    0.5264   -4.7665 C   0  0  0  0  0  0  0  0  0  0  0  0
    0.7884    1.3656   -4.0383 C   0  0  0  0  0  0  0  0  0  0  0  0
    1.5292    1.1412   -0.9041 C   0  0  0  0  0  0  0  0  0  0  0  0
    1.2179   -0.5351   -1.1445 S   0  0  0  0  0  0  0  0  0  0  0  0
    2.1606    4.6992   -1.7710 C   0  0  0  0  0  0  0  0  0  0  0  0
    1.0422    5.2589   -2.3582 C   0  0  0  0  0  0  0  0  0  0  0  0
   -0.0936    4.5454   -2.4203 F   0  0  0  0  0  0  0  0  0  0  0  0
    1.0368    6.5457   -2.9110 C   0  0  0  0  0  0  0  0  0  0  0  0
   -0.0717    6.9640   -3.5339 F   0  0  0  0  0  0  0  0  0  0  0  0
    2.1577    7.3468   -2.8573 C   0  0  0  0  0  0  0  0  0  0  0  0
    3.3324    6.7879   -2.2905 C   0  0  0  0  0  0  0  0  0  0  0  0
    4.4186    7.5720   -2.1787 N   0  0  0  0  0  0  0  0  0  0  0  0
    5.5177    7.0738   -1.6760 C   0  0  0  0  0  0  0  0  0  0  0  0
    6.6330    8.0471   -1.4478 C   0  0  0  0  0  0  0  0  0  0  0  0
    6.5558    8.5888   -0.0172 C   0  0  0  0  0  0  0  0  0  0  0  0
    5.5839    5.6933   -1.3145 C   0  0  0  0  0  0  0  0  0  0  0  0
    4.5129    4.9411   -1.3330 N   0  0  0  0  0  0  0  0  0  0  0  0
    3.3541    5.4619   -1.7803 C   0  0  0  0  0  0  0  0  0  0  0  0
    6.8793    5.0273   -0.9735 C   0  0  0  0  0  0  0  0  0  0  0  0
    7.6790    4.7878   -2.2577 C   0  0  0  0  0  0  0  0  0  0  0  0
    2.1910    8.7029   -3.3713 C   0  0  0  0  0  0  0  0  0  0  0  0
    1.2517    9.6343   -3.1216 C   0  0  0  0  0  0  0  0  0  0  0  0
    0.1332    9.4882   -2.1231 C   0  0  0  0  0  0  0  0  0  0  0  0
   -0.0345    8.5775   -1.3477 O   0  0  0  0  0  0  0  0  0  0  0  0
   -0.6264   10.7375   -2.2301 C   0  0  0  0  0  0  0  0  0  0  0  0
   -1.7757   11.3082   -1.6593 C   0  0  0  0  0  0  0  0  0  0  0  0
   -1.9945   12.5612   -2.1513 C   0  0  0  0  0  0  0  0  0  0  0  0
   -0.8154   13.0782   -3.3024 S   0  0  0  0  0  0  0  0  0  0  0  0
    0.0036   11.5809   -3.1386 C   0  0  0  0  0  0  0  0  0  0  0  0
    1.1777   10.9792   -3.6975 C   0  0  0  0  0  0  0  0  0  0  0  0
    2.0228   11.5716   -4.5974 C   0  0  0  0  0  0  0  0  0  0  0  0
    3.1821   10.9871   -5.1430 C   0  0  0  0  0  0  0  0  0  0  0  0
    4.1400   10.5721   -5.6206 N   0  0  0  0  0  0  0  0  0  0  0  0
    1.7834   12.8863   -5.0526 C   0  0  0  0  0  0  0  0  0  0  0  0
    1.5949   13.9554   -5.4230 N   0  0  0  0  0  0  0  0  0  0  0  0
   -4.2610   -6.5389    2.8978 H   0  0  0  0  0  0  0  0  0  0  0  0
   -8.5042   -8.9778   -0.0498 H   0  0  0  0  0  0  0  0  0  0  0  0
   -8.2031   -9.3639   -2.6273 H   0  0  0  0  0  0  0  0  0  0  0  0
   -5.4236   -5.1433   -2.7555 H   0  0  0  0  0  0  0  0  0  0  0  0
   -4.7062   -5.7805   -5.0234 H   0  0  0  0  0  0  0  0  0  0  0  0
   -0.7270   -8.0895   -6.7552 H   0  0  0  0  0  0  0  0  0  0  0  0
    0.0955   -6.9659   -5.6521 H   0  0  0  0  0  0  0  0  0  0  0  0
   -1.1138   -8.1300   -5.0149 H   0  0  0  0  0  0  0  0  0  0  0  0
   -0.6396   -5.8296   -3.7166 H   0  0  0  0  0  0  0  0  0  0  0  0
   -1.3363   -5.1954   -1.4797 H   0  0  0  0  0  0  0  0  0  0  0  0
   -4.2867   -2.6006   -2.1267 H   0  0  0  0  0  0  0  0  0  0  0  0
   -6.0933   -0.9540   -1.8048 H   0  0  0  0  0  0  0  0  0  0  0  0
   -9.5461   -1.9650    1.6154 H   0  0  0  0  0  0  0  0  0  0  0  0
   -9.5144   -0.2089    1.8780 H   0  0  0  0  0  0  0  0  0  0  0  0
   -8.1056   -1.1897    2.3542 H   0  0  0  0  0  0  0  0  0  0  0  0
   -7.6706   -3.3271    1.3870 H   0  0  0  0  0  0  0  0  0  0  0  0
   -5.8726   -4.9342    1.0849 H   0  0  0  0  0  0  0  0  0  0  0  0
   -1.5060   -2.5215    4.1706 H   0  0  0  0  0  0  0  0  0  0  0  0
   -1.7542   -3.4943    6.4194 H   0  0  0  0  0  0  0  0  0  0  0  0
    1.7951   -6.3457    7.8798 H   0  0  0  0  0  0  0  0  0  0  0  0
    2.3393   -4.8371    8.6857 H   0  0  0  0  0  0  0  0  0  0  0  0
    1.3783   -6.0347    9.5794 H   0  0  0  0  0  0  0  0  0  0  0  0
    2.3634   -4.6430    6.3546 H   0  0  0  0  0  0  0  0  0  0  0  0
    2.5920   -3.7218    4.1223 H   0  0  0  0  0  0  0  0  0  0  0  0
    1.8689   -3.3423    0.4569 H   0  0  0  0  0  0  0  0  0  0  0  0
    4.0415   -2.6650   -0.3777 H   0  0  0  0  0  0  0  0  0  0  0  0
    6.3076   -2.7076   -0.7133 H   0  0  0  0  0  0  0  0  0  0  0  0
    7.2781   -1.3018   -1.1917 H   0  0  0  0  0  0  0  0  0  0  0  0
    5.5353   -1.2968   -1.5185 H   0  0  0  0  0  0  0  0  0  0  0  0
    4.6010   -0.1966    3.0729 H   0  0  0  0  0  0  0  0  0  0  0  0
    2.3810   -0.8844    3.9125 H   0  0  0  0  0  0  0  0  0  0  0  0
   -2.3857    0.3037    0.4263 H   0  0  0  0  0  0  0  0  0  0  0  0
   -4.4205   -0.9878    0.9305 H   0  0  0  0  0  0  0  0  0  0  0  0
   -5.6191   -4.0231    4.6748 H   0  0  0  0  0  0  0  0  0  0  0  0
   -4.9032   -2.6953    5.6093 H   0  0  0  0  0  0  0  0  0  0  0  0
   -3.9124   -3.5885    4.4135 H   0  0  0  0  0  0  0  0  0  0  0  0
   -3.3666   -1.0075    5.0729 H   0  0  0  0  0  0  0  0  0  0  0  0
   -1.2972    0.1872    4.5587 H   0  0  0  0  0  0  0  0  0  0  0  0
   -1.8511    2.6796    3.5702 H   0  0  0  0  0  0  0  0  0  0  0  0
   -0.9183    4.3840    5.0808 H   0  0  0  0  0  0  0  0  0  0  0  0
    3.7410    5.2394    4.6260 H   0  0  0  0  0  0  0  0  0  0  0  0
    3.8687    4.1265    6.0283 H   0  0  0  0  0  0  0  0  0  0  0  0
    3.8293    5.8840    6.2808 H   0  0  0  0  0  0  0  0  0  0  0  0
    3.0331    3.0284    4.1598 H   0  0  0  0  0  0  0  0  0  0  0  0
    2.1087    1.3317    2.6859 H   0  0  0  0  0  0  0  0  0  0  0  0
    4.4997    1.7110   -4.9432 H   0  0  0  0  0  0  0  0  0  0  0  0
    6.9462    1.4523   -4.8295 H   0  0  0  0  0  0  0  0  0  0  0  0
   10.3309    1.1946   -0.9616 H   0  0  0  0  0  0  0  0  0  0  0  0
    9.0029    2.3078   -0.5643 H   0  0  0  0  0  0  0  0  0  0  0  0
    8.7774    0.5407   -0.3998 H   0  0  0  0  0  0  0  0  0  0  0  0
    6.7502    1.6062   -0.5602 H   0  0  0  0  0  0  0  0  0  0  0  0
    4.3488    1.8379   -0.6697 H   0  0  0  0  0  0  0  0  0  0  0  0
    3.6050   -0.5082   -4.0167 H   0  0  0  0  0  0  0  0  0  0  0  0
    2.1845   -1.9772   -5.3339 H   0  0  0  0  0  0  0  0  0  0  0  0
   -0.6694   -4.0559   -6.3946 H   0  0  0  0  0  0  0  0  0  0  0  0
    0.3769   -3.5916   -5.0293 H   0  0  0  0  0  0  0  0  0  0  0  0
    0.9501   -3.3974   -6.7193 H   0  0  0  0  0  0  0  0  0  0  0  0
   -1.0441    0.8028   -4.9779 H   0  0  0  0  0  0  0  0  0  0  0  0
    0.3994    2.3015   -3.6678 H   0  0  0  0  0  0  0  0  0  0  0  0
    7.6046    7.5845   -1.6125 H   0  0  0  0  0  0  0  0  0  0  0  0
    6.5079    8.8726   -2.1490 H   0  0  0  0  0  0  0  0  0  0  0  0
    5.6012    9.0838    0.1434 H   0  0  0  0  0  0  0  0  0  0  0  0
    6.6522    7.7846    0.7096 H   0  0  0  0  0  0  0  0  0  0  0  0
    7.3534    9.3074    0.1522 H   0  0  0  0  0  0  0  0  0  0  0  0
    7.4579    5.6408   -0.2815 H   0  0  0  0  0  0  0  0  0  0  0  0
    6.6525    4.0710   -0.5031 H   0  0  0  0  0  0  0  0  0  0  0  0
    7.8786    5.7205   -2.7797 H   0  0  0  0  0  0  0  0  0  0  0  0
    8.6305    4.3146   -2.0298 H   0  0  0  0  0  0  0  0  0  0  0  0
    7.1200    4.1381   -2.9262 H   0  0  0  0  0  0  0  0  0  0  0  0
    3.0628    8.9460   -3.9638 H   0  0  0  0  0  0  0  0  0  0  0  0
   -2.4028   10.8201   -0.9366 H   0  0  0  0  0  0  0  0  0  0  0  0
   -2.7957   13.2300   -1.9034 H   0  0  0  0  0  0  0  0  0  0  0  0
  1  2  2  0  0  0  0
  2  3  1  0  0  0  0
  3  4  2  0  0  0  0
  3  5  1  0  0  0  0
  5  6  1  0  0  0  0
  6  7  2  0  0  0  0
  7  8  1  0  0  0  0
  8  9  1  0  0  0  0
  9 10  1  0  0  0  0
 10 11  2  0  0  0  0
 11 12  1  0  0  0  0
 12 13  3  0  0  0  0
 11 14  1  0  0  0  0
 14 15  3  0  0  0  0
  1 16  1  0  0  0  0
 16 17  2  0  0  0  0
 17 18  1  0  0  0  0
 18 19  1  0  0  0  0
 19 20  2  0  0  0  0
 20 21  1  0  0  0  0
 21 22  2  0  0  0  0
 22 23  1  0  0  0  0
 23 24  1  0  0  0  0
 22 25  1  0  0  0  0
 25 26  2  0  0  0  0
 18 27  1  0  0  0  0
 27 28  2  0  0  0  0
 28 29  1  0  0  0  0
 29 30  2  0  0  0  0
 30 31  1  0  0  0  0
 31 32  1  0  0  0  0
 30 33  1  0  0  0  0
 33 34  2  0  0  0  0
 17 35  1  0  0  0  0
 35 36  1  0  0  0  0
 36 37  1  0  0  0  0
 37 38  2  0  0  0  0
 38 39  1  0  0  0  0
 39 40  1  0  0  0  0
 40 41  2  0  0  0  0
 41 42  1  0  0  0  0
 42 43  2  0  0  0  0
 43 44  1  0  0  0  0
 44 45  1  0  0  0  0
 43 46  1  0  0  0  0
 46 47  2  0  0  0  0
 39 48  1  0  0  0  0
 48 49  2  0  0  0  0
 49 50  1  0  0  0  0
 50 51  2  0  0  0  0
 51 52  1  0  0  0  0
 52 53  1  0  0  0  0
 51 54  1  0  0  0  0
 54 55  2  0  0  0  0
 38 56  1  0  0  0  0
 56 57  1  0  0  0  0
 37 58  1  0  0  0  0
 58 59  2  0  0  0  0
 59 60  1  0  0  0  0
 60 61  1  0  0  0  0
 61 62  2  0  0  0  0
 62 63  1  0  0  0  0
 63 64  2  0  0  0  0
 64 65  1  0  0  0  0
 65 66  1  0  0  0  0
 64 67  1  0  0  0  0
 67 68  2  0  0  0  0
 60 69  1  0  0  0  0
 69 70  2  0  0  0  0
 70 71  1  0  0  0  0
 71 72  2  0  0  0  0
 72 73  1  0  0  0  0
 73 74  1  0  0  0  0
 72 75  1  0  0  0  0
 75 76  2  0  0  0  0
 59 77  1  0  0  0  0
 77 78  1  0  0  0  0
 78 79  1  0  0  0  0
 79 80  2  0  0  0  0
 80 81  1  0  0  0  0
 81 82  1  0  0  0  0
 82 83  2  0  0  0  0
 83 84  1  0  0  0  0
 84 85  2  0  0  0  0
 85 86  1  0  0  0  0
 86 87  1  0  0  0  0
 85 88  1  0  0  0  0
 88 89  2  0  0  0  0
 81 90  1  0  0  0  0
 90 91  2  0  0  0  0
 91 92  1  0  0  0  0
 92 93  2  0  0  0  0
 93 94  1  0  0  0  0
 94 95  1  0  0  0  0
 93 96  1  0  0  0  0
 96 97  2  0  0  0  0
 80 98  1  0  0  0  0
 98 99  1  0  0  0  0
 79100  1  0  0  0  0
100101  2  0  0  0  0
101102  1  0  0  0  0
101103  1  0  0  0  0
103104  1  0  0  0  0
103105  2  0  0  0  0
105106  1  0  0  0  0
106107  2  0  0  0  0
107108  1  0  0  0  0
108109  1  0  0  0  0
109110  1  0  0  0  0
108111  2  0  0  0  0
111112  1  0  0  0  0
112113  2  0  0  0  0
111114  1  0  0  0  0
114115  1  0  0  0  0
105116  1  0  0  0  0
116117  2  0  0  0  0
117118  1  0  0  0  0
118119  2  0  0  0  0
118120  1  0  0  0  0
120121  1  0  0  0  0
121122  2  0  0  0  0
122123  1  0  0  0  0
123124  1  0  0  0  0
124125  1  0  0  0  0
125126  2  0  0  0  0
126127  1  0  0  0  0
127128  3  0  0  0  0
126129  1  0  0  0  0
129130  3  0  0  0  0
 10  2  1  0  0  0  0
 57 16  1  0  0  0  0
 99 58  1  0  0  0  0
113100  1  0  0  0  0
125117  1  0  0  0  0
  9  5  2  0  0  0  0
 26 19  1  0  0  0  0
 34 27  1  0  0  0  0
 56 35  2  0  0  0  0
 68 61  1  0  0  0  0
 76 69  1  0  0  0  0
 98 77  2  0  0  0  0
113106  1  0  0  0  0
124120  2  0  0  0  0
 47 40  1  0  0  0  0
 55 48  1  0  0  0  0
 89 82  1  0  0  0  0
 97 90  1  0  0  0  0
  1131  1  0  0  0  0
  6132  1  0  0  0  0
  7133  1  0  0  0  0
 20134  1  0  0  0  0
 21135  1  0  0  0  0
 24136  1  0  0  0  0
 24137  1  0  0  0  0
 24138  1  0  0  0  0
 25139  1  0  0  0  0
 26140  1  0  0  0  0
 28141  1  0  0  0  0
 29142  1  0  0  0  0
 32143  1  0  0  0  0
 32144  1  0  0  0  0
 32145  1  0  0  0  0
 33146  1  0  0  0  0
 34147  1  0  0  0  0
 41148  1  0  0  0  0
 42149  1  0  0  0  0
 45150  1  0  0  0  0
 45151  1  0  0  0  0
 45152  1  0  0  0  0
 46153  1  0  0  0  0
 47154  1  0  0  0  0
 49155  1  0  0  0  0
 50156  1  0  0  0  0
 53157  1  0  0  0  0
 53158  1  0  0  0  0
 53159  1  0  0  0  0
 54160  1  0  0  0  0
 55161  1  0  0  0  0
 62162  1  0  0  0  0
 63163  1  0  0  0  0
 66164  1  0  0  0  0
 66165  1  0  0  0  0
 66166  1  0  0  0  0
 67167  1  0  0  0  0
 68168  1  0  0  0  0
 70169  1  0  0  0  0
 71170  1  0  0  0  0
 74171  1  0  0  0  0
 74172  1  0  0  0  0
 74173  1  0  0  0  0
 75174  1  0  0  0  0
 76175  1  0  0  0  0
 83176  1  0  0  0  0
 84177  1  0  0  0  0
 87178  1  0  0  0  0
 87179  1  0  0  0  0
 87180  1  0  0  0  0
 88181  1  0  0  0  0
 89182  1  0  0  0  0
 91183  1  0  0  0  0
 92184  1  0  0  0  0
 95185  1  0  0  0  0
 95186  1  0  0  0  0
 95187  1  0  0  0  0
 96188  1  0  0  0  0
 97189  1  0  0  0  0
109190  1  0  0  0  0
109191  1  0  0  0  0
110192  1  0  0  0  0
110193  1  0  0  0  0
110194  1  0  0  0  0
114195  1  0  0  0  0
114196  1  0  0  0  0
115197  1  0  0  0  0
115198  1  0  0  0  0
115199  1  0  0  0  0
116200  1  0  0  0  0
121201  1  0  0  0  0
122202  1  0  0  0  0
M  END
