238

C          5.52980        7.06420        2.54100
C          6.38120        6.51700        3.43900
C          6.73900        5.06050        3.44180
O          6.32730        4.21290        2.68390
C          7.79560        4.93940        4.45230
C          8.59810        3.92750        5.00400
C          9.43360        4.43150        5.95620
S          9.27580        6.13530        6.19560
C          8.05730        6.19220        4.99120
C          7.22450        7.20400        4.40740
C          7.19370        8.52670        4.76550
C          6.31580        9.48250        4.22010
N          5.61650       10.29730        3.81390
C          8.06370        9.03000        5.75460
N          8.77290        9.44050        6.55770
C          4.55800        6.28040        1.83450
C          3.55070        5.52640        2.41440
N          3.33970        5.41960        3.79770
C          2.47480        6.31000        4.42420
C          2.04360        7.46750        3.77410
C          1.17870        8.34200        4.39950
C          0.71310        8.10350        5.68680
C         -0.20240        9.07880        6.36140
C          1.13460        6.94470        6.32530
C          1.99230        6.05450        5.70890
C          4.06010        4.44210        4.50830
C          4.75320        4.77080        5.66960
C          5.47910        3.80590        6.34100
C          5.55040        2.50290        5.86430
C          6.32960        1.45730        6.60250
C          4.86790        2.18900        4.69570
C          4.12710        3.14070        4.02340
C          2.70600        4.97800        1.42910
S          1.32550        3.94660        1.48080
C          1.33010        3.83500       -0.27960
C          2.28860        4.64180       -0.86900
N          2.46800        4.85540       -2.22310
C          3.80210        5.01420       -2.65150
C          4.76880        4.11510       -2.21090
C          6.08560        4.26530       -2.59990
C          6.47030        5.30580       -3.43510
C          7.89210        5.45630       -3.88110
C          5.49870        6.20460       -3.86210
C          4.18130        6.07100       -3.47350
C          1.39750        5.02040       -3.10570
C          1.59450        4.90160       -4.48020
C          0.54340        5.07570       -5.35830
C         -0.73960        5.34720       -4.90530
C         -1.88640        5.52030       -5.85490
C         -0.93020        5.47360       -3.53420
C          0.11640        5.32790       -2.64720
C          3.07920        5.27590        0.12580
S          4.44910        6.32810        0.09160
C          0.48030        2.83570       -0.84970
C          0.78460        1.88280       -1.79690
N          2.04820        1.73730       -2.41670
C          2.83490        0.77300       -1.73790
C          3.30480       -0.37080       -2.37540
C          3.98870       -1.34480       -1.67320
C          4.20400       -1.20060       -0.31060
S          5.01660       -2.40350        0.69840
C          5.28170       -3.80660       -0.42190
C          3.75280       -0.05050        0.33120
C          3.07860        0.92220       -0.37250
C          2.14220        1.83710       -3.80880
C          1.02180        1.91610       -4.62890
C          1.15620        2.03130       -5.99980
C          2.41390        2.08500       -6.57700
S          2.69730        2.25530       -8.31520
C          1.05960        1.96330       -9.04430
C          3.54140        2.03170       -5.75960
C          3.40850        1.90740       -4.39650
C         -0.21110        0.87710       -1.84590
S         -0.33360       -0.63830       -2.66300
C         -1.69790       -1.10070       -1.65090
C         -2.03820       -0.11630       -0.75400
N         -2.87180       -0.27990        0.35700
C         -2.26490        0.15510        1.55120
C         -2.88550        1.05800        2.40850
C         -2.17280        1.64120        3.43790
C         -0.82690        1.34590        3.61330
S          0.19220        2.18180        4.79260
C         -0.63460        3.79420        4.91680
C         -0.23150        0.36930        2.82020
C         -0.94610       -0.22930        1.80730
C         -4.24010       -0.49850        0.24980
C         -4.93610       -0.12800       -0.89670
C         -6.29990       -0.32820       -0.98810
C         -6.99260       -0.90850        0.06330
S         -8.73300       -1.21050        0.05050
C         -9.24510       -0.75710       -1.62970
C         -6.29900       -1.28570        1.21180
C         -4.94030       -1.08610        1.30600
C         -1.22150        1.03280       -0.91620
S         -1.04810        2.51390       -0.04600
C         -2.09820       -2.48670       -1.57940
C         -3.16490       -3.17480       -2.11380
N         -4.13690       -2.64130       -2.94280
C         -5.45890       -3.08970       -2.79560
C         -6.29950       -3.21140       -3.89820
C         -7.59940       -3.65030       -3.73490
C         -8.09020       -3.99880       -2.48240
C         -9.49550       -4.48440       -2.30200
C         -7.23790       -3.89320       -1.38950
C         -5.94490       -3.43560       -1.53610
C         -3.79440       -1.67390       -3.89690
C         -4.67690       -0.64540       -4.22200
C         -4.31530        0.32570       -5.13320
C         -3.07100        0.30590       -5.75190
C         -2.66770        1.39300       -6.70120
C         -2.20860       -0.74020       -5.45140
C         -2.56280       -1.72130       -4.54570
C         -3.13870       -4.53520       -1.69830
S         -4.11480       -5.91160       -2.04970
C         -3.10610       -6.92880       -1.00600
C         -2.00250       -6.22360       -0.49020
N         -0.93000       -6.72440        0.19140
C         -0.51190       -8.05760        0.11660
C         -0.57550       -8.77780       -1.07610
C         -0.20230      -10.10500       -1.10720
C          0.24910      -10.75570        0.03850
C          0.58080      -12.21430        0.00270
C          0.36240      -10.01700        1.20910
C         -0.01030       -8.68720        1.25480
C         -0.17210       -5.83670        0.99360
C         -0.80480       -5.01300        1.91830
C         -0.06420       -4.10790        2.65480
C          1.31240       -4.01220        2.49540
C          2.11990       -3.02470        3.27730
C          1.93790       -4.87020        1.59550
C          1.21030       -5.77420        0.84810
C         -2.07210       -4.86240       -0.87750
S         -1.03860       -3.50540       -0.61500
C         -3.49430       -8.26670       -0.86440
C         -3.17120       -9.08770        0.18980
C         -2.84170       -8.60870        1.55200
O         -2.80960       -7.45660        1.93830
C         -2.69380       -9.83330        2.36030
C         -2.37500      -10.18470        3.68150
C         -2.34680      -11.54010        3.83390
S         -2.70940      -12.41090        2.38770
C         -2.91410      -10.93200        1.54760
C         -3.20890      -10.53050        0.19760
C         -3.33480      -11.38270       -0.87280
C         -3.22860      -12.77520       -0.70070
N         -3.12080      -13.91040       -0.56360
C         -3.49810      -10.97210       -2.20710
N         -3.60180      -10.69380       -3.31690
H          5.53700        8.12970        2.34580
H          8.55030        2.89300        4.72050
H         10.15010        3.89660        6.54880
H          2.39050        7.68870        2.77600
H          0.86520        9.23460        3.87770
H         -0.65360        8.63980        7.24780
H          0.35260        9.96710        6.66420
H         -0.99320        9.39630        5.68410
H          0.78100        6.72570        7.32320
H          2.29250        5.15370        6.22390
H          4.72440        5.78690        6.03890
H          6.01140        4.07560        7.24290
H          6.76060        0.73560        5.91220
H          5.67140        0.91590        7.28300
H          7.12590        1.90760        7.19130
H          4.91630        1.18260        4.30660
H          3.60230        2.87950        3.11840
H          4.48290        3.30080       -1.56060
H          6.82390        3.55940       -2.24800
H          8.00670        5.07810       -4.89750
H          8.56420        4.89960       -3.23300
H          8.18730        6.50350       -3.88060
H          5.78180        7.02890       -4.50040
H          3.44150        6.78770       -3.79770
H          2.57240        4.65960       -4.86540
H          0.73070        4.98650       -6.41870
H         -2.75240        4.95080       -5.52080
H         -1.61500        5.19440       -6.85630
H         -2.17960        6.56910       -5.90610
H         -1.91540        5.70080       -3.15230
H         -0.06550        5.46830       -1.59280
H          3.11610       -0.51400       -3.42870
H          4.32840       -2.21950       -2.20390
H          5.72010       -4.59090        0.18770
H          5.97350       -3.52870       -1.21190
H          4.33010       -4.13820       -0.82750
H          3.93200        0.07150        1.38860
H          2.72480        1.79790        0.14580
H          0.02990        1.89660       -4.20470
H          0.26480        2.08380       -6.60200
H          0.38200        2.77390       -8.79130
H          0.67400        1.00650       -8.70490
H          1.21650        1.93890      -10.11810
H          4.52130        2.09280       -6.20800
H          4.28710        1.86880       -3.77130
H         -3.91610        1.33400        2.24180
H         -2.66770        2.35410        4.07780
H          0.09500        4.48170        5.33390
H         -1.49770        3.72990        5.57320
H         -0.91990        4.12060        3.92150
H          0.80300        0.11110        2.98560
H         -0.47200       -0.96710        1.17560
H         -4.40370        0.33440       -1.71530
H         -6.81580       -0.01020       -1.87950
H         -9.10190        0.30780       -1.79010
H        -10.30240       -0.99610       -1.68710
H         -8.69200       -1.35040       -2.35280
H         -6.84100       -1.74160        2.02620
H         -4.40630       -1.38280        2.19630
H         -5.93030       -2.96320       -4.88240
H         -8.24080       -3.73180       -4.60110
H        -10.11160       -4.22930       -3.16100
H         -9.50360       -5.56840       -2.18690
H         -9.93650       -4.05140       -1.40610
H         -7.59790       -4.15570       -0.40600
H         -5.30970       -3.33150       -0.66900
H         -5.64850       -0.61280       -3.75520
H         -5.01160        1.12010       -5.36230
H         -1.99310        1.00860       -7.46350
H         -2.15450        2.18870       -6.15820
H         -3.53800        1.82620       -7.18900
H         -1.24040       -0.79040       -5.92850
H         -1.88000       -2.53220       -4.33800
H         -0.92350       -8.29640       -1.97780
H         -0.27150      -10.65140       -2.03680
H         -0.33490      -12.80740       -0.01760
H          1.15450      -12.50580        0.87870
H          1.14980      -12.45890       -0.89180
H          0.72970      -10.49270        2.10710
H          0.06550       -8.13050        2.17670
H         -1.87140       -5.10260        2.05510
H         -0.56570       -3.46340        3.36200
H          2.73640       -3.54160        4.01250
H          1.47640       -2.32190        3.80020
H          2.78930       -2.47540        2.61770
H          3.00990       -4.81540        1.47600
H          1.70140       -6.42810        0.14130
H         -4.11620       -8.66320       -1.65830
H         -2.17150       -9.48240        4.46860
H         -2.12800      -12.09520        4.72520
