
  xtb     02082206453D
 energy: -323.583022107471 gnorm: 0.000576739704 xtb: 6.4.1 (unknown)
190206  0     0  0            999 V2000
    6.6463   -1.0580    6.6337 C   0  0  0  0  0  0  0  0  0  0  0  0
    7.2181   -1.2645    7.8579 C   0  0  0  0  0  0  0  0  0  0  0  0
    6.8211   -0.7184    9.1834 C   0  0  0  0  0  0  0  0  0  0  0  0
    5.8761   -0.0044    9.4552 O   0  0  0  0  0  0  0  0  0  0  0  0
    7.8366   -1.2142   10.1222 C   0  0  0  0  0  0  0  0  0  0  0  0
    8.1217   -1.1174   11.4947 C   0  0  0  0  0  0  0  0  0  0  0  0
    9.2393   -1.8317   11.8110 C   0  0  0  0  0  0  0  0  0  0  0  0
    9.9622   -2.6337   10.4619 S   0  0  0  0  0  0  0  0  0  0  0  0
    8.7477   -1.9994    9.4333 C   0  0  0  0  0  0  0  0  0  0  0  0
    8.4051   -2.0921    8.0412 C   0  0  0  0  0  0  0  0  0  0  0  0
    9.0636   -2.8840    7.1348 C   0  0  0  0  0  0  0  0  0  0  0  0
   10.2028   -3.6179    7.5270 C   0  0  0  0  0  0  0  0  0  0  0  0
   11.1380   -4.2076    7.8349 N   0  0  0  0  0  0  0  0  0  0  0  0
    8.7086   -3.0986    5.7907 C   0  0  0  0  0  0  0  0  0  0  0  0
    8.4768   -3.3436    4.6922 N   0  0  0  0  0  0  0  0  0  0  0  0
    5.4272   -0.4614    6.2622 C   0  0  0  0  0  0  0  0  0  0  0  0
    4.3707    0.0654    6.9826 C   0  0  0  0  0  0  0  0  0  0  0  0
    3.2395    0.3100    6.2085 C   0  0  0  0  0  0  0  0  0  0  0  0
    1.6837    0.8105    6.8843 S   0  0  0  0  0  0  0  0  0  0  0  0
    2.1495    2.4255    7.6007 C   0  0  0  0  0  0  0  0  0  0  0  0
    2.5303    3.4227    6.5259 C   0  0  0  0  0  0  0  0  0  0  0  0
    3.3900   -0.0482    4.8723 C   0  0  0  0  0  0  0  0  0  0  0  0
    5.0096   -0.5698    4.5609 S   0  0  0  0  0  0  0  0  0  0  0  0
    2.3844   -0.0422    3.8645 C   0  0  0  0  0  0  0  0  0  0  0  0
    2.0821   -1.0140    2.9147 C   0  0  0  0  0  0  0  0  0  0  0  0
    2.6655   -2.2592    2.8160 N   0  0  0  0  0  0  0  0  0  0  0  0
    2.6430   -2.9420    1.5902 C   0  0  0  0  0  0  0  0  0  0  0  0
    2.3652   -4.3089    1.5630 C   0  0  0  0  0  0  0  0  0  0  0  0
    2.2662   -4.9702    0.3607 C   0  0  0  0  0  0  0  0  0  0  0  0
    2.4331   -4.2813   -0.8390 C   0  0  0  0  0  0  0  0  0  0  0  0
    2.2097   -5.2072   -2.3260 S   0  0  0  0  0  0  0  0  0  0  0  0
    1.8173   -3.9197   -3.5466 C   0  0  0  0  0  0  0  0  0  0  0  0
    2.7682   -2.9351   -0.8157 C   0  0  0  0  0  0  0  0  0  0  0  0
    2.8797   -2.2727    0.3922 C   0  0  0  0  0  0  0  0  0  0  0  0
    3.2495   -2.8818    3.9321 C   0  0  0  0  0  0  0  0  0  0  0  0
    4.4700   -3.5453    3.7971 C   0  0  0  0  0  0  0  0  0  0  0  0
    5.1326   -4.0143    4.9097 C   0  0  0  0  0  0  0  0  0  0  0  0
    4.5918   -3.8264    6.1798 C   0  0  0  0  0  0  0  0  0  0  0  0
    5.5851   -4.3299    7.5515 S   0  0  0  0  0  0  0  0  0  0  0  0
    4.7424   -3.5931    8.9819 C   0  0  0  0  0  0  0  0  0  0  0  0
    3.3319   -3.2555    6.3094 C   0  0  0  0  0  0  0  0  0  0  0  0
    2.6639   -2.7938    5.1923 C   0  0  0  0  0  0  0  0  0  0  0  0
    1.0059   -0.5793    2.0965 C   0  0  0  0  0  0  0  0  0  0  0  0
    0.1996   -1.2181    0.7110 S   0  0  0  0  0  0  0  0  0  0  0  0
   -0.8078    0.2261    0.5798 C   0  0  0  0  0  0  0  0  0  0  0  0
   -0.5393    1.1393    1.5833 C   0  0  0  0  0  0  0  0  0  0  0  0
   -1.1140    2.3903    1.7409 N   0  0  0  0  0  0  0  0  0  0  0  0
   -1.1836    2.9223    3.0369 C   0  0  0  0  0  0  0  0  0  0  0  0
   -0.9195    4.2670    3.2829 C   0  0  0  0  0  0  0  0  0  0  0  0
   -0.9244    4.7650    4.5718 C   0  0  0  0  0  0  0  0  0  0  0  0
   -1.1773    3.9220    5.6454 C   0  0  0  0  0  0  0  0  0  0  0  0
   -1.1591    4.4293    7.3383 S   0  0  0  0  0  0  0  0  0  0  0  0
   -0.5654    6.1430    7.2759 C   0  0  0  0  0  0  0  0  0  0  0  0
   -1.4593    2.5799    5.4057 C   0  0  0  0  0  0  0  0  0  0  0  0
   -1.4699    2.0881    4.1204 C   0  0  0  0  0  0  0  0  0  0  0  0
   -1.4122    3.1823    0.6240 C   0  0  0  0  0  0  0  0  0  0  0  0
   -0.6389    3.1105   -0.5318 C   0  0  0  0  0  0  0  0  0  0  0  0
   -0.9647    3.8535   -1.6503 C   0  0  0  0  0  0  0  0  0  0  0  0
   -2.0541    4.7121   -1.6227 C   0  0  0  0  0  0  0  0  0  0  0  0
   -2.6017    5.6711   -2.9996 S   0  0  0  0  0  0  0  0  0  0  0  0
   -1.4938    5.1965   -4.3547 C   0  0  0  0  0  0  0  0  0  0  0  0
   -2.7946    4.8336   -0.4453 C   0  0  0  0  0  0  0  0  0  0  0  0
   -2.4890    4.0687    0.6574 C   0  0  0  0  0  0  0  0  0  0  0  0
    0.4896    0.6585    2.4361 C   0  0  0  0  0  0  0  0  0  0  0  0
    1.3076    1.3434    3.7869 S   0  0  0  0  0  0  0  0  0  0  0  0
   -1.5184    0.3486   -0.6642 C   0  0  0  0  0  0  0  0  0  0  0  0
   -2.8268    0.6528   -1.0067 C   0  0  0  0  0  0  0  0  0  0  0  0
   -3.8576    0.8810   -0.1241 N   0  0  0  0  0  0  0  0  0  0  0  0
   -3.8096    0.4239    1.2030 C   0  0  0  0  0  0  0  0  0  0  0  0
   -4.3347    1.2226    2.2147 C   0  0  0  0  0  0  0  0  0  0  0  0
   -4.3283    0.8003    3.5285 C   0  0  0  0  0  0  0  0  0  0  0  0
   -3.7755   -0.4313    3.8577 C   0  0  0  0  0  0  0  0  0  0  0  0
   -3.6490   -1.0502    5.5057 S   0  0  0  0  0  0  0  0  0  0  0  0
   -4.5339    0.1792    6.5049 C   0  0  0  0  0  0  0  0  0  0  0  0
   -3.2593   -1.2399    2.8467 C   0  0  0  0  0  0  0  0  0  0  0  0
   -3.2845   -0.8248    1.5329 C   0  0  0  0  0  0  0  0  0  0  0  0
   -5.0397    1.5197   -0.5489 C   0  0  0  0  0  0  0  0  0  0  0  0
   -6.2764    1.0052   -0.1698 C   0  0  0  0  0  0  0  0  0  0  0  0
   -7.4484    1.6202   -0.5630 C   0  0  0  0  0  0  0  0  0  0  0  0
   -7.4042    2.7645   -1.3498 C   0  0  0  0  0  0  0  0  0  0  0  0
   -8.8299    3.6387   -1.9110 S   0  0  0  0  0  0  0  0  0  0  0  0
  -10.2199    2.5919   -1.3924 C   0  0  0  0  0  0  0  0  0  0  0  0
   -6.1692    3.2844   -1.7282 C   0  0  0  0  0  0  0  0  0  0  0  0
   -5.0010    2.6694   -1.3350 C   0  0  0  0  0  0  0  0  0  0  0  0
   -2.9777    0.6644   -2.4216 C   0  0  0  0  0  0  0  0  0  0  0  0
   -4.3175    0.8732   -3.4919 S   0  0  0  0  0  0  0  0  0  0  0  0
   -3.2603    0.7224   -4.9032 C   0  0  0  0  0  0  0  0  0  0  0  0
   -1.9404    0.4041   -4.5368 C   0  0  0  0  0  0  0  0  0  0  0  0
   -0.9078    0.0539   -5.3670 N   0  0  0  0  0  0  0  0  0  0  0  0
   -1.1107   -0.4897   -6.6403 C   0  0  0  0  0  0  0  0  0  0  0  0
   -0.2860   -0.1052   -7.7003 C   0  0  0  0  0  0  0  0  0  0  0  0
   -0.5220   -0.5797   -8.9708 C   0  0  0  0  0  0  0  0  0  0  0  0
   -1.5828   -1.4506   -9.2187 C   0  0  0  0  0  0  0  0  0  0  0  0
   -1.8449   -1.9088  -10.8973 S   0  0  0  0  0  0  0  0  0  0  0  0
   -3.3079   -2.9779  -10.8485 C   0  0  0  0  0  0  0  0  0  0  0  0
   -2.3645   -1.8872   -8.1537 C   0  0  0  0  0  0  0  0  0  0  0  0
   -2.1282   -1.4107   -6.8808 C   0  0  0  0  0  0  0  0  0  0  0  0
    0.4166    0.2566   -4.9293 C   0  0  0  0  0  0  0  0  0  0  0  0
    0.7802    1.4560   -4.3177 C   0  0  0  0  0  0  0  0  0  0  0  0
    2.0568    1.6305   -3.8372 C   0  0  0  0  0  0  0  0  0  0  0  0
    3.0053    0.6164   -3.9704 C   0  0  0  0  0  0  0  0  0  0  0  0
    4.5913    0.9318   -3.2685 S   0  0  0  0  0  0  0  0  0  0  0  0
    5.5134   -0.6096   -3.5305 C   0  0  0  0  0  0  0  0  0  0  0  0
    2.6618   -0.5541   -4.6337 C   0  0  0  0  0  0  0  0  0  0  0  0
    1.3746   -0.7350   -5.1043 C   0  0  0  0  0  0  0  0  0  0  0  0
   -1.8158    0.3890   -3.1291 C   0  0  0  0  0  0  0  0  0  0  0  0
   -0.5096    0.0157   -2.0704 S   0  0  0  0  0  0  0  0  0  0  0  0
   -3.8471    0.9087   -6.1617 C   0  0  0  0  0  0  0  0  0  0  0  0
   -3.1909    1.3371   -7.2911 C   0  0  0  0  0  0  0  0  0  0  0  0
   -1.9570    2.1525   -7.2797 C   0  0  0  0  0  0  0  0  0  0  0  0
   -1.3387    2.5359   -6.3028 O   0  0  0  0  0  0  0  0  0  0  0  0
   -1.7208    2.5091   -8.6887 C   0  0  0  0  0  0  0  0  0  0  0  0
   -0.7716    3.2101   -9.4490 C   0  0  0  0  0  0  0  0  0  0  0  0
   -1.0743    3.1564  -10.7787 C   0  0  0  0  0  0  0  0  0  0  0  0
   -2.5086    2.2643  -11.1327 S   0  0  0  0  0  0  0  0  0  0  0  0
   -2.7271    1.9545   -9.4636 C   0  0  0  0  0  0  0  0  0  0  0  0
   -3.6523    1.2099   -8.6531 C   0  0  0  0  0  0  0  0  0  0  0  0
   -4.6656    0.4139   -9.1282 C   0  0  0  0  0  0  0  0  0  0  0  0
   -5.4360   -0.4499   -8.3308 C   0  0  0  0  0  0  0  0  0  0  0  0
   -6.0596   -1.2152   -7.7427 N   0  0  0  0  0  0  0  0  0  0  0  0
   -4.9495    0.3354  -10.5049 C   0  0  0  0  0  0  0  0  0  0  0  0
   -5.1877    0.2453  -11.6244 N   0  0  0  0  0  0  0  0  0  0  0  0
    7.1772   -1.4825    5.7896 H   0  0  0  0  0  0  0  0  0  0  0  0
    7.5382   -0.5571   12.2016 H   0  0  0  0  0  0  0  0  0  0  0  0
    9.6940   -1.9415   12.7761 H   0  0  0  0  0  0  0  0  0  0  0  0
    4.4131    0.2236    8.0447 H   0  0  0  0  0  0  0  0  0  0  0  0
    1.2572    2.7460    8.1377 H   0  0  0  0  0  0  0  0  0  0  0  0
    2.9619    2.2583    8.3068 H   0  0  0  0  0  0  0  0  0  0  0  0
    3.4059    3.0809    5.9764 H   0  0  0  0  0  0  0  0  0  0  0  0
    1.7114    3.5502    5.8203 H   0  0  0  0  0  0  0  0  0  0  0  0
    2.7622    4.3839    6.9810 H   0  0  0  0  0  0  0  0  0  0  0  0
    2.2056   -4.8382    2.4902 H   0  0  0  0  0  0  0  0  0  0  0  0
    2.0321   -6.0231    0.3334 H   0  0  0  0  0  0  0  0  0  0  0  0
    1.1241   -3.2055   -3.1127 H   0  0  0  0  0  0  0  0  0  0  0  0
    1.3539   -4.4334   -4.3832 H   0  0  0  0  0  0  0  0  0  0  0  0
    2.7268   -3.4288   -3.8784 H   0  0  0  0  0  0  0  0  0  0  0  0
    2.9336   -2.3867   -1.7296 H   0  0  0  0  0  0  0  0  0  0  0  0
    3.1516   -1.2275    0.4055 H   0  0  0  0  0  0  0  0  0  0  0  0
    4.9166   -3.6484    2.8202 H   0  0  0  0  0  0  0  0  0  0  0  0
    6.0975   -4.4855    4.8074 H   0  0  0  0  0  0  0  0  0  0  0  0
    4.5919   -2.5310    8.8129 H   0  0  0  0  0  0  0  0  0  0  0  0
    5.4091   -3.7443    9.8257 H   0  0  0  0  0  0  0  0  0  0  0  0
    3.8003   -4.1010    9.1660 H   0  0  0  0  0  0  0  0  0  0  0  0
    2.8614   -3.1506    7.2733 H   0  0  0  0  0  0  0  0  0  0  0  0
    1.6932   -2.3340    5.3064 H   0  0  0  0  0  0  0  0  0  0  0  0
   -0.6894    4.9279    2.4605 H   0  0  0  0  0  0  0  0  0  0  0  0
   -0.7081    5.8105    4.7226 H   0  0  0  0  0  0  0  0  0  0  0  0
   -0.4646    6.4555    8.3106 H   0  0  0  0  0  0  0  0  0  0  0  0
    0.4011    6.1799    6.7819 H   0  0  0  0  0  0  0  0  0  0  0  0
   -1.2920    6.7734    6.7714 H   0  0  0  0  0  0  0  0  0  0  0  0
   -1.6430    1.9217    6.2408 H   0  0  0  0  0  0  0  0  0  0  0  0
   -1.6793    1.0447    3.9492 H   0  0  0  0  0  0  0  0  0  0  0  0
    0.2346    2.4765   -0.5568 H   0  0  0  0  0  0  0  0  0  0  0  0
   -0.3516    3.7611   -2.5315 H   0  0  0  0  0  0  0  0  0  0  0  0
   -1.8010    5.8043   -5.2005 H   0  0  0  0  0  0  0  0  0  0  0  0
   -1.6162    4.1461   -4.6044 H   0  0  0  0  0  0  0  0  0  0  0  0
   -0.4651    5.4289   -4.0954 H   0  0  0  0  0  0  0  0  0  0  0  0
   -3.6306    5.5156   -0.4211 H   0  0  0  0  0  0  0  0  0  0  0  0
   -3.0845    4.1497    1.5540 H   0  0  0  0  0  0  0  0  0  0  0  0
   -4.7572    2.1841    1.9638 H   0  0  0  0  0  0  0  0  0  0  0  0
   -4.7385    1.4483    4.2854 H   0  0  0  0  0  0  0  0  0  0  0  0
   -5.5647    0.2533    6.1706 H   0  0  0  0  0  0  0  0  0  0  0  0
   -4.5022   -0.1973    7.5226 H   0  0  0  0  0  0  0  0  0  0  0  0
   -4.0301    1.1400    6.4523 H   0  0  0  0  0  0  0  0  0  0  0  0
   -2.8461   -2.2032    3.1043 H   0  0  0  0  0  0  0  0  0  0  0  0
   -2.9177   -1.4799    0.7578 H   0  0  0  0  0  0  0  0  0  0  0  0
   -6.3190    0.1137    0.4387 H   0  0  0  0  0  0  0  0  0  0  0  0
   -8.3878    1.1921   -0.2531 H   0  0  0  0  0  0  0  0  0  0  0  0
  -10.2743    2.5492   -0.3085 H   0  0  0  0  0  0  0  0  0  0  0  0
  -10.1158    1.6008   -1.8241 H   0  0  0  0  0  0  0  0  0  0  0  0
  -11.1095    3.0740   -1.7855 H   0  0  0  0  0  0  0  0  0  0  0  0
   -6.1330    4.1763   -2.3341 H   0  0  0  0  0  0  0  0  0  0  0  0
   -4.0521    3.0855   -1.6276 H   0  0  0  0  0  0  0  0  0  0  0  0
    0.5252    0.5838   -7.5200 H   0  0  0  0  0  0  0  0  0  0  0  0
    0.0994   -0.2645   -9.7949 H   0  0  0  0  0  0  0  0  0  0  0  0
   -3.0953   -3.8749  -10.2741 H   0  0  0  0  0  0  0  0  0  0  0  0
   -3.5070   -3.2389  -11.8832 H   0  0  0  0  0  0  0  0  0  0  0  0
   -4.1568   -2.4366  -10.4416 H   0  0  0  0  0  0  0  0  0  0  0  0
   -3.1681   -2.5899   -8.3026 H   0  0  0  0  0  0  0  0  0  0  0  0
   -2.7500   -1.7502   -6.0662 H   0  0  0  0  0  0  0  0  0  0  0  0
    0.0478    2.2432   -4.2471 H   0  0  0  0  0  0  0  0  0  0  0  0
    2.3417    2.5524   -3.3535 H   0  0  0  0  0  0  0  0  0  0  0  0
    5.6319   -0.8010   -4.5930 H   0  0  0  0  0  0  0  0  0  0  0  0
    5.0133   -1.4337   -3.0300 H   0  0  0  0  0  0  0  0  0  0  0  0
    6.4862   -0.4454   -3.0774 H   0  0  0  0  0  0  0  0  0  0  0  0
    3.3885   -1.3347   -4.7909 H   0  0  0  0  0  0  0  0  0  0  0  0
    1.1095   -1.6544   -5.6055 H   0  0  0  0  0  0  0  0  0  0  0  0
   -4.9132    0.7233   -6.2191 H   0  0  0  0  0  0  0  0  0  0  0  0
    0.0856    3.7154   -9.0436 H   0  0  0  0  0  0  0  0  0  0  0  0
   -0.5277    3.5928  -11.5917 H   0  0  0  0  0  0  0  0  0  0  0  0
  1  2  2  0  0  0  0
  2  3  1  0  0  0  0
  3  4  2  0  0  0  0
  3  5  1  0  0  0  0
  5  6  1  0  0  0  0
  6  7  2  0  0  0  0
  7  8  1  0  0  0  0
  8  9  1  0  0  0  0
  9 10  1  0  0  0  0
 10 11  2  0  0  0  0
 11 12  1  0  0  0  0
 12 13  3  0  0  0  0
 11 14  1  0  0  0  0
 14 15  3  0  0  0  0
  1 16  1  0  0  0  0
 16 17  2  0  0  0  0
 17 18  1  0  0  0  0
 18 19  1  0  0  0  0
 19 20  1  0  0  0  0
 20 21  1  0  0  0  0
 18 22  2  0  0  0  0
 22 23  1  0  0  0  0
 22 24  1  0  0  0  0
 24 25  2  0  0  0  0
 25 26  1  0  0  0  0
 26 27  1  0  0  0  0
 27 28  2  0  0  0  0
 28 29  1  0  0  0  0
 29 30  2  0  0  0  0
 30 31  1  0  0  0  0
 31 32  1  0  0  0  0
 30 33  1  0  0  0  0
 33 34  2  0  0  0  0
 26 35  1  0  0  0  0
 35 36  2  0  0  0  0
 36 37  1  0  0  0  0
 37 38  2  0  0  0  0
 38 39  1  0  0  0  0
 39 40  1  0  0  0  0
 38 41  1  0  0  0  0
 41 42  2  0  0  0  0
 25 43  1  0  0  0  0
 43 44  1  0  0  0  0
 44 45  1  0  0  0  0
 45 46  2  0  0  0  0
 46 47  1  0  0  0  0
 47 48  1  0  0  0  0
 48 49  2  0  0  0  0
 49 50  1  0  0  0  0
 50 51  2  0  0  0  0
 51 52  1  0  0  0  0
 52 53  1  0  0  0  0
 51 54  1  0  0  0  0
 54 55  2  0  0  0  0
 47 56  1  0  0  0  0
 56 57  2  0  0  0  0
 57 58  1  0  0  0  0
 58 59  2  0  0  0  0
 59 60  1  0  0  0  0
 60 61  1  0  0  0  0
 59 62  1  0  0  0  0
 62 63  2  0  0  0  0
 46 64  1  0  0  0  0
 64 65  1  0  0  0  0
 45 66  1  0  0  0  0
 66 67  2  0  0  0  0
 67 68  1  0  0  0  0
 68 69  1  0  0  0  0
 69 70  2  0  0  0  0
 70 71  1  0  0  0  0
 71 72  2  0  0  0  0
 72 73  1  0  0  0  0
 73 74  1  0  0  0  0
 72 75  1  0  0  0  0
 75 76  2  0  0  0  0
 68 77  1  0  0  0  0
 77 78  2  0  0  0  0
 78 79  1  0  0  0  0
 79 80  2  0  0  0  0
 80 81  1  0  0  0  0
 81 82  1  0  0  0  0
 80 83  1  0  0  0  0
 83 84  2  0  0  0  0
 67 85  1  0  0  0  0
 85 86  1  0  0  0  0
 86 87  1  0  0  0  0
 87 88  2  0  0  0  0
 88 89  1  0  0  0  0
 89 90  1  0  0  0  0
 90 91  2  0  0  0  0
 91 92  1  0  0  0  0
 92 93  2  0  0  0  0
 93 94  1  0  0  0  0
 94 95  1  0  0  0  0
 93 96  1  0  0  0  0
 96 97  2  0  0  0  0
 89 98  1  0  0  0  0
 98 99  2  0  0  0  0
 99100  1  0  0  0  0
100101  2  0  0  0  0
101102  1  0  0  0  0
102103  1  0  0  0  0
101104  1  0  0  0  0
104105  2  0  0  0  0
 88106  1  0  0  0  0
106107  1  0  0  0  0
 87108  1  0  0  0  0
108109  2  0  0  0  0
109110  1  0  0  0  0
110111  2  0  0  0  0
110112  1  0  0  0  0
112113  1  0  0  0  0
113114  2  0  0  0  0
114115  1  0  0  0  0
115116  1  0  0  0  0
116117  1  0  0  0  0
117118  2  0  0  0  0
118119  1  0  0  0  0
119120  3  0  0  0  0
118121  1  0  0  0  0
121122  3  0  0  0  0
 10  2  1  0  0  0  0
 23 16  1  0  0  0  0
 65 24  1  0  0  0  0
107 66  1  0  0  0  0
117109  1  0  0  0  0
  9  5  2  0  0  0  0
 34 27  1  0  0  0  0
 42 35  1  0  0  0  0
 64 43  2  0  0  0  0
 76 69  1  0  0  0  0
 84 77  1  0  0  0  0
106 85  2  0  0  0  0
116112  2  0  0  0  0
 55 48  1  0  0  0  0
 63 56  1  0  0  0  0
 97 90  1  0  0  0  0
105 98  1  0  0  0  0
  1123  1  0  0  0  0
  6124  1  0  0  0  0
  7125  1  0  0  0  0
 17126  1  0  0  0  0
 20127  1  0  0  0  0
 20128  1  0  0  0  0
 21129  1  0  0  0  0
 21130  1  0  0  0  0
 21131  1  0  0  0  0
 28132  1  0  0  0  0
 29133  1  0  0  0  0
 32134  1  0  0  0  0
 32135  1  0  0  0  0
 32136  1  0  0  0  0
 33137  1  0  0  0  0
 34138  1  0  0  0  0
 36139  1  0  0  0  0
 37140  1  0  0  0  0
 40141  1  0  0  0  0
 40142  1  0  0  0  0
 40143  1  0  0  0  0
 41144  1  0  0  0  0
 42145  1  0  0  0  0
 49146  1  0  0  0  0
 50147  1  0  0  0  0
 53148  1  0  0  0  0
 53149  1  0  0  0  0
 53150  1  0  0  0  0
 54151  1  0  0  0  0
 55152  1  0  0  0  0
 57153  1  0  0  0  0
 58154  1  0  0  0  0
 61155  1  0  0  0  0
 61156  1  0  0  0  0
 61157  1  0  0  0  0
 62158  1  0  0  0  0
 63159  1  0  0  0  0
 70160  1  0  0  0  0
 71161  1  0  0  0  0
 74162  1  0  0  0  0
 74163  1  0  0  0  0
 74164  1  0  0  0  0
 75165  1  0  0  0  0
 76166  1  0  0  0  0
 78167  1  0  0  0  0
 79168  1  0  0  0  0
 82169  1  0  0  0  0
 82170  1  0  0  0  0
 82171  1  0  0  0  0
 83172  1  0  0  0  0
 84173  1  0  0  0  0
 91174  1  0  0  0  0
 92175  1  0  0  0  0
 95176  1  0  0  0  0
 95177  1  0  0  0  0
 95178  1  0  0  0  0
 96179  1  0  0  0  0
 97180  1  0  0  0  0
 99181  1  0  0  0  0
100182  1  0  0  0  0
103183  1  0  0  0  0
103184  1  0  0  0  0
103185  1  0  0  0  0
104186  1  0  0  0  0
105187  1  0  0  0  0
108188  1  0  0  0  0
113189  1  0  0  0  0
114190  1  0  0  0  0
M  END
