
  xtb     02132204473D
 energy: -355.922772849685 gnorm: 0.000915704408 xtb: 6.4.1 (unknown)
212229  0     0  0            999 V2000
   -6.5741    1.2280    5.6039 C   0  0  0  0  0  0  0  0  0  0  0  0
   -6.5622    0.7925    6.9095 C   0  0  0  0  0  0  0  0  0  0  0  0
   -5.3382    0.4399    7.6532 C   0  0  0  0  0  0  0  0  0  0  0  0
   -4.1953    0.4370    7.2333 O   0  0  0  0  0  0  0  0  0  0  0  0
   -5.7753    0.2211    9.0457 C   0  0  0  0  0  0  0  0  0  0  0  0
   -5.0320   -0.1408   10.1480 C   0  0  0  0  0  0  0  0  0  0  0  0
   -5.6690   -0.3285   11.3719 C   0  0  0  0  0  0  0  0  0  0  0  0
   -4.8737   -0.7386   12.5706 C   0  0  0  0  0  0  0  0  0  0  0  0
   -7.0541   -0.1375   11.4715 C   0  0  0  0  0  0  0  0  0  0  0  0
   -7.7502   -0.3394   12.7798 C   0  0  0  0  0  0  0  0  0  0  0  0
   -7.7966    0.2394   10.3550 C   0  0  0  0  0  0  0  0  0  0  0  0
   -7.1623    0.4187    9.1398 C   0  0  0  0  0  0  0  0  0  0  0  0
   -7.6758    0.7571    7.8181 C   0  0  0  0  0  0  0  0  0  0  0  0
   -9.0000    0.8489    7.4657 C   0  0  0  0  0  0  0  0  0  0  0  0
   -9.4542    0.9678    6.1382 C   0  0  0  0  0  0  0  0  0  0  0  0
   -9.9012    1.0016    5.0800 N   0  0  0  0  0  0  0  0  0  0  0  0
  -10.0712    0.7417    8.3719 C   0  0  0  0  0  0  0  0  0  0  0  0
  -10.9944    0.6556    9.0506 N   0  0  0  0  0  0  0  0  0  0  0  0
   -5.6065    0.9354    4.6356 C   0  0  0  0  0  0  0  0  0  0  0  0
   -4.7153   -0.1490    4.5136 C   0  0  0  0  0  0  0  0  0  0  0  0
   -4.6920   -1.2907    5.2644 N   0  0  0  0  0  0  0  0  0  0  0  0
   -5.8070   -1.7729    5.9594 C   0  0  0  0  0  0  0  0  0  0  0  0
   -7.0882   -1.7003    5.4170 C   0  0  0  0  0  0  0  0  0  0  0  0
   -8.1866   -2.1167    6.1408 C   0  0  0  0  0  0  0  0  0  0  0  0
   -8.0253   -2.6113    7.4310 C   0  0  0  0  0  0  0  0  0  0  0  0
   -9.3518   -3.0761    8.4886 S   0  0  0  0  0  0  0  0  0  0  0  0
  -10.8433   -2.7575    7.5072 C   0  0  0  0  0  0  0  0  0  0  0  0
   -6.7388   -2.7447    7.9526 C   0  0  0  0  0  0  0  0  0  0  0  0
   -5.6427   -2.3365    7.2270 C   0  0  0  0  0  0  0  0  0  0  0  0
   -3.4933   -2.0317    5.3337 C   0  0  0  0  0  0  0  0  0  0  0  0
   -2.2880   -1.3939    5.6065 C   0  0  0  0  0  0  0  0  0  0  0  0
   -1.1075   -2.1105    5.6360 C   0  0  0  0  0  0  0  0  0  0  0  0
   -1.1209   -3.4778    5.3944 C   0  0  0  0  0  0  0  0  0  0  0  0
    0.3223   -4.4921    5.3688 S   0  0  0  0  0  0  0  0  0  0  0  0
    1.6773   -3.3441    5.7504 C   0  0  0  0  0  0  0  0  0  0  0  0
   -2.3333   -4.1233    5.1534 C   0  0  0  0  0  0  0  0  0  0  0  0
   -3.5103   -3.4094    5.1248 C   0  0  0  0  0  0  0  0  0  0  0  0
   -3.8777    0.0306    3.3853 C   0  0  0  0  0  0  0  0  0  0  0  0
   -2.5959   -0.8906    2.6779 S   0  0  0  0  0  0  0  0  0  0  0  0
   -2.4273    0.2819    1.3929 C   0  0  0  0  0  0  0  0  0  0  0  0
   -3.3089    1.3307    1.5085 C   0  0  0  0  0  0  0  0  0  0  0  0
   -3.4299    2.3875    0.5917 N   0  0  0  0  0  0  0  0  0  0  0  0
   -2.5612    3.4727    0.6943 C   0  0  0  0  0  0  0  0  0  0  0  0
   -2.2448    4.2391   -0.4249 C   0  0  0  0  0  0  0  0  0  0  0  0
   -1.3781    5.3088   -0.3246 C   0  0  0  0  0  0  0  0  0  0  0  0
   -0.8054    5.6305    0.8977 C   0  0  0  0  0  0  0  0  0  0  0  0
    0.3516    6.9540    1.1266 S   0  0  0  0  0  0  0  0  0  0  0  0
    0.1161    7.9836   -0.3505 C   0  0  0  0  0  0  0  0  0  0  0  0
   -1.1054    4.8587    2.0162 C   0  0  0  0  0  0  0  0  0  0  0  0
   -1.9718    3.7932    1.9181 C   0  0  0  0  0  0  0  0  0  0  0  0
   -4.5585    2.3813   -0.2318 C   0  0  0  0  0  0  0  0  0  0  0  0
   -5.0970    1.1667   -0.6535 C   0  0  0  0  0  0  0  0  0  0  0  0
   -6.2159    1.1288   -1.4631 C   0  0  0  0  0  0  0  0  0  0  0  0
   -6.8202    2.3094   -1.8680 C   0  0  0  0  0  0  0  0  0  0  0  0
   -8.2144    2.3750   -2.9569 S   0  0  0  0  0  0  0  0  0  0  0  0
   -8.9223    0.7061   -2.8341 C   0  0  0  0  0  0  0  0  0  0  0  0
   -6.2981    3.5258   -1.4364 C   0  0  0  0  0  0  0  0  0  0  0  0
   -5.1895    3.5638   -0.6218 C   0  0  0  0  0  0  0  0  0  0  0  0
   -4.1483    1.1663    2.6365 C   0  0  0  0  0  0  0  0  0  0  0  0
   -5.4655    2.0677    3.2796 S   0  0  0  0  0  0  0  0  0  0  0  0
   -1.4460    0.0220    0.3541 C   0  0  0  0  0  0  0  0  0  0  0  0
   -0.3665    0.8800    0.0675 C   0  0  0  0  0  0  0  0  0  0  0  0
    0.0256    2.0217    0.6497 N   0  0  0  0  0  0  0  0  0  0  0  0
    1.1459    2.3192    0.0586 N   0  0  0  0  0  0  0  0  0  0  0  0
    1.9125    3.4684    0.4522 C   0  0  0  0  0  0  0  0  0  0  0  0
    2.1676    4.3931   -0.7283 C   0  0  0  0  0  0  0  0  0  0  0  0
    1.5611    1.4965   -0.8620 N   0  0  0  0  0  0  0  0  0  0  0  0
    0.6215    0.5419   -0.9042 C   0  0  0  0  0  0  0  0  0  0  0  0
    0.5806   -0.6698   -1.6296 C   0  0  0  0  0  0  0  0  0  0  0  0
   -0.4893   -1.4913   -1.3236 C   0  0  0  0  0  0  0  0  0  0  0  0
   -1.4641   -1.1549   -0.3713 C   0  0  0  0  0  0  0  0  0  0  0  0
   -2.4690   -2.0310   -0.1803 F   0  0  0  0  0  0  0  0  0  0  0  0
   -0.6283   -2.6670   -1.9641 F   0  0  0  0  0  0  0  0  0  0  0  0
    1.6423   -1.0339   -2.5326 C   0  0  0  0  0  0  0  0  0  0  0  0
    2.3338   -0.1885   -3.3823 C   0  0  0  0  0  0  0  0  0  0  0  0
    2.0102    1.1160   -3.6970 N   0  0  0  0  0  0  0  0  0  0  0  0
    0.6973    1.5716   -3.7757 C   0  0  0  0  0  0  0  0  0  0  0  0
   -0.3575    0.7076   -4.0678 C   0  0  0  0  0  0  0  0  0  0  0  0
   -1.6616    1.1607   -4.0977 C   0  0  0  0  0  0  0  0  0  0  0  0
   -1.9425    2.4994   -3.8636 C   0  0  0  0  0  0  0  0  0  0  0  0
   -3.5713    3.1890   -3.8504 S   0  0  0  0  0  0  0  0  0  0  0  0
   -4.6184    1.8572   -4.4887 C   0  0  0  0  0  0  0  0  0  0  0  0
   -0.8884    3.3767   -3.6189 C   0  0  0  0  0  0  0  0  0  0  0  0
    0.4097    2.9223   -3.5712 C   0  0  0  0  0  0  0  0  0  0  0  0
    3.1038    1.9850   -3.8987 C   0  0  0  0  0  0  0  0  0  0  0  0
    4.1224    2.0285   -2.9478 C   0  0  0  0  0  0  0  0  0  0  0  0
    5.2521    2.7838   -3.1733 C   0  0  0  0  0  0  0  0  0  0  0  0
    5.3795    3.5048   -4.3551 C   0  0  0  0  0  0  0  0  0  0  0  0
    6.8761    4.4130   -4.6088 S   0  0  0  0  0  0  0  0  0  0  0  0
    7.0938    4.2889   -6.4098 C   0  0  0  0  0  0  0  0  0  0  0  0
    4.3457    3.5051   -5.2823 C   0  0  0  0  0  0  0  0  0  0  0  0
    3.2132    2.7468   -5.0566 C   0  0  0  0  0  0  0  0  0  0  0  0
    3.4526   -0.8521   -3.9440 C   0  0  0  0  0  0  0  0  0  0  0  0
    4.7076   -0.3561   -5.0016 S   0  0  0  0  0  0  0  0  0  0  0  0
    5.4854   -1.9290   -4.8723 C   0  0  0  0  0  0  0  0  0  0  0  0
    4.7259   -2.8262   -4.0909 C   0  0  0  0  0  0  0  0  0  0  0  0
    5.0585   -4.1213   -3.7962 N   0  0  0  0  0  0  0  0  0  0  0  0
    5.6540   -4.9666   -4.7479 C   0  0  0  0  0  0  0  0  0  0  0  0
    5.2166   -4.9659   -6.0697 C   0  0  0  0  0  0  0  0  0  0  0  0
    5.7836   -5.8167   -6.9961 C   0  0  0  0  0  0  0  0  0  0  0  0
    6.8114   -6.6728   -6.6154 C   0  0  0  0  0  0  0  0  0  0  0  0
    7.6159   -7.7796   -7.7193 S   0  0  0  0  0  0  0  0  0  0  0  0
    7.1587   -7.1417   -9.3556 C   0  0  0  0  0  0  0  0  0  0  0  0
    7.2378   -6.6870   -5.2872 C   0  0  0  0  0  0  0  0  0  0  0  0
    6.6637   -5.8472   -4.3601 C   0  0  0  0  0  0  0  0  0  0  0  0
    4.6716   -4.6711   -2.5614 C   0  0  0  0  0  0  0  0  0  0  0  0
    4.7939   -3.9263   -1.3909 C   0  0  0  0  0  0  0  0  0  0  0  0
    4.3562   -4.4367   -0.1852 C   0  0  0  0  0  0  0  0  0  0  0  0
    3.7951   -5.7062   -0.1302 C   0  0  0  0  0  0  0  0  0  0  0  0
    3.1672   -6.4253    1.3537 S   0  0  0  0  0  0  0  0  0  0  0  0
    2.7651   -4.9733    2.3698 C   0  0  0  0  0  0  0  0  0  0  0  0
    3.7257   -6.4754   -1.2900 C   0  0  0  0  0  0  0  0  0  0  0  0
    4.1557   -5.9650   -2.4939 C   0  0  0  0  0  0  0  0  0  0  0  0
    3.5966   -2.1730   -3.5443 C   0  0  0  0  0  0  0  0  0  0  0  0
    2.2996   -2.6605   -2.5034 S   0  0  0  0  0  0  0  0  0  0  0  0
    6.7206   -2.1313   -5.5109 C   0  0  0  0  0  0  0  0  0  0  0  0
    7.6505   -1.1447   -5.7572 C   0  0  0  0  0  0  0  0  0  0  0  0
    7.7667    0.1243   -5.0012 C   0  0  0  0  0  0  0  0  0  0  0  0
    7.0598    0.5302   -4.0985 O   0  0  0  0  0  0  0  0  0  0  0  0
    9.0164    0.7493   -5.4646 C   0  0  0  0  0  0  0  0  0  0  0  0
    9.5645    1.9594   -5.0958 C   0  0  0  0  0  0  0  0  0  0  0  0
   10.7675    2.3637   -5.6664 C   0  0  0  0  0  0  0  0  0  0  0  0
   11.3571    3.6866   -5.2925 C   0  0  0  0  0  0  0  0  0  0  0  0
   11.4155    1.5259   -6.5856 C   0  0  0  0  0  0  0  0  0  0  0  0
   12.7193    1.9410   -7.1905 C   0  0  0  0  0  0  0  0  0  0  0  0
   10.8554    0.3022   -6.9472 C   0  0  0  0  0  0  0  0  0  0  0  0
    9.6491   -0.0902   -6.3946 C   0  0  0  0  0  0  0  0  0  0  0  0
    8.8061   -1.2629   -6.6104 C   0  0  0  0  0  0  0  0  0  0  0  0
    9.0278   -2.2360   -7.5562 C   0  0  0  0  0  0  0  0  0  0  0  0
   10.1908   -2.3174   -8.3464 C   0  0  0  0  0  0  0  0  0  0  0  0
   11.1190   -2.4472   -9.0110 N   0  0  0  0  0  0  0  0  0  0  0  0
    8.1045   -3.2273   -7.9251 C   0  0  0  0  0  0  0  0  0  0  0  0
    7.3886   -4.0238   -8.3448 N   0  0  0  0  0  0  0  0  0  0  0  0
   -7.3746    1.8847    5.2836 H   0  0  0  0  0  0  0  0  0  0  0  0
   -3.9661   -0.2874   10.0520 H   0  0  0  0  0  0  0  0  0  0  0  0
   -5.2318   -1.6908   12.9609 H   0  0  0  0  0  0  0  0  0  0  0  0
   -3.8214   -0.8398   12.3186 H   0  0  0  0  0  0  0  0  0  0  0  0
   -4.9714   -0.0004   13.3660 H   0  0  0  0  0  0  0  0  0  0  0  0
   -7.6108   -1.3608   13.1323 H   0  0  0  0  0  0  0  0  0  0  0  0
   -8.8153   -0.1499   12.6818 H   0  0  0  0  0  0  0  0  0  0  0  0
   -7.3447    0.3295   13.5384 H   0  0  0  0  0  0  0  0  0  0  0  0
   -8.8602    0.3873   10.4546 H   0  0  0  0  0  0  0  0  0  0  0  0
   -7.2314   -1.3059    4.4223 H   0  0  0  0  0  0  0  0  0  0  0  0
   -9.1629   -2.0367    5.6912 H   0  0  0  0  0  0  0  0  0  0  0  0
  -11.6746   -3.0214    8.1535 H   0  0  0  0  0  0  0  0  0  0  0  0
  -10.9064   -1.7048    7.2483 H   0  0  0  0  0  0  0  0  0  0  0  0
  -10.8479   -3.3867    6.6219 H   0  0  0  0  0  0  0  0  0  0  0  0
   -6.6158   -3.1511    8.9445 H   0  0  0  0  0  0  0  0  0  0  0  0
   -4.6511   -2.4266    7.6435 H   0  0  0  0  0  0  0  0  0  0  0  0
   -2.2903   -0.3360    5.8178 H   0  0  0  0  0  0  0  0  0  0  0  0
   -0.1888   -1.5891    5.8498 H   0  0  0  0  0  0  0  0  0  0  0  0
    1.7497   -2.5842    4.9777 H   0  0  0  0  0  0  0  0  0  0  0  0
    2.5788   -3.9490    5.7600 H   0  0  0  0  0  0  0  0  0  0  0  0
    1.5231   -2.9008    6.7296 H   0  0  0  0  0  0  0  0  0  0  0  0
   -2.3358   -5.1882    4.9787 H   0  0  0  0  0  0  0  0  0  0  0  0
   -4.4469   -3.9101    4.9297 H   0  0  0  0  0  0  0  0  0  0  0  0
   -2.6749    3.9912   -1.3826 H   0  0  0  0  0  0  0  0  0  0  0  0
   -1.1565    5.8826   -1.2109 H   0  0  0  0  0  0  0  0  0  0  0  0
    0.6574    8.9045   -0.1576 H   0  0  0  0  0  0  0  0  0  0  0  0
   -0.9409    8.1945   -0.4809 H   0  0  0  0  0  0  0  0  0  0  0  0
    0.5313    7.4924   -1.2261 H   0  0  0  0  0  0  0  0  0  0  0  0
   -0.6578    5.1116    2.9656 H   0  0  0  0  0  0  0  0  0  0  0  0
   -2.1984    3.2083    2.7958 H   0  0  0  0  0  0  0  0  0  0  0  0
   -4.6323    0.2379   -0.3565 H   0  0  0  0  0  0  0  0  0  0  0  0
   -6.5978    0.1703   -1.7785 H   0  0  0  0  0  0  0  0  0  0  0  0
   -9.8924    0.7617   -3.3173 H   0  0  0  0  0  0  0  0  0  0  0  0
   -8.2954   -0.0123   -3.3543 H   0  0  0  0  0  0  0  0  0  0  0  0
   -9.0419    0.4406   -1.7884 H   0  0  0  0  0  0  0  0  0  0  0  0
   -6.7794    4.4418   -1.7421 H   0  0  0  0  0  0  0  0  0  0  0  0
   -4.8130    4.5128   -0.2741 H   0  0  0  0  0  0  0  0  0  0  0  0
    1.3355    3.9707    1.2298 H   0  0  0  0  0  0  0  0  0  0  0  0
    2.8646    3.1219    0.8651 H   0  0  0  0  0  0  0  0  0  0  0  0
    2.7595    3.8840   -1.4851 H   0  0  0  0  0  0  0  0  0  0  0  0
    1.2212    4.7058   -1.1615 H   0  0  0  0  0  0  0  0  0  0  0  0
    2.7067    5.2720   -0.3869 H   0  0  0  0  0  0  0  0  0  0  0  0
   -0.1602   -0.3313   -4.2838 H   0  0  0  0  0  0  0  0  0  0  0  0
   -2.4491    0.4567   -4.3135 H   0  0  0  0  0  0  0  0  0  0  0  0
   -4.6339    1.0295   -3.7858 H   0  0  0  0  0  0  0  0  0  0  0  0
   -4.2619    1.5465   -5.4663 H   0  0  0  0  0  0  0  0  0  0  0  0
   -5.6125    2.2855   -4.5718 H   0  0  0  0  0  0  0  0  0  0  0  0
   -1.1041    4.4229   -3.4661 H   0  0  0  0  0  0  0  0  0  0  0  0
    1.2154    3.6128   -3.3791 H   0  0  0  0  0  0  0  0  0  0  0  0
    4.0182    1.4480   -2.0438 H   0  0  0  0  0  0  0  0  0  0  0  0
    6.0530    2.8021   -2.4523 H   0  0  0  0  0  0  0  0  0  0  0  0
    6.4596    5.0062   -6.9233 H   0  0  0  0  0  0  0  0  0  0  0  0
    6.8696    3.2727   -6.7210 H   0  0  0  0  0  0  0  0  0  0  0  0
    8.1371    4.5162   -6.6065 H   0  0  0  0  0  0  0  0  0  0  0  0
    4.4219    4.0813   -6.1913 H   0  0  0  0  0  0  0  0  0  0  0  0
    2.4174    2.7284   -5.7865 H   0  0  0  0  0  0  0  0  0  0  0  0
    4.4222   -4.2975   -6.3675 H   0  0  0  0  0  0  0  0  0  0  0  0
    5.4146   -5.8077   -8.0070 H   0  0  0  0  0  0  0  0  0  0  0  0
    6.1310   -7.4062   -9.5880 H   0  0  0  0  0  0  0  0  0  0  0  0
    7.8305   -7.6233  -10.0593 H   0  0  0  0  0  0  0  0  0  0  0  0
    7.3082   -6.0661   -9.3659 H   0  0  0  0  0  0  0  0  0  0  0  0
    8.0298   -7.3602   -4.9977 H   0  0  0  0  0  0  0  0  0  0  0  0
    6.9973   -5.8559   -3.3331 H   0  0  0  0  0  0  0  0  0  0  0  0
    5.2346   -2.9407   -1.4285 H   0  0  0  0  0  0  0  0  0  0  0  0
    4.4617   -3.8390    0.7060 H   0  0  0  0  0  0  0  0  0  0  0  0
    2.1103   -5.3341    3.1575 H   0  0  0  0  0  0  0  0  0  0  0  0
    2.2426   -4.2439    1.7585 H   0  0  0  0  0  0  0  0  0  0  0  0
    3.6675   -4.5508    2.8032 H   0  0  0  0  0  0  0  0  0  0  0  0
    3.3084   -7.4688   -1.2370 H   0  0  0  0  0  0  0  0  0  0  0  0
    4.0733   -6.5553   -3.3939 H   0  0  0  0  0  0  0  0  0  0  0  0
    6.9669   -3.1463   -5.8029 H   0  0  0  0  0  0  0  0  0  0  0  0
    9.0507    2.5858   -4.3819 H   0  0  0  0  0  0  0  0  0  0  0  0
   11.5075    4.3058   -6.1764 H   0  0  0  0  0  0  0  0  0  0  0  0
   12.3290    3.5523   -4.8184 H   0  0  0  0  0  0  0  0  0  0  0  0
   10.7041    4.2148   -4.6028 H   0  0  0  0  0  0  0  0  0  0  0  0
   13.0911    1.1770   -7.8677 H   0  0  0  0  0  0  0  0  0  0  0  0
   12.6051    2.8716   -7.7458 H   0  0  0  0  0  0  0  0  0  0  0  0
   13.4640    2.1114   -6.4138 H   0  0  0  0  0  0  0  0  0  0  0  0
   11.3753   -0.3251   -7.6536 H   0  0  0  0  0  0  0  0  0  0  0  0
  1  2  2  0  0  0  0
  2  3  1  0  0  0  0
  3  4  2  0  0  0  0
  3  5  1  0  0  0  0
  5  6  2  0  0  0  0
  6  7  1  0  0  0  0
  7  8  1  0  0  0  0
  7  9  2  0  0  0  0
  9 10  1  0  0  0  0
  9 11  1  0  0  0  0
 11 12  2  0  0  0  0
 12 13  1  0  0  0  0
 13 14  2  0  0  0  0
 14 15  1  0  0  0  0
 15 16  3  0  0  0  0
 14 17  1  0  0  0  0
 17 18  3  0  0  0  0
  1 19  1  0  0  0  0
 19 20  2  0  0  0  0
 20 21  1  0  0  0  0
 21 22  1  0  0  0  0
 22 23  2  0  0  0  0
 23 24  1  0  0  0  0
 24 25  2  0  0  0  0
 25 26  1  0  0  0  0
 26 27  1  0  0  0  0
 25 28  1  0  0  0  0
 28 29  2  0  0  0  0
 21 30  1  0  0  0  0
 30 31  2  0  0  0  0
 31 32  1  0  0  0  0
 32 33  2  0  0  0  0
 33 34  1  0  0  0  0
 34 35  1  0  0  0  0
 33 36  1  0  0  0  0
 36 37  2  0  0  0  0
 20 38  1  0  0  0  0
 38 39  1  0  0  0  0
 39 40  1  0  0  0  0
 40 41  2  0  0  0  0
 41 42  1  0  0  0  0
 42 43  1  0  0  0  0
 43 44  2  0  0  0  0
 44 45  1  0  0  0  0
 45 46  2  0  0  0  0
 46 47  1  0  0  0  0
 47 48  1  0  0  0  0
 46 49  1  0  0  0  0
 49 50  2  0  0  0  0
 42 51  1  0  0  0  0
 51 52  2  0  0  0  0
 52 53  1  0  0  0  0
 53 54  2  0  0  0  0
 54 55  1  0  0  0  0
 55 56  1  0  0  0  0
 54 57  1  0  0  0  0
 57 58  2  0  0  0  0
 41 59  1  0  0  0  0
 59 60  1  0  0  0  0
 40 61  1  0  0  0  0
 61 62  1  0  0  0  0
 62 63  2  0  0  0  0
 63 64  1  0  0  0  0
 64 65  1  0  0  0  0
 65 66  1  0  0  0  0
 64 67  1  0  0  0  0
 67 68  2  0  0  0  0
 68 69  1  0  0  0  0
 69 70  2  0  0  0  0
 70 71  1  0  0  0  0
 71 72  1  0  0  0  0
 70 73  1  0  0  0  0
 69 74  1  0  0  0  0
 74 75  2  0  0  0  0
 75 76  1  0  0  0  0
 76 77  1  0  0  0  0
 77 78  2  0  0  0  0
 78 79  1  0  0  0  0
 79 80  2  0  0  0  0
 80 81  1  0  0  0  0
 81 82  1  0  0  0  0
 80 83  1  0  0  0  0
 83 84  2  0  0  0  0
 76 85  1  0  0  0  0
 85 86  2  0  0  0  0
 86 87  1  0  0  0  0
 87 88  2  0  0  0  0
 88 89  1  0  0  0  0
 89 90  1  0  0  0  0
 88 91  1  0  0  0  0
 91 92  2  0  0  0  0
 75 93  1  0  0  0  0
 93 94  1  0  0  0  0
 94 95  1  0  0  0  0
 95 96  2  0  0  0  0
 96 97  1  0  0  0  0
 97 98  1  0  0  0  0
 98 99  2  0  0  0  0
 99100  1  0  0  0  0
100101  2  0  0  0  0
101102  1  0  0  0  0
102103  1  0  0  0  0
101104  1  0  0  0  0
104105  2  0  0  0  0
 97106  1  0  0  0  0
106107  2  0  0  0  0
107108  1  0  0  0  0
108109  2  0  0  0  0
109110  1  0  0  0  0
110111  1  0  0  0  0
109112  1  0  0  0  0
112113  2  0  0  0  0
 96114  1  0  0  0  0
114115  1  0  0  0  0
 95116  1  0  0  0  0
116117  2  0  0  0  0
117118  1  0  0  0  0
118119  2  0  0  0  0
118120  1  0  0  0  0
120121  2  0  0  0  0
121122  1  0  0  0  0
122123  1  0  0  0  0
122124  2  0  0  0  0
124125  1  0  0  0  0
124126  1  0  0  0  0
126127  2  0  0  0  0
127128  1  0  0  0  0
128129  2  0  0  0  0
129130  1  0  0  0  0
130131  3  0  0  0  0
129132  1  0  0  0  0
132133  3  0  0  0  0
 13  2  1  0  0  0  0
 60 19  1  0  0  0  0
 71 61  2  0  0  0  0
115 74  1  0  0  0  0
128117  1  0  0  0  0
 12  5  1  0  0  0  0
 29 22  1  0  0  0  0
 37 30  1  0  0  0  0
 59 38  2  0  0  0  0
 68 62  1  0  0  0  0
 84 77  1  0  0  0  0
 92 85  1  0  0  0  0
114 93  2  0  0  0  0
127120  1  0  0  0  0
 50 43  1  0  0  0  0
 58 51  1  0  0  0  0
105 98  1  0  0  0  0
113106  1  0  0  0  0
  1134  1  0  0  0  0
  6135  1  0  0  0  0
  8136  1  0  0  0  0
  8137  1  0  0  0  0
  8138  1  0  0  0  0
 10139  1  0  0  0  0
 10140  1  0  0  0  0
 10141  1  0  0  0  0
 11142  1  0  0  0  0
 23143  1  0  0  0  0
 24144  1  0  0  0  0
 27145  1  0  0  0  0
 27146  1  0  0  0  0
 27147  1  0  0  0  0
 28148  1  0  0  0  0
 29149  1  0  0  0  0
 31150  1  0  0  0  0
 32151  1  0  0  0  0
 35152  1  0  0  0  0
 35153  1  0  0  0  0
 35154  1  0  0  0  0
 36155  1  0  0  0  0
 37156  1  0  0  0  0
 44157  1  0  0  0  0
 45158  1  0  0  0  0
 48159  1  0  0  0  0
 48160  1  0  0  0  0
 48161  1  0  0  0  0
 49162  1  0  0  0  0
 50163  1  0  0  0  0
 52164  1  0  0  0  0
 53165  1  0  0  0  0
 56166  1  0  0  0  0
 56167  1  0  0  0  0
 56168  1  0  0  0  0
 57169  1  0  0  0  0
 58170  1  0  0  0  0
 65171  1  0  0  0  0
 65172  1  0  0  0  0
 66173  1  0  0  0  0
 66174  1  0  0  0  0
 66175  1  0  0  0  0
 78176  1  0  0  0  0
 79177  1  0  0  0  0
 82178  1  0  0  0  0
 82179  1  0  0  0  0
 82180  1  0  0  0  0
 83181  1  0  0  0  0
 84182  1  0  0  0  0
 86183  1  0  0  0  0
 87184  1  0  0  0  0
 90185  1  0  0  0  0
 90186  1  0  0  0  0
 90187  1  0  0  0  0
 91188  1  0  0  0  0
 92189  1  0  0  0  0
 99190  1  0  0  0  0
100191  1  0  0  0  0
103192  1  0  0  0  0
103193  1  0  0  0  0
103194  1  0  0  0  0
104195  1  0  0  0  0
105196  1  0  0  0  0
107197  1  0  0  0  0
108198  1  0  0  0  0
111199  1  0  0  0  0
111200  1  0  0  0  0
111201  1  0  0  0  0
112202  1  0  0  0  0
113203  1  0  0  0  0
116204  1  0  0  0  0
121205  1  0  0  0  0
123206  1  0  0  0  0
123207  1  0  0  0  0
123208  1  0  0  0  0
125209  1  0  0  0  0
125210  1  0  0  0  0
125211  1  0  0  0  0
126212  1  0  0  0  0
M  END
