227

C         -5.30760        1.61220       -7.13400
C         -6.65060        1.71970       -6.83900
C         -7.17950        2.09690       -5.51800
O         -6.54640        2.33370       -4.50360
C         -8.63670        2.24980       -5.70700
C         -9.60640        2.58550       -4.78720
C        -10.93880        2.64900       -5.18710
C        -12.00110        2.99840       -4.19310
C        -11.27530        2.38510       -6.52150
C        -12.70250        2.45090       -6.96790
C        -10.28690        2.05540       -7.44750
C         -8.96600        1.98070       -7.04440
C         -7.74700        1.62180       -7.76410
C         -7.68800        1.11490       -9.03930
C         -8.81100        0.95920       -9.87330
N         -9.69910        0.81730      -10.58800
C         -6.51090        0.62700       -9.63910
N         -5.59310        0.18400      -10.16940
C         -4.28810        1.35210       -6.21660
C         -4.31650        0.73090       -4.94880
N         -5.33940       -0.00590       -4.42730
C         -5.32690       -0.33660       -3.05700
C         -5.15070        0.64400       -2.08660
C         -5.03590        0.29250       -0.75430
C         -5.09800       -1.04380       -0.38230
S         -4.88090       -1.60760        1.27520
C         -3.99290       -0.24370        2.07120
C         -5.35340       -2.01750       -1.34660
C         -5.46840       -1.66940       -2.67310
C         -6.34450       -0.58010       -5.21980
C         -6.05880       -1.16800       -6.45340
C         -7.07600       -1.65980       -7.23660
C         -8.40420       -1.57380       -6.81250
S         -9.62800       -2.14110       -7.94110
C        -11.17820       -1.50760       -7.24080
C         -8.68380       -1.05850       -5.55350
C         -7.66050       -0.57000       -4.76420
C         -3.04860        0.83120       -4.33190
S         -2.40300        0.37850       -2.79650
C         -0.78510        0.93130       -3.24510
C         -0.75380        1.36960       -4.56080
N          0.34710        1.78690       -5.32990
C          1.19330        0.81570       -5.86680
C          0.93850       -0.54030       -5.66430
C          1.82470       -1.51200       -6.08870
C          2.99130       -1.15070       -6.74320
S          4.25010       -2.28390       -7.24650
C          3.54530       -3.91730       -6.89230
C          3.22190        0.19480       -7.01000
C          2.34110        1.16370       -6.58310
C          0.19840        3.08240       -5.85440
C          0.43600        3.40920       -7.18920
C          0.26560        4.70360       -7.62790
C         -0.18300        5.69800       -6.76250
S         -0.33780        7.32620       -7.42960
C         -1.36100        8.19590       -6.20480
C         -0.47430        5.36770       -5.44650
C         -0.27820        4.07610       -5.00110
C         -2.04890        1.36040       -5.13320
S         -2.64550        1.83310       -6.68000
C          0.15110        0.82000       -2.17370
C          1.53000        0.69830       -2.07960
N          2.50630        0.88350       -3.06940
C          3.36330       -0.21920       -3.21400
C          4.74930       -0.12170       -3.30600
C          5.52250       -1.25060       -3.49230
C          4.93250       -2.50500       -3.55070
S          5.85310       -3.99050       -3.82130
C          7.21280       -3.40450       -4.87460
C          3.56010       -2.61890       -3.35910
C          2.78630       -1.49210       -3.20420
C          2.80800        2.18310       -3.48480
C          2.16190        3.27900       -2.91340
C          2.39890        4.56660       -3.35500
C          3.29950        4.79710       -4.38340
S          3.67400        6.38730       -5.05250
C          2.35510        7.44510       -4.39520
C          3.98040        3.71480       -4.93080
C          3.74260        2.43130       -4.49290
C          1.92030        0.32810       -0.77140
S          3.42550       -0.14840       -0.07420
C          2.66350       -0.40820        1.48740
C          1.31020       -0.08950        1.45200
N          0.47990       -0.05870        2.59080
C          0.25330        1.22150        3.12310
C         -0.99680        1.61560        3.59090
C         -1.19720        2.88100        4.10880
C         -0.14990        3.78860        4.16200
S         -0.28790        5.43350        4.79410
C         -1.93200        5.46440        5.56360
C          1.09840        3.40990        3.67480
C          1.29780        2.14820        3.16240
C         -0.39270       -1.12580        2.84830
C         -0.78660       -2.00970        1.84940
C         -1.65870       -3.04770        2.12400
C         -2.15040       -3.22420        3.40810
S         -3.29200       -4.48960        3.86960
C         -3.85970       -5.15540        2.28020
C         -1.71980       -2.37070        4.42380
C         -0.84860       -1.34140        4.15150
C          0.89900        0.28980        0.16270
S         -0.61460        0.65910       -0.58100
C          3.37010       -0.88320        2.62500
C          4.69690       -1.30210        2.75320
C          5.67880       -1.37560        1.62520
C          5.46180       -2.62140        0.76270
C          4.98020       -1.68740        4.06620
C          3.88390       -1.57200        4.92170
S          2.48170       -0.98490        4.13690
C          4.23960       -1.98220        6.22370
C          5.59110       -2.36180        6.20730
C          6.18560       -2.19950        4.82830
C          7.34080       -1.18000        4.86460
C          6.89460        0.20950        5.30230
C          6.69300       -3.55130        4.29360
C          5.60420       -4.61670        4.24880
C          6.02570       -2.78290        7.44030
C          5.01730       -2.73850        8.41770
S          3.49810       -2.14670        7.75550
C          5.25830       -3.13640        9.73790
C          4.42090       -3.18680       10.82430
C          3.00110       -2.81350       10.83150
O          2.34320       -2.38260        9.89940
C          2.52250       -3.06310       12.20010
C          1.26110       -2.88640       12.72920
C          1.03190       -3.19370       14.06680
C         -0.33160       -3.00910       14.65220
C          2.08520       -3.67690       14.85720
C          1.85320       -4.01060       16.29660
C          3.35570       -3.85230       14.31410
C          3.58330       -3.54760       12.98330
C          4.78400       -3.63080       12.15490
C          6.01550       -4.05260       12.58960
C          6.28750       -4.46800       13.90940
N          6.58180       -4.81840       14.96290
C          7.18590       -4.13550       11.80870
N          8.18500       -4.23380       11.24860
H         -4.98810        1.77750       -8.15580
H         -9.32760        2.78810       -3.76360
H        -11.56760        3.17140       -3.21180
H        -12.53230        3.89820       -4.50200
H        -12.73430        2.19600       -4.11340
H        -12.78740        2.20580       -8.02310
H        -13.10640        3.45040       -6.81030
H        -13.31750        1.75470       -6.39780
H        -10.56650        1.86900       -8.47260
H         -5.11730        1.67940       -2.38910
H         -4.89110        1.06660       -0.01810
H         -3.63240       -0.64800        3.01280
H         -3.15620        0.05200        1.44440
H         -4.66470        0.58930        2.25800
H         -5.43670       -3.04990       -1.04360
H         -5.63890       -2.42680       -3.42380
H         -5.03900       -1.22690       -6.80190
H         -6.85810       -2.10080       -8.19700
H        -11.07760       -0.44440       -7.04190
H        -11.92950       -1.67220       -8.00680
H        -11.44080       -2.05850       -6.34220
H         -9.69440       -1.01680       -5.18140
H         -7.88080       -0.15660       -3.79150
H          0.03690       -0.85070       -5.15740
H          1.58990       -2.54640       -5.89670
H          4.27510       -4.63590       -7.25190
H          2.61020       -4.03850       -7.43100
H          3.40910       -4.03730       -5.82190
H          4.11490        0.47820       -7.54670
H          2.56250        2.19830       -6.78170
H          0.72080        2.64420       -7.89380
H          0.45830        4.95580       -8.65920
H         -1.62990        9.14050       -6.66710
H         -0.79460        8.38360       -5.29670
H         -2.25600        7.61640       -5.99960
H         -0.86030        6.10270       -4.75670
H         -0.50310        3.83110       -3.97380
H          5.23550        0.83550       -3.20470
H          6.59250       -1.14330       -3.57420
H          6.80810       -2.74430       -5.63600
H          7.63830       -4.29080       -5.33470
H          7.96940       -2.90400       -4.27710
H          3.10660       -3.59900       -3.34450
H          1.71820       -1.58990       -3.08140
H          1.46150        3.13390       -2.10450
H          1.87680        5.38080       -2.87860
H          2.43050        8.38180       -4.93880
H          2.50260        7.62020       -3.33300
H          1.39770        6.97340       -4.59140
H          4.69680        3.89090       -5.71880
H          4.26720        1.61600       -4.95940
H         -1.82940        0.93140        3.54460
H         -2.18290        3.14520        4.45700
H         -2.01180        4.66190        6.29090
H         -2.70480        5.38850        4.80400
H         -2.00280        6.42540        6.06360
H          1.91240        4.11780        3.70850
H          2.27540        1.87550        2.79590
H         -0.42020       -1.89130        0.84130
H         -1.95160       -3.70370        1.32070
H         -3.05270       -5.68950        1.78650
H         -4.66180       -5.84530        2.52290
H         -4.23930       -4.34420        1.66600
H         -2.07560       -2.53090        5.43000
H         -0.51050       -0.69380        4.94570
H          5.59990       -0.48220        1.00230
H          6.68730       -1.39970        2.03750
H          4.45210       -2.64890        0.36200
H          6.15660       -2.62240       -0.07310
H          5.62070       -3.52290        1.34860
H          7.79960       -1.11820        3.87630
H          8.09740       -1.55320        5.55770
H          6.43910        0.17440        6.28910
H          6.16910        0.62020        4.60380
H          7.74990        0.87940        5.34270
H          7.50410       -3.89050        4.94110
H          7.10360       -3.40620        3.29330
H          5.21490       -4.81190        5.24520
H          4.77750       -4.30000        3.61680
H          6.00700       -5.54510        3.85070
H          7.02030       -3.12100        7.67280
H          6.28010       -3.45840        9.89940
H          0.46560       -2.51320       12.10150
H         -1.02280       -2.62900       13.90500
H         -0.29950       -2.30810       15.48590
H         -0.71600       -3.95480       15.03320
H          2.76820       -4.36620       16.76220
H          1.50320       -3.13420       16.84110
H          1.09090       -4.78320       16.39220
H          4.14670       -4.22640       14.94380
