212

C         -6.57410        1.22800        5.60390
C         -6.56220        0.79250        6.90950
C         -5.33820        0.43990        7.65320
O         -4.19530        0.43700        7.23330
C         -5.77530        0.22110        9.04570
C         -5.03200       -0.14080       10.14800
C         -5.66900       -0.32850       11.37190
C         -4.87370       -0.73860       12.57060
C         -7.05410       -0.13750       11.47150
C         -7.75020       -0.33940       12.77980
C         -7.79660        0.23940       10.35500
C         -7.16230        0.41870        9.13980
C         -7.67580        0.75710        7.81810
C         -9.00000        0.84890        7.46570
C         -9.45420        0.96780        6.13820
N         -9.90120        1.00160        5.08000
C        -10.07120        0.74170        8.37190
N        -10.99440        0.65560        9.05060
C         -5.60650        0.93540        4.63560
C         -4.71530       -0.14900        4.51360
N         -4.69200       -1.29070        5.26440
C         -5.80700       -1.77290        5.95940
C         -7.08820       -1.70030        5.41700
C         -8.18660       -2.11670        6.14080
C         -8.02530       -2.61130        7.43100
S         -9.35180       -3.07610        8.48860
C        -10.84330       -2.75750        7.50720
C         -6.73880       -2.74470        7.95260
C         -5.64270       -2.33650        7.22700
C         -3.49330       -2.03170        5.33370
C         -2.28800       -1.39390        5.60650
C         -1.10750       -2.11050        5.63600
C         -1.12090       -3.47780        5.39440
S          0.32230       -4.49210        5.36880
C          1.67730       -3.34410        5.75040
C         -2.33330       -4.12330        5.15340
C         -3.51030       -3.40940        5.12480
C         -3.87770        0.03060        3.38530
S         -2.59590       -0.89060        2.67790
C         -2.42730        0.28190        1.39290
C         -3.30890        1.33070        1.50850
N         -3.42990        2.38750        0.59170
C         -2.56120        3.47270        0.69430
C         -2.24480        4.23910       -0.42490
C         -1.37810        5.30880       -0.32460
C         -0.80540        5.63050        0.89770
S          0.35160        6.95400        1.12660
C          0.11610        7.98360       -0.35050
C         -1.10540        4.85870        2.01620
C         -1.97180        3.79320        1.91810
C         -4.55850        2.38130       -0.23180
C         -5.09700        1.16670       -0.65350
C         -6.21590        1.12880       -1.46310
C         -6.82020        2.30940       -1.86800
S         -8.21440        2.37500       -2.95690
C         -8.92230        0.70610       -2.83410
C         -6.29810        3.52580       -1.43640
C         -5.18950        3.56380       -0.62180
C         -4.14830        1.16630        2.63650
S         -5.46550        2.06770        3.27960
C         -1.44600        0.02200        0.35410
C         -0.36650        0.88000        0.06750
N          0.02560        2.02170        0.64970
N          1.14590        2.31920        0.05860
C          1.91250        3.46840        0.45220
C          2.16760        4.39310       -0.72830
N          1.56110        1.49650       -0.86200
C          0.62150        0.54190       -0.90420
C          0.58060       -0.66980       -1.62960
C         -0.48930       -1.49130       -1.32360
C         -1.46410       -1.15490       -0.37130
F         -2.46900       -2.03100       -0.18030
F         -0.62830       -2.66700       -1.96410
C          1.64230       -1.03390       -2.53260
C          2.33380       -0.18850       -3.38230
N          2.01020        1.11600       -3.69700
C          0.69730        1.57160       -3.77570
C         -0.35750        0.70760       -4.06780
C         -1.66160        1.16070       -4.09770
C         -1.94250        2.49940       -3.86360
S         -3.57130        3.18900       -3.85040
C         -4.61840        1.85720       -4.48870
C         -0.88840        3.37670       -3.61890
C          0.40970        2.92230       -3.57120
C          3.10380        1.98500       -3.89870
C          4.12240        2.02850       -2.94780
C          5.25210        2.78380       -3.17330
C          5.37950        3.50480       -4.35510
S          6.87610        4.41300       -4.60880
C          7.09380        4.28890       -6.40980
C          4.34570        3.50510       -5.28230
C          3.21320        2.74680       -5.05660
C          3.45260       -0.85210       -3.94400
S          4.70760       -0.35610       -5.00160
C          5.48540       -1.92900       -4.87230
C          4.72590       -2.82620       -4.09090
N          5.05850       -4.12130       -3.79620
C          5.65400       -4.96660       -4.74790
C          5.21660       -4.96590       -6.06970
C          5.78360       -5.81670       -6.99610
C          6.81140       -6.67280       -6.61540
S          7.61590       -7.77960       -7.71930
C          7.15870       -7.14170       -9.35560
C          7.23780       -6.68700       -5.28720
C          6.66370       -5.84720       -4.36010
C          4.67160       -4.67110       -2.56140
C          4.79390       -3.92630       -1.39090
C          4.35620       -4.43670       -0.18520
C          3.79510       -5.70620       -0.13020
S          3.16720       -6.42530        1.35370
C          2.76510       -4.97330        2.36980
C          3.72570       -6.47540       -1.29000
C          4.15570       -5.96500       -2.49390
C          3.59660       -2.17300       -3.54430
S          2.29960       -2.66050       -2.50340
C          6.72060       -2.13130       -5.51090
C          7.65050       -1.14470       -5.75720
C          7.76670        0.12430       -5.00120
O          7.05980        0.53020       -4.09850
C          9.01640        0.74930       -5.46460
C          9.56450        1.95940       -5.09580
C         10.76750        2.36370       -5.66640
C         11.35710        3.68660       -5.29250
C         11.41550        1.52590       -6.58560
C         12.71930        1.94100       -7.19050
C         10.85540        0.30220       -6.94720
C          9.64910       -0.09020       -6.39460
C          8.80610       -1.26290       -6.61040
C          9.02780       -2.23600       -7.55620
C         10.19080       -2.31740       -8.34640
N         11.11900       -2.44720       -9.01100
C          8.10450       -3.22730       -7.92510
N          7.38860       -4.02380       -8.34480
H         -7.37460        1.88470        5.28360
H         -3.96610       -0.28740       10.05200
H         -5.23180       -1.69080       12.96090
H         -3.82140       -0.83980       12.31860
H         -4.97140       -0.00040       13.36600
H         -7.61080       -1.36080       13.13230
H         -8.81530       -0.14990       12.68180
H         -7.34470        0.32950       13.53840
H         -8.86020        0.38730       10.45460
H         -7.23140       -1.30590        4.42230
H         -9.16290       -2.03670        5.69120
H        -11.67460       -3.02140        8.15350
H        -10.90640       -1.70480        7.24830
H        -10.84790       -3.38670        6.62190
H         -6.61580       -3.15110        8.94450
H         -4.65110       -2.42660        7.64350
H         -2.29030       -0.33600        5.81780
H         -0.18880       -1.58910        5.84980
H          1.74970       -2.58420        4.97770
H          2.57880       -3.94900        5.76000
H          1.52310       -2.90080        6.72960
H         -2.33580       -5.18820        4.97870
H         -4.44690       -3.91010        4.92970
H         -2.67490        3.99120       -1.38260
H         -1.15650        5.88260       -1.21090
H          0.65740        8.90450       -0.15760
H         -0.94090        8.19450       -0.48090
H          0.53130        7.49240       -1.22610
H         -0.65780        5.11160        2.96560
H         -2.19840        3.20830        2.79580
H         -4.63230        0.23790       -0.35650
H         -6.59780        0.17030       -1.77850
H         -9.89240        0.76170       -3.31730
H         -8.29540       -0.01230       -3.35430
H         -9.04190        0.44060       -1.78840
H         -6.77940        4.44180       -1.74210
H         -4.81300        4.51280       -0.27410
H          1.33550        3.97070        1.22980
H          2.86460        3.12190        0.86510
H          2.75950        3.88400       -1.48510
H          1.22120        4.70580       -1.16150
H          2.70670        5.27200       -0.38690
H         -0.16020       -0.33130       -4.28380
H         -2.44910        0.45670       -4.31350
H         -4.63390        1.02950       -3.78580
H         -4.26190        1.54650       -5.46630
H         -5.61250        2.28550       -4.57180
H         -1.10410        4.42290       -3.46610
H          1.21540        3.61280       -3.37910
H          4.01820        1.44800       -2.04380
H          6.05300        2.80210       -2.45230
H          6.45960        5.00620       -6.92330
H          6.86960        3.27270       -6.72100
H          8.13710        4.51620       -6.60650
H          4.42190        4.08130       -6.19130
H          2.41740        2.72840       -5.78650
H          4.42220       -4.29750       -6.36750
H          5.41460       -5.80770       -8.00700
H          6.13100       -7.40620       -9.58800
H          7.83050       -7.62330      -10.05930
H          7.30820       -6.06610       -9.36590
H          8.02980       -7.36020       -4.99770
H          6.99730       -5.85590       -3.33310
H          5.23460       -2.94070       -1.42850
H          4.46170       -3.83900        0.70600
H          2.11030       -5.33410        3.15750
H          2.24260       -4.24390        1.75850
H          3.66750       -4.55080        2.80320
H          3.30840       -7.46880       -1.23700
H          4.07330       -6.55530       -3.39390
H          6.96690       -3.14630       -5.80290
H          9.05070        2.58580       -4.38190
H         11.50750        4.30580       -6.17640
H         12.32900        3.55230       -4.81840
H         10.70410        4.21480       -4.60280
H         13.09110        1.17700       -7.86770
H         12.60510        2.87160       -7.74580
H         13.46400        2.11140       -6.41380
H         11.37530       -0.32510       -7.65360
