
  xtb     02032220243D
 energy: -225.576830822746 gnorm: 0.000231748678 xtb: 6.4.1 (unknown)
127138  0     0  0            999 V2000
   -3.6953    5.8767    5.8301 C   0  0  0  0  0  0  0  0  0  0  0  0
   -4.5289    6.6196    5.0669 C   0  0  0  0  0  0  0  0  0  0  0  0
   -4.5781    6.5502    3.5739 C   0  0  0  0  0  0  0  0  0  0  0  0
   -3.8967    5.8651    2.8433 O   0  0  0  0  0  0  0  0  0  0  0  0
   -5.5356    7.5880    3.1678 C   0  0  0  0  0  0  0  0  0  0  0  0
   -5.9436    7.9347    1.8954 C   0  0  0  0  0  0  0  0  0  0  0  0
   -6.8472    8.9776    1.7259 C   0  0  0  0  0  0  0  0  0  0  0  0
   -7.2999    9.3577    0.3533 C   0  0  0  0  0  0  0  0  0  0  0  0
   -7.3257    9.6701    2.8508 C   0  0  0  0  0  0  0  0  0  0  0  0
   -8.2906   10.7992    2.6808 C   0  0  0  0  0  0  0  0  0  0  0  0
   -6.9059    9.3181    4.1299 C   0  0  0  0  0  0  0  0  0  0  0  0
   -6.0093    8.2746    4.2991 C   0  0  0  0  0  0  0  0  0  0  0  0
   -5.4059    7.7017    5.4947 C   0  0  0  0  0  0  0  0  0  0  0  0
   -5.6602    8.0826    6.7838 C   0  0  0  0  0  0  0  0  0  0  0  0
   -6.5413    9.1259    7.1415 C   0  0  0  0  0  0  0  0  0  0  0  0
   -7.2400    9.9644    7.4966 N   0  0  0  0  0  0  0  0  0  0  0  0
   -5.0886    7.4949    7.9325 C   0  0  0  0  0  0  0  0  0  0  0  0
   -4.6678    7.0682    8.9118 N   0  0  0  0  0  0  0  0  0  0  0  0
   -2.9718    4.7348    5.3244 C   0  0  0  0  0  0  0  0  0  0  0  0
   -1.6336    4.5266    5.5969 C   0  0  0  0  0  0  0  0  0  0  0  0
   -0.9090    3.4984    4.9923 C   0  0  0  0  0  0  0  0  0  0  0  0
    0.4036    3.4462    5.3002 F   0  0  0  0  0  0  0  0  0  0  0  0
   -1.4476    2.5751    4.1045 C   0  0  0  0  0  0  0  0  0  0  0  0
   -2.8513    2.6955    3.9219 C   0  0  0  0  0  0  0  0  0  0  0  0
   -3.6081    3.7617    4.5145 C   0  0  0  0  0  0  0  0  0  0  0  0
   -4.9049    3.6708    4.2300 N   0  0  0  0  0  0  0  0  0  0  0  0
   -5.1400    2.3972    3.2836 S   0  0  0  0  0  0  0  0  0  0  0  0
   -3.6208    1.8824    3.2043 N   0  0  0  0  0  0  0  0  0  0  0  0
   -0.6995    1.5970    3.3654 C   0  0  0  0  0  0  0  0  0  0  0  0
    0.6588    1.4913    3.2299 C   0  0  0  0  0  0  0  0  0  0  0  0
    1.0608    0.4729    2.3356 C   0  0  0  0  0  0  0  0  0  0  0  0
    2.3731    0.1427    1.9500 C   0  0  0  0  0  0  0  0  0  0  0  0
    3.5393    0.7870    2.5684 C   0  0  0  0  0  0  0  0  0  0  0  0
    3.6670    0.8265    3.9568 C   0  0  0  0  0  0  0  0  0  0  0  0
    4.7771    1.4163    4.5281 C   0  0  0  0  0  0  0  0  0  0  0  0
    5.7711    1.9752    3.7422 C   0  0  0  0  0  0  0  0  0  0  0  0
    5.6483    1.9426    2.3598 C   0  0  0  0  0  0  0  0  0  0  0  0
    6.8355    2.6080    1.2365 S   0  0  0  0  0  0  0  0  0  0  0  0
    8.0498    3.4563    2.3151 C   0  0  0  0  0  0  0  0  0  0  0  0
    9.0668    4.1708    1.4453 C   0  0  0  0  0  0  0  0  0  0  0  0
    4.5330    1.3465    1.7795 C   0  0  0  0  0  0  0  0  0  0  0  0
    2.5012   -0.8243    0.9684 C   0  0  0  0  0  0  0  0  0  0  0  0
    1.3910   -1.5128    0.4143 C   0  0  0  0  0  0  0  0  0  0  0  0
    0.0837   -1.2279    0.8473 C   0  0  0  0  0  0  0  0  0  0  0  0
   -1.0566   -1.9926    0.3256 C   0  0  0  0  0  0  0  0  0  0  0  0
   -2.1983   -1.3585   -0.1520 C   0  0  0  0  0  0  0  0  0  0  0  0
   -3.2377   -2.1124   -0.6706 C   0  0  0  0  0  0  0  0  0  0  0  0
   -3.1491   -3.4887   -0.7247 C   0  0  0  0  0  0  0  0  0  0  0  0
   -2.0120   -4.1334   -0.2408 C   0  0  0  0  0  0  0  0  0  0  0  0
   -1.9659   -5.8923   -0.4194 S   0  0  0  0  0  0  0  0  0  0  0  0
   -0.6117   -6.4485    0.6702 C   0  0  0  0  0  0  0  0  0  0  0  0
   -0.9601   -6.3037    2.1386 C   0  0  0  0  0  0  0  0  0  0  0  0
   -0.9766   -3.3834    0.2914 C   0  0  0  0  0  0  0  0  0  0  0  0
   -0.0516   -0.2077    1.7761 C   0  0  0  0  0  0  0  0  0  0  0  0
   -1.5554    0.4127    2.4016 S   0  0  0  0  0  0  0  0  0  0  0  0
    1.7896   -2.4297   -0.5864 C   0  0  0  0  0  0  0  0  0  0  0  0
    3.1401   -2.4793   -0.7799 C   0  0  0  0  0  0  0  0  0  0  0  0
    4.0051   -1.3771    0.2725 S   0  0  0  0  0  0  0  0  0  0  0  0
    3.8338   -3.2979   -1.7138 C   0  0  0  0  0  0  0  0  0  0  0  0
    5.1791   -3.3373   -1.9845 C   0  0  0  0  0  0  0  0  0  0  0  0
    5.5277   -4.2665   -2.9805 C   0  0  0  0  0  0  0  0  0  0  0  0
    6.8868   -4.5296   -3.4899 C   0  0  0  0  0  0  0  0  0  0  0  0
    7.1460   -5.5198   -4.1369 O   0  0  0  0  0  0  0  0  0  0  0  0
    7.9212   -3.4645   -3.2017 C   0  0  0  0  0  0  0  0  0  0  0  0
    7.6028   -2.1755   -3.9613 C   0  0  0  0  0  0  0  0  0  0  0  0
    4.4279   -4.9798   -3.4525 C   0  0  0  0  0  0  0  0  0  0  0  0
    2.9602   -4.4383   -2.6937 S   0  0  0  0  0  0  0  0  0  0  0  0
    4.4099   -5.9578   -4.4810 C   0  0  0  0  0  0  0  0  0  0  0  0
    3.5336   -6.9831   -4.6332 C   0  0  0  0  0  0  0  0  0  0  0  0
    3.3602   -7.6337   -5.9644 C   0  0  0  0  0  0  0  0  0  0  0  0
    4.0731   -7.5121   -6.9310 O   0  0  0  0  0  0  0  0  0  0  0  0
    2.0939   -8.3884   -5.8560 C   0  0  0  0  0  0  0  0  0  0  0  0
    1.4102   -9.0754   -6.8408 C   0  0  0  0  0  0  0  0  0  0  0  0
    0.2074   -9.6996   -6.5300 C   0  0  0  0  0  0  0  0  0  0  0  0
   -0.5805  -10.4658   -7.5409 C   0  0  0  0  0  0  0  0  0  0  0  0
   -0.2597   -9.5905   -5.2174 C   0  0  0  0  0  0  0  0  0  0  0  0
   -1.4316  -10.1774   -4.9162 F   0  0  0  0  0  0  0  0  0  0  0  0
    0.4077   -8.9158   -4.2087 C   0  0  0  0  0  0  0  0  0  0  0  0
    1.6097   -8.3105   -4.5375 C   0  0  0  0  0  0  0  0  0  0  0  0
    2.5697   -7.5725   -3.7238 C   0  0  0  0  0  0  0  0  0  0  0  0
    2.6801   -7.6582   -2.3623 C   0  0  0  0  0  0  0  0  0  0  0  0
    1.7613   -8.3421   -1.5416 C   0  0  0  0  0  0  0  0  0  0  0  0
    1.0408   -8.8666   -0.8178 N   0  0  0  0  0  0  0  0  0  0  0  0
    3.7655   -7.1448   -1.6200 C   0  0  0  0  0  0  0  0  0  0  0  0
    4.6338   -6.7793   -0.9646 N   0  0  0  0  0  0  0  0  0  0  0  0
   -3.5218    6.1361    6.8663 H   0  0  0  0  0  0  0  0  0  0  0  0
   -5.5582    7.3907    1.0459 H   0  0  0  0  0  0  0  0  0  0  0  0
   -6.8319    8.7245   -0.3954 H   0  0  0  0  0  0  0  0  0  0  0  0
   -7.0457   10.3954    0.1399 H   0  0  0  0  0  0  0  0  0  0  0  0
   -8.3815    9.2603    0.2655 H   0  0  0  0  0  0  0  0  0  0  0  0
   -7.8544   11.5848    2.0648 H   0  0  0  0  0  0  0  0  0  0  0  0
   -9.1964   10.4561    2.1822 H   0  0  0  0  0  0  0  0  0  0  0  0
   -8.5628   11.2231    3.6432 H   0  0  0  0  0  0  0  0  0  0  0  0
   -7.2831    9.8699    4.9758 H   0  0  0  0  0  0  0  0  0  0  0  0
   -1.0960    5.2106    6.2362 H   0  0  0  0  0  0  0  0  0  0  0  0
    1.3622    2.1408    3.7158 H   0  0  0  0  0  0  0  0  0  0  0  0
    2.9086    0.3758    4.5785 H   0  0  0  0  0  0  0  0  0  0  0  0
    4.8779    1.4417    5.6029 H   0  0  0  0  0  0  0  0  0  0  0  0
    6.6278    2.4245    4.2175 H   0  0  0  0  0  0  0  0  0  0  0  0
    8.5328    2.7024    2.9375 H   0  0  0  0  0  0  0  0  0  0  0  0
    7.5019    4.1648    2.9369 H   0  0  0  0  0  0  0  0  0  0  0  0
    9.7943    4.6825    2.0718 H   0  0  0  0  0  0  0  0  0  0  0  0
    8.5751    4.9033    0.8095 H   0  0  0  0  0  0  0  0  0  0  0  0
    9.5901    3.4599    0.8103 H   0  0  0  0  0  0  0  0  0  0  0  0
    4.4423    1.3464    0.7038 H   0  0  0  0  0  0  0  0  0  0  0  0
   -2.2615   -0.2819   -0.1409 H   0  0  0  0  0  0  0  0  0  0  0  0
   -4.1227   -1.6191   -1.0436 H   0  0  0  0  0  0  0  0  0  0  0  0
   -3.9504   -4.0805   -1.1393 H   0  0  0  0  0  0  0  0  0  0  0  0
    0.2965   -5.9083    0.4017 H   0  0  0  0  0  0  0  0  0  0  0  0
   -0.4751   -7.4965    0.4020 H   0  0  0  0  0  0  0  0  0  0  0  0
   -1.1444   -5.2629    2.3988 H   0  0  0  0  0  0  0  0  0  0  0  0
   -1.8540   -6.8783    2.3689 H   0  0  0  0  0  0  0  0  0  0  0  0
   -0.1393   -6.6763    2.7482 H   0  0  0  0  0  0  0  0  0  0  0  0
   -0.0971   -3.8582    0.6968 H   0  0  0  0  0  0  0  0  0  0  0  0
    1.1010   -3.0147   -1.1705 H   0  0  0  0  0  0  0  0  0  0  0  0
    5.8765   -2.7158   -1.4529 H   0  0  0  0  0  0  0  0  0  0  0  0
    8.8919   -3.8477   -3.5199 H   0  0  0  0  0  0  0  0  0  0  0  0
    7.9563   -3.2703   -2.1289 H   0  0  0  0  0  0  0  0  0  0  0  0
    7.5802   -2.3666   -5.0319 H   0  0  0  0  0  0  0  0  0  0  0  0
    8.3683   -1.4297   -3.7619 H   0  0  0  0  0  0  0  0  0  0  0  0
    6.6389   -1.7697   -3.6632 H   0  0  0  0  0  0  0  0  0  0  0  0
    5.1536   -5.8453   -5.2646 H   0  0  0  0  0  0  0  0  0  0  0  0
    1.8144   -9.1245   -7.8404 H   0  0  0  0  0  0  0  0  0  0  0  0
   -0.1066  -10.4203   -8.5168 H   0  0  0  0  0  0  0  0  0  0  0  0
   -0.6680  -11.5081   -7.2355 H   0  0  0  0  0  0  0  0  0  0  0  0
   -1.5908  -10.0647   -7.6130 H   0  0  0  0  0  0  0  0  0  0  0  0
   -0.0243   -8.8697   -3.2223 H   0  0  0  0  0  0  0  0  0  0  0  0
  1  2  2  0  0  0  0
  2  3  1  0  0  0  0
  3  4  2  0  0  0  0
  3  5  1  0  0  0  0
  5  6  2  0  0  0  0
  6  7  1  0  0  0  0
  7  8  1  0  0  0  0
  7  9  2  0  0  0  0
  9 10  1  0  0  0  0
  9 11  1  0  0  0  0
 11 12  2  0  0  0  0
 12 13  1  0  0  0  0
 13 14  2  0  0  0  0
 14 15  1  0  0  0  0
 15 16  3  0  0  0  0
 14 17  1  0  0  0  0
 17 18  3  0  0  0  0
  1 19  1  0  0  0  0
 19 20  2  0  0  0  0
 20 21  1  0  0  0  0
 21 22  1  0  0  0  0
 21 23  2  0  0  0  0
 23 24  1  0  0  0  0
 24 25  1  0  0  0  0
 25 26  2  0  0  0  0
 26 27  1  0  0  0  0
 27 28  1  0  0  0  0
 23 29  1  0  0  0  0
 29 30  2  0  0  0  0
 30 31  1  0  0  0  0
 31 32  2  0  0  0  0
 32 33  1  0  0  0  0
 33 34  2  0  0  0  0
 34 35  1  0  0  0  0
 35 36  2  0  0  0  0
 36 37  1  0  0  0  0
 37 38  1  0  0  0  0
 38 39  1  0  0  0  0
 39 40  1  0  0  0  0
 37 41  2  0  0  0  0
 32 42  1  0  0  0  0
 42 43  2  0  0  0  0
 43 44  1  0  0  0  0
 44 45  1  0  0  0  0
 45 46  2  0  0  0  0
 46 47  1  0  0  0  0
 47 48  2  0  0  0  0
 48 49  1  0  0  0  0
 49 50  1  0  0  0  0
 50 51  1  0  0  0  0
 51 52  1  0  0  0  0
 49 53  2  0  0  0  0
 44 54  2  0  0  0  0
 54 55  1  0  0  0  0
 43 56  1  0  0  0  0
 56 57  2  0  0  0  0
 57 58  1  0  0  0  0
 57 59  1  0  0  0  0
 59 60  2  0  0  0  0
 60 61  1  0  0  0  0
 61 62  1  0  0  0  0
 62 63  2  0  0  0  0
 62 64  1  0  0  0  0
 64 65  1  0  0  0  0
 61 66  2  0  0  0  0
 66 67  1  0  0  0  0
 66 68  1  0  0  0  0
 68 69  2  0  0  0  0
 69 70  1  0  0  0  0
 70 71  2  0  0  0  0
 70 72  1  0  0  0  0
 72 73  2  0  0  0  0
 73 74  1  0  0  0  0
 74 75  1  0  0  0  0
 74 76  2  0  0  0  0
 76 77  1  0  0  0  0
 76 78  1  0  0  0  0
 78 79  2  0  0  0  0
 79 80  1  0  0  0  0
 80 81  2  0  0  0  0
 81 82  1  0  0  0  0
 82 83  3  0  0  0  0
 81 84  1  0  0  0  0
 84 85  3  0  0  0  0
 13  2  1  0  0  0  0
 25 19  1  0  0  0  0
 55 29  1  0  0  0  0
 67 59  1  0  0  0  0
 80 69  1  0  0  0  0
 12  5  1  0  0  0  0
 28 24  2  0  0  0  0
 54 31  1  0  0  0  0
 79 72  1  0  0  0  0
 41 33  1  0  0  0  0
 58 42  1  0  0  0  0
 53 45  1  0  0  0  0
  1 86  1  0  0  0  0
  6 87  1  0  0  0  0
  8 88  1  0  0  0  0
  8 89  1  0  0  0  0
  8 90  1  0  0  0  0
 10 91  1  0  0  0  0
 10 92  1  0  0  0  0
 10 93  1  0  0  0  0
 11 94  1  0  0  0  0
 20 95  1  0  0  0  0
 30 96  1  0  0  0  0
 34 97  1  0  0  0  0
 35 98  1  0  0  0  0
 36 99  1  0  0  0  0
 39100  1  0  0  0  0
 39101  1  0  0  0  0
 40102  1  0  0  0  0
 40103  1  0  0  0  0
 40104  1  0  0  0  0
 41105  1  0  0  0  0
 46106  1  0  0  0  0
 47107  1  0  0  0  0
 48108  1  0  0  0  0
 51109  1  0  0  0  0
 51110  1  0  0  0  0
 52111  1  0  0  0  0
 52112  1  0  0  0  0
 52113  1  0  0  0  0
 53114  1  0  0  0  0
 56115  1  0  0  0  0
 60116  1  0  0  0  0
 64117  1  0  0  0  0
 64118  1  0  0  0  0
 65119  1  0  0  0  0
 65120  1  0  0  0  0
 65121  1  0  0  0  0
 68122  1  0  0  0  0
 73123  1  0  0  0  0
 75124  1  0  0  0  0
 75125  1  0  0  0  0
 75126  1  0  0  0  0
 78127  1  0  0  0  0
M  END
