
  xtb     02132221133D
 energy: -430.455651004109 gnorm: 0.000983714429 xtb: 6.4.1 (unknown)
264285  0     0  0            999 V2000
    7.6379   -5.9591   -0.0891 C   0  0  0  0  0  0  0  0  0  0  0  0
    8.8897   -6.1562    0.4370 C   0  0  0  0  0  0  0  0  0  0  0  0
    9.5431   -5.3237    1.4560 C   0  0  0  0  0  0  0  0  0  0  0  0
    9.0343   -4.4533    2.1404 O   0  0  0  0  0  0  0  0  0  0  0  0
   10.9518   -5.7498    1.4790 C   0  0  0  0  0  0  0  0  0  0  0  0
   12.0004   -5.2586    2.2281 C   0  0  0  0  0  0  0  0  0  0  0  0
   13.2662   -5.8179    2.0791 C   0  0  0  0  0  0  0  0  0  0  0  0
   14.4125   -5.2924    2.8828 C   0  0  0  0  0  0  0  0  0  0  0  0
   13.4577   -6.8723    1.1737 C   0  0  0  0  0  0  0  0  0  0  0  0
   14.8133   -7.4811    1.0045 C   0  0  0  0  0  0  0  0  0  0  0  0
   12.3921   -7.3633    0.4229 C   0  0  0  0  0  0  0  0  0  0  0  0
   11.1346   -6.8048    0.5690 C   0  0  0  0  0  0  0  0  0  0  0  0
    9.8544   -7.1106   -0.0621 C   0  0  0  0  0  0  0  0  0  0  0  0
    9.6285   -8.1301   -0.9538 C   0  0  0  0  0  0  0  0  0  0  0  0
    8.3720   -8.5217   -1.4517 C   0  0  0  0  0  0  0  0  0  0  0  0
    7.3914   -8.9451   -1.8790 N   0  0  0  0  0  0  0  0  0  0  0  0
   10.6341   -8.9695   -1.4732 C   0  0  0  0  0  0  0  0  0  0  0  0
   11.3964   -9.6770   -1.9613 N   0  0  0  0  0  0  0  0  0  0  0  0
    6.6651   -5.0034    0.2203 C   0  0  0  0  0  0  0  0  0  0  0  0
    5.4975   -4.8125   -0.5507 C   0  0  0  0  0  0  0  0  0  0  0  0
    5.1225   -5.5008   -1.6825 N   0  0  0  0  0  0  0  0  0  0  0  0
    3.7468   -5.7807   -1.8037 C   0  0  0  0  0  0  0  0  0  0  0  0
    3.0524   -6.2643   -0.6930 C   0  0  0  0  0  0  0  0  0  0  0  0
    1.6903   -6.4396   -0.7478 C   0  0  0  0  0  0  0  0  0  0  0  0
    0.9894   -6.1478   -1.9172 C   0  0  0  0  0  0  0  0  0  0  0  0
   -0.7593   -6.3483   -1.8416 S   0  0  0  0  0  0  0  0  0  0  0  0
   -1.3583   -5.6481   -3.4032 C   0  0  0  0  0  0  0  0  0  0  0  0
    1.6852   -5.7262   -3.0429 C   0  0  0  0  0  0  0  0  0  0  0  0
    3.0542   -5.5417   -2.9848 C   0  0  0  0  0  0  0  0  0  0  0  0
    6.0169   -5.8716   -2.6930 C   0  0  0  0  0  0  0  0  0  0  0  0
    5.8163   -7.0485   -3.4089 C   0  0  0  0  0  0  0  0  0  0  0  0
    6.7324   -7.4539   -4.3592 C   0  0  0  0  0  0  0  0  0  0  0  0
    7.8742   -6.7001   -4.5912 C   0  0  0  0  0  0  0  0  0  0  0  0
    9.1488   -7.1967   -5.7072 S   0  0  0  0  0  0  0  0  0  0  0  0
    8.9470   -9.0011   -5.7618 C   0  0  0  0  0  0  0  0  0  0  0  0
    8.0471   -5.4906   -3.9201 C   0  0  0  0  0  0  0  0  0  0  0  0
    7.1236   -5.0725   -2.9900 C   0  0  0  0  0  0  0  0  0  0  0  0
    4.6721   -3.8326    0.0273 C   0  0  0  0  0  0  0  0  0  0  0  0
    3.1717   -3.1131   -0.4482 S   0  0  0  0  0  0  0  0  0  0  0  0
    3.1708   -2.1346    1.0135 C   0  0  0  0  0  0  0  0  0  0  0  0
    4.2495   -2.3942    1.8291 C   0  0  0  0  0  0  0  0  0  0  0  0
    4.3687   -1.9107    3.1291 N   0  0  0  0  0  0  0  0  0  0  0  0
    3.2517   -2.0588    3.9667 C   0  0  0  0  0  0  0  0  0  0  0  0
    2.4015   -3.1515    3.7991 C   0  0  0  0  0  0  0  0  0  0  0  0
    1.2460   -3.2788    4.5433 C   0  0  0  0  0  0  0  0  0  0  0  0
    0.9112   -2.3074    5.4747 C   0  0  0  0  0  0  0  0  0  0  0  0
   -0.5768   -2.3651    6.4282 S   0  0  0  0  0  0  0  0  0  0  0  0
   -1.6791   -3.3694    5.3912 C   0  0  0  0  0  0  0  0  0  0  0  0
    1.7845   -1.2467    5.6956 C   0  0  0  0  0  0  0  0  0  0  0  0
    2.9441   -1.1279    4.9592 C   0  0  0  0  0  0  0  0  0  0  0  0
    5.6287   -1.5129    3.5788 C   0  0  0  0  0  0  0  0  0  0  0  0
    5.9929   -1.5984    4.9202 C   0  0  0  0  0  0  0  0  0  0  0  0
    7.2495   -1.2057    5.3341 C   0  0  0  0  0  0  0  0  0  0  0  0
    8.1755   -0.7382    4.4129 C   0  0  0  0  0  0  0  0  0  0  0  0
    9.8058   -0.2179    4.8619 S   0  0  0  0  0  0  0  0  0  0  0  0
    9.5771    0.3402    6.5768 C   0  0  0  0  0  0  0  0  0  0  0  0
    7.8298   -0.6813    3.0684 C   0  0  0  0  0  0  0  0  0  0  0  0
    6.5686   -1.0482    2.6577 C   0  0  0  0  0  0  0  0  0  0  0  0
    5.1418   -3.3241    1.2284 C   0  0  0  0  0  0  0  0  0  0  0  0
    6.6971   -3.9510    1.6420 S   0  0  0  0  0  0  0  0  0  0  0  0
    2.0161   -1.2941    1.2144 C   0  0  0  0  0  0  0  0  0  0  0  0
    1.8777    0.0586    0.9995 C   0  0  0  0  0  0  0  0  0  0  0  0
    2.8960    0.9480    0.6425 N   0  0  0  0  0  0  0  0  0  0  0  0
    3.9000    1.2803    1.5686 C   0  0  0  0  0  0  0  0  0  0  0  0
    5.1658    1.6342    1.1120 C   0  0  0  0  0  0  0  0  0  0  0  0
    6.1523    2.0246    1.9969 C   0  0  0  0  0  0  0  0  0  0  0  0
    5.8825    2.0714    3.3579 C   0  0  0  0  0  0  0  0  0  0  0  0
    7.0449    2.5594    4.5901 S   0  0  0  0  0  0  0  0  0  0  0  0
    8.5415    2.9768    3.6547 C   0  0  0  0  0  0  0  0  0  0  0  0
    4.6151    1.7234    3.8161 C   0  0  0  0  0  0  0  0  0  0  0  0
    3.6338    1.3264    2.9346 C   0  0  0  0  0  0  0  0  0  0  0  0
    2.5417    1.8895   -0.3405 C   0  0  0  0  0  0  0  0  0  0  0  0
    2.7975    3.2521   -0.1869 C   0  0  0  0  0  0  0  0  0  0  0  0
    2.3559    4.1516   -1.1313 C   0  0  0  0  0  0  0  0  0  0  0  0
    1.6493    3.7172   -2.2499 C   0  0  0  0  0  0  0  0  0  0  0  0
    1.1073    4.9666   -3.3731 S   0  0  0  0  0  0  0  0  0  0  0  0
   -0.0419    4.0852   -4.4713 C   0  0  0  0  0  0  0  0  0  0  0  0
    1.4220    2.3595   -2.4258 C   0  0  0  0  0  0  0  0  0  0  0  0
    1.8673    1.4571   -1.4800 C   0  0  0  0  0  0  0  0  0  0  0  0
    0.5181    0.4504    1.0804 C   0  0  0  0  0  0  0  0  0  0  0  0
   -0.2955    1.9659    0.9169 S   0  0  0  0  0  0  0  0  0  0  0  0
   -1.8400    1.1739    1.1873 C   0  0  0  0  0  0  0  0  0  0  0  0
   -1.7030   -0.1776    1.4515 C   0  0  0  0  0  0  0  0  0  0  0  0
   -2.7674   -0.9652    1.9098 N   0  0  0  0  0  0  0  0  0  0  0  0
   -3.1806   -0.6904    3.2224 C   0  0  0  0  0  0  0  0  0  0  0  0
   -4.5064   -0.8589    3.6184 C   0  0  0  0  0  0  0  0  0  0  0  0
   -4.8803   -0.5811    4.9171 C   0  0  0  0  0  0  0  0  0  0  0  0
   -3.9445   -0.1207    5.8390 C   0  0  0  0  0  0  0  0  0  0  0  0
   -4.4802    0.2144    7.4941 S   0  0  0  0  0  0  0  0  0  0  0  0
   -2.9769   -0.1273    8.4616 C   0  0  0  0  0  0  0  0  0  0  0  0
   -2.6324    0.0867    5.4401 C   0  0  0  0  0  0  0  0  0  0  0  0
   -2.2567   -0.2014    4.1460 C   0  0  0  0  0  0  0  0  0  0  0  0
   -3.1603   -2.0816    1.1819 C   0  0  0  0  0  0  0  0  0  0  0  0
   -3.0118   -2.0743   -0.2070 C   0  0  0  0  0  0  0  0  0  0  0  0
   -3.4059   -3.1572   -0.9598 C   0  0  0  0  0  0  0  0  0  0  0  0
   -3.9489   -4.2769   -0.3427 C   0  0  0  0  0  0  0  0  0  0  0  0
   -4.5065   -5.6103   -1.3776 S   0  0  0  0  0  0  0  0  0  0  0  0
   -4.1091   -7.0706   -0.3735 C   0  0  0  0  0  0  0  0  0  0  0  0
   -4.0846   -4.3012    1.0375 C   0  0  0  0  0  0  0  0  0  0  0  0
   -3.6881   -3.2174    1.7936 C   0  0  0  0  0  0  0  0  0  0  0  0
   -0.3581   -0.5862    1.3548 C   0  0  0  0  0  0  0  0  0  0  0  0
    0.4706   -2.0872    1.5264 S   0  0  0  0  0  0  0  0  0  0  0  0
   -3.0409    1.8518    0.8671 C   0  0  0  0  0  0  0  0  0  0  0  0
   -3.1783    3.2229    0.6939 C   0  0  0  0  0  0  0  0  0  0  0  0
   -2.2776    4.1181    1.2499 N   0  0  0  0  0  0  0  0  0  0  0  0
   -1.9598    5.2771    0.5368 C   0  0  0  0  0  0  0  0  0  0  0  0
   -1.7936    6.5068    1.1694 C   0  0  0  0  0  0  0  0  0  0  0  0
   -1.6065    7.6470    0.4178 C   0  0  0  0  0  0  0  0  0  0  0  0
   -1.5913    7.5791   -0.9707 C   0  0  0  0  0  0  0  0  0  0  0  0
   -1.4658    9.0854   -1.8848 S   0  0  0  0  0  0  0  0  0  0  0  0
   -2.4882    8.6923   -3.3380 C   0  0  0  0  0  0  0  0  0  0  0  0
   -1.6836    6.3467   -1.6017 C   0  0  0  0  0  0  0  0  0  0  0  0
   -1.8600    5.2052   -0.8511 C   0  0  0  0  0  0  0  0  0  0  0  0
   -1.9955    3.9587    2.6173 C   0  0  0  0  0  0  0  0  0  0  0  0
   -0.7259    4.2198    3.1294 C   0  0  0  0  0  0  0  0  0  0  0  0
   -0.4605    3.9955    4.4653 C   0  0  0  0  0  0  0  0  0  0  0  0
   -1.4559    3.5180    5.3117 C   0  0  0  0  0  0  0  0  0  0  0  0
   -1.0504    3.2128    7.0082 S   0  0  0  0  0  0  0  0  0  0  0  0
   -2.6140    3.6142    7.8499 C   0  0  0  0  0  0  0  0  0  0  0  0
   -2.7257    3.2691    4.8092 C   0  0  0  0  0  0  0  0  0  0  0  0
   -2.9894    3.4905    3.4753 C   0  0  0  0  0  0  0  0  0  0  0  0
   -4.3511    3.5383   -0.0271 C   0  0  0  0  0  0  0  0  0  0  0  0
   -4.9485    4.9759   -0.7703 S   0  0  0  0  0  0  0  0  0  0  0  0
   -6.3275    4.0788   -1.4183 C   0  0  0  0  0  0  0  0  0  0  0  0
   -6.2469    2.6945   -1.1203 C   0  0  0  0  0  0  0  0  0  0  0  0
   -7.0821    1.7144   -1.5891 N   0  0  0  0  0  0  0  0  0  0  0  0
   -7.7231    1.7892   -2.8387 C   0  0  0  0  0  0  0  0  0  0  0  0
   -7.0857    2.3633   -3.9404 C   0  0  0  0  0  0  0  0  0  0  0  0
   -7.7682    2.5250   -5.1237 C   0  0  0  0  0  0  0  0  0  0  0  0
   -9.0892    2.0932   -5.2413 C   0  0  0  0  0  0  0  0  0  0  0  0
   -9.9136    2.4338   -6.7635 S   0  0  0  0  0  0  0  0  0  0  0  0
  -11.6669    2.3745   -6.2960 C   0  0  0  0  0  0  0  0  0  0  0  0
   -9.6889    1.4311   -4.1792 C   0  0  0  0  0  0  0  0  0  0  0  0
   -9.0130    1.2891   -2.9828 C   0  0  0  0  0  0  0  0  0  0  0  0
   -7.1719    0.5131   -0.8579 C   0  0  0  0  0  0  0  0  0  0  0  0
   -7.0174   -0.7148   -1.4937 C   0  0  0  0  0  0  0  0  0  0  0  0
   -7.0574   -1.8898   -0.7703 C   0  0  0  0  0  0  0  0  0  0  0  0
   -7.2715   -1.8521    0.6018 C   0  0  0  0  0  0  0  0  0  0  0  0
   -7.3177   -3.2895    1.6202 S   0  0  0  0  0  0  0  0  0  0  0  0
   -7.6366   -4.6316    0.4410 C   0  0  0  0  0  0  0  0  0  0  0  0
   -7.4500   -0.6251    1.2381 C   0  0  0  0  0  0  0  0  0  0  0  0
   -7.3978    0.5472    0.5179 C   0  0  0  0  0  0  0  0  0  0  0  0
   -5.1253    2.4203   -0.3221 C   0  0  0  0  0  0  0  0  0  0  0  0
   -4.4372    0.9524    0.3052 S   0  0  0  0  0  0  0  0  0  0  0  0
   -7.3955    4.6641   -2.0974 C   0  0  0  0  0  0  0  0  0  0  0  0
   -7.5257    5.9181   -2.6498 C   0  0  0  0  0  0  0  0  0  0  0  0
   -6.4907    6.9549   -2.7201 C   0  0  0  0  0  0  0  0  0  0  0  0
   -5.3876    6.9505   -2.1961 O   0  0  0  0  0  0  0  0  0  0  0  0
   -7.0331    8.0097   -3.5925 C   0  0  0  0  0  0  0  0  0  0  0  0
   -6.4634    9.2043   -3.9803 C   0  0  0  0  0  0  0  0  0  0  0  0
   -7.1672   10.0545   -4.8279 C   0  0  0  0  0  0  0  0  0  0  0  0
   -6.5590   11.3524   -5.2545 C   0  0  0  0  0  0  0  0  0  0  0  0
   -8.4438    9.6863   -5.2764 C   0  0  0  0  0  0  0  0  0  0  0  0
   -9.2084   10.5883   -6.1920 C   0  0  0  0  0  0  0  0  0  0  0  0
   -9.0152    8.4816   -4.8726 C   0  0  0  0  0  0  0  0  0  0  0  0
   -8.3151    7.6378   -4.0294 C   0  0  0  0  0  0  0  0  0  0  0  0
   -8.6602    6.3509   -3.4319 C   0  0  0  0  0  0  0  0  0  0  0  0
   -9.8547    5.6942   -3.6052 C   0  0  0  0  0  0  0  0  0  0  0  0
  -10.2628    4.5285   -2.9326 C   0  0  0  0  0  0  0  0  0  0  0  0
  -10.7055    3.6022   -2.4129 N   0  0  0  0  0  0  0  0  0  0  0  0
  -10.8720    6.1124   -4.4855 C   0  0  0  0  0  0  0  0  0  0  0  0
  -11.7343    6.3623   -5.2027 N   0  0  0  0  0  0  0  0  0  0  0  0
    7.3615   -6.6132   -0.9066 H   0  0  0  0  0  0  0  0  0  0  0  0
   11.8299   -4.4465    2.9192 H   0  0  0  0  0  0  0  0  0  0  0  0
   15.2026   -4.9251    2.2285 H   0  0  0  0  0  0  0  0  0  0  0  0
   14.8395   -6.0803    3.5026 H   0  0  0  0  0  0  0  0  0  0  0  0
   14.0891   -4.4795    3.5272 H   0  0  0  0  0  0  0  0  0  0  0  0
   14.7878   -8.2804    0.2690 H   0  0  0  0  0  0  0  0  0  0  0  0
   15.1705   -7.8887    1.9497 H   0  0  0  0  0  0  0  0  0  0  0  0
   15.5319   -6.7301    0.6778 H   0  0  0  0  0  0  0  0  0  0  0  0
   12.5643   -8.1734   -0.2678 H   0  0  0  0  0  0  0  0  0  0  0  0
    3.5923   -6.4848    0.2162 H   0  0  0  0  0  0  0  0  0  0  0  0
    1.1485   -6.7962    0.1147 H   0  0  0  0  0  0  0  0  0  0  0  0
   -1.0413   -6.2661   -4.2383 H   0  0  0  0  0  0  0  0  0  0  0  0
   -2.4420   -5.6560   -3.3274 H   0  0  0  0  0  0  0  0  0  0  0  0
   -0.9999   -4.6280   -3.5042 H   0  0  0  0  0  0  0  0  0  0  0  0
    1.1717   -5.5206   -3.9685 H   0  0  0  0  0  0  0  0  0  0  0  0
    3.5883   -5.1897   -3.8549 H   0  0  0  0  0  0  0  0  0  0  0  0
    4.9537   -7.6617   -3.1997 H   0  0  0  0  0  0  0  0  0  0  0  0
    6.5595   -8.3756   -4.8893 H   0  0  0  0  0  0  0  0  0  0  0  0
    8.1141   -9.2706   -6.4050 H   0  0  0  0  0  0  0  0  0  0  0  0
    8.8035   -9.3757   -4.7528 H   0  0  0  0  0  0  0  0  0  0  0  0
    9.8718   -9.3906   -6.1755 H   0  0  0  0  0  0  0  0  0  0  0  0
    8.9178   -4.8899   -4.1340 H   0  0  0  0  0  0  0  0  0  0  0  0
    7.2668   -4.1404   -2.4636 H   0  0  0  0  0  0  0  0  0  0  0  0
    2.6433   -3.9143    3.0735 H   0  0  0  0  0  0  0  0  0  0  0  0
    0.6148   -4.1384    4.3838 H   0  0  0  0  0  0  0  0  0  0  0  0
   -1.5745   -3.0587    4.3561 H   0  0  0  0  0  0  0  0  0  0  0  0
   -1.4534   -4.4254    5.5106 H   0  0  0  0  0  0  0  0  0  0  0  0
   -2.6879   -3.1667    5.7386 H   0  0  0  0  0  0  0  0  0  0  0  0
    1.5376   -0.5070    6.4420 H   0  0  0  0  0  0  0  0  0  0  0  0
    3.6105   -0.3013    5.1384 H   0  0  0  0  0  0  0  0  0  0  0  0
    5.2961   -1.9918    5.6446 H   0  0  0  0  0  0  0  0  0  0  0  0
    7.5025   -1.2849    6.3794 H   0  0  0  0  0  0  0  0  0  0  0  0
   10.4540    0.9324    6.8192 H   0  0  0  0  0  0  0  0  0  0  0  0
    9.5149   -0.5114    7.2481 H   0  0  0  0  0  0  0  0  0  0  0  0
    8.6822    0.9530    6.6320 H   0  0  0  0  0  0  0  0  0  0  0  0
    8.5569   -0.3417    2.3464 H   0  0  0  0  0  0  0  0  0  0  0  0
    6.3001   -0.9577    1.6165 H   0  0  0  0  0  0  0  0  0  0  0  0
    5.3694    1.6136    0.0515 H   0  0  0  0  0  0  0  0  0  0  0  0
    7.1239    2.2887    1.6126 H   0  0  0  0  0  0  0  0  0  0  0  0
    8.9197    2.0925    3.1512 H   0  0  0  0  0  0  0  0  0  0  0  0
    9.2633    3.3126    4.3927 H   0  0  0  0  0  0  0  0  0  0  0  0
    8.3285    3.7795    2.9549 H   0  0  0  0  0  0  0  0  0  0  0  0
    4.4085    1.7976    4.8735 H   0  0  0  0  0  0  0  0  0  0  0  0
    2.6464    1.0753    3.2941 H   0  0  0  0  0  0  0  0  0  0  0  0
    3.3200    3.6053    0.6892 H   0  0  0  0  0  0  0  0  0  0  0  0
    2.5340    5.2082   -1.0021 H   0  0  0  0  0  0  0  0  0  0  0  0
   -0.8077    3.5914   -3.8804 H   0  0  0  0  0  0  0  0  0  0  0  0
   -0.4921    4.8468   -5.1005 H   0  0  0  0  0  0  0  0  0  0  0  0
    0.4969    3.3747   -5.0915 H   0  0  0  0  0  0  0  0  0  0  0  0
    0.9000    1.9882   -3.2932 H   0  0  0  0  0  0  0  0  0  0  0  0
    1.6803    0.4016   -1.6175 H   0  0  0  0  0  0  0  0  0  0  0  0
   -5.2350   -1.2120    2.9047 H   0  0  0  0  0  0  0  0  0  0  0  0
   -5.9044   -0.7197    5.2285 H   0  0  0  0  0  0  0  0  0  0  0  0
   -2.5296   -1.0532    8.1141 H   0  0  0  0  0  0  0  0  0  0  0  0
   -3.3055   -0.2301    9.4910 H   0  0  0  0  0  0  0  0  0  0  0  0
   -2.2688    0.6921    8.3820 H   0  0  0  0  0  0  0  0  0  0  0  0
   -1.8918    0.4575    6.1292 H   0  0  0  0  0  0  0  0  0  0  0  0
   -1.2259   -0.0530    3.8605 H   0  0  0  0  0  0  0  0  0  0  0  0
   -2.5926   -1.2048   -0.6908 H   0  0  0  0  0  0  0  0  0  0  0  0
   -3.3058   -3.1400   -2.0341 H   0  0  0  0  0  0  0  0  0  0  0  0
   -3.1003   -6.9638    0.0119 H   0  0  0  0  0  0  0  0  0  0  0  0
   -4.1636   -7.9209   -1.0455 H   0  0  0  0  0  0  0  0  0  0  0  0
   -4.8315   -7.1886    0.4291 H   0  0  0  0  0  0  0  0  0  0  0  0
   -4.5008   -5.1624    1.5364 H   0  0  0  0  0  0  0  0  0  0  0  0
   -3.7947   -3.2535    2.8668 H   0  0  0  0  0  0  0  0  0  0  0  0
   -1.8505    6.5697    2.2458 H   0  0  0  0  0  0  0  0  0  0  0  0
   -1.5050    8.6069    0.9004 H   0  0  0  0  0  0  0  0  0  0  0  0
   -2.7846    9.6457   -3.7646 H   0  0  0  0  0  0  0  0  0  0  0  0
   -1.9094    8.1336   -4.0683 H   0  0  0  0  0  0  0  0  0  0  0  0
   -3.3572    8.1286   -3.0092 H   0  0  0  0  0  0  0  0  0  0  0  0
   -1.6197    6.2731   -2.6747 H   0  0  0  0  0  0  0  0  0  0  0  0
   -1.9306    4.2422   -1.3360 H   0  0  0  0  0  0  0  0  0  0  0  0
    0.0467    4.5914    2.4733 H   0  0  0  0  0  0  0  0  0  0  0  0
    0.5252    4.1844    4.8622 H   0  0  0  0  0  0  0  0  0  0  0  0
   -3.3537    2.8337    7.6965 H   0  0  0  0  0  0  0  0  0  0  0  0
   -2.3729    3.6896    8.9057 H   0  0  0  0  0  0  0  0  0  0  0  0
   -2.9777    4.5682    7.4813 H   0  0  0  0  0  0  0  0  0  0  0  0
   -3.5144    2.9025    5.4459 H   0  0  0  0  0  0  0  0  0  0  0  0
   -3.9811    3.2965    3.0944 H   0  0  0  0  0  0  0  0  0  0  0  0
   -6.0672    2.7107   -3.8505 H   0  0  0  0  0  0  0  0  0  0  0  0
   -7.2923    2.9957   -5.9703 H   0  0  0  0  0  0  0  0  0  0  0  0
  -11.8117    2.9267   -5.3723 H   0  0  0  0  0  0  0  0  0  0  0  0
  -12.2044    2.8592   -7.1049 H   0  0  0  0  0  0  0  0  0  0  0  0
  -11.9986    1.3448   -6.1976 H   0  0  0  0  0  0  0  0  0  0  0  0
  -10.6936    1.0508   -4.2588 H   0  0  0  0  0  0  0  0  0  0  0  0
   -9.4986    0.8145   -2.1445 H   0  0  0  0  0  0  0  0  0  0  0  0
   -6.8462   -0.7447   -2.5596 H   0  0  0  0  0  0  0  0  0  0  0  0
   -6.9029   -2.8255   -1.2827 H   0  0  0  0  0  0  0  0  0  0  0  0
   -6.7619   -4.8144   -0.1760 H   0  0  0  0  0  0  0  0  0  0  0  0
   -7.8552   -5.5073    1.0445 H   0  0  0  0  0  0  0  0  0  0  0  0
   -8.4989   -4.3777   -0.1677 H   0  0  0  0  0  0  0  0  0  0  0  0
   -7.6376   -0.6031    2.3007 H   0  0  0  0  0  0  0  0  0  0  0  0
   -7.5403    1.4967    1.0121 H   0  0  0  0  0  0  0  0  0  0  0  0
   -8.2414    4.0032   -2.2364 H   0  0  0  0  0  0  0  0  0  0  0  0
   -5.4818    9.4737   -3.6203 H   0  0  0  0  0  0  0  0  0  0  0  0
   -7.1956   12.1878   -4.9656 H   0  0  0  0  0  0  0  0  0  0  0  0
   -6.4464   11.3849   -6.3379 H   0  0  0  0  0  0  0  0  0  0  0  0
   -5.5815   11.4879   -4.7996 H   0  0  0  0  0  0  0  0  0  0  0  0
   -8.6467   10.7697   -7.1077 H   0  0  0  0  0  0  0  0  0  0  0  0
  -10.1670   10.1490   -6.4536 H   0  0  0  0  0  0  0  0  0  0  0  0
   -9.3855   11.5535   -5.7184 H   0  0  0  0  0  0  0  0  0  0  0  0
  -10.0004    8.2229   -5.2267 H   0  0  0  0  0  0  0  0  0  0  0  0
  1  2  2  0  0  0  0
  2  3  1  0  0  0  0
  3  4  2  0  0  0  0
  3  5  1  0  0  0  0
  5  6  2  0  0  0  0
  6  7  1  0  0  0  0
  7  8  1  0  0  0  0
  7  9  2  0  0  0  0
  9 10  1  0  0  0  0
  9 11  1  0  0  0  0
 11 12  2  0  0  0  0
 12 13  1  0  0  0  0
 13 14  2  0  0  0  0
 14 15  1  0  0  0  0
 15 16  3  0  0  0  0
 14 17  1  0  0  0  0
 17 18  3  0  0  0  0
  1 19  1  0  0  0  0
 19 20  2  0  0  0  0
 20 21  1  0  0  0  0
 21 22  1  0  0  0  0
 22 23  2  0  0  0  0
 23 24  1  0  0  0  0
 24 25  2  0  0  0  0
 25 26  1  0  0  0  0
 26 27  1  0  0  0  0
 25 28  1  0  0  0  0
 28 29  2  0  0  0  0
 21 30  1  0  0  0  0
 30 31  2  0  0  0  0
 31 32  1  0  0  0  0
 32 33  2  0  0  0  0
 33 34  1  0  0  0  0
 34 35  1  0  0  0  0
 33 36  1  0  0  0  0
 36 37  2  0  0  0  0
 20 38  1  0  0  0  0
 38 39  1  0  0  0  0
 39 40  1  0  0  0  0
 40 41  2  0  0  0  0
 41 42  1  0  0  0  0
 42 43  1  0  0  0  0
 43 44  2  0  0  0  0
 44 45  1  0  0  0  0
 45 46  2  0  0  0  0
 46 47  1  0  0  0  0
 47 48  1  0  0  0  0
 46 49  1  0  0  0  0
 49 50  2  0  0  0  0
 42 51  1  0  0  0  0
 51 52  2  0  0  0  0
 52 53  1  0  0  0  0
 53 54  2  0  0  0  0
 54 55  1  0  0  0  0
 55 56  1  0  0  0  0
 54 57  1  0  0  0  0
 57 58  2  0  0  0  0
 41 59  1  0  0  0  0
 59 60  1  0  0  0  0
 40 61  1  0  0  0  0
 61 62  2  0  0  0  0
 62 63  1  0  0  0  0
 63 64  1  0  0  0  0
 64 65  2  0  0  0  0
 65 66  1  0  0  0  0
 66 67  2  0  0  0  0
 67 68  1  0  0  0  0
 68 69  1  0  0  0  0
 67 70  1  0  0  0  0
 70 71  2  0  0  0  0
 63 72  1  0  0  0  0
 72 73  2  0  0  0  0
 73 74  1  0  0  0  0
 74 75  2  0  0  0  0
 75 76  1  0  0  0  0
 76 77  1  0  0  0  0
 75 78  1  0  0  0  0
 78 79  2  0  0  0  0
 62 80  1  0  0  0  0
 80 81  1  0  0  0  0
 81 82  1  0  0  0  0
 82 83  2  0  0  0  0
 83 84  1  0  0  0  0
 84 85  1  0  0  0  0
 85 86  2  0  0  0  0
 86 87  1  0  0  0  0
 87 88  2  0  0  0  0
 88 89  1  0  0  0  0
 89 90  1  0  0  0  0
 88 91  1  0  0  0  0
 91 92  2  0  0  0  0
 84 93  1  0  0  0  0
 93 94  2  0  0  0  0
 94 95  1  0  0  0  0
 95 96  2  0  0  0  0
 96 97  1  0  0  0  0
 97 98  1  0  0  0  0
 96 99  1  0  0  0  0
 99100  2  0  0  0  0
 83101  1  0  0  0  0
101102  1  0  0  0  0
 82103  1  0  0  0  0
103104  2  0  0  0  0
104105  1  0  0  0  0
105106  1  0  0  0  0
106107  2  0  0  0  0
107108  1  0  0  0  0
108109  2  0  0  0  0
109110  1  0  0  0  0
110111  1  0  0  0  0
109112  1  0  0  0  0
112113  2  0  0  0  0
105114  1  0  0  0  0
114115  2  0  0  0  0
115116  1  0  0  0  0
116117  2  0  0  0  0
117118  1  0  0  0  0
118119  1  0  0  0  0
117120  1  0  0  0  0
120121  2  0  0  0  0
104122  1  0  0  0  0
122123  1  0  0  0  0
123124  1  0  0  0  0
124125  2  0  0  0  0
125126  1  0  0  0  0
126127  1  0  0  0  0
127128  2  0  0  0  0
128129  1  0  0  0  0
129130  2  0  0  0  0
130131  1  0  0  0  0
131132  1  0  0  0  0
130133  1  0  0  0  0
133134  2  0  0  0  0
126135  1  0  0  0  0
135136  2  0  0  0  0
136137  1  0  0  0  0
137138  2  0  0  0  0
138139  1  0  0  0  0
139140  1  0  0  0  0
138141  1  0  0  0  0
141142  2  0  0  0  0
125143  1  0  0  0  0
143144  1  0  0  0  0
124145  1  0  0  0  0
145146  2  0  0  0  0
146147  1  0  0  0  0
147148  2  0  0  0  0
147149  1  0  0  0  0
149150  2  0  0  0  0
150151  1  0  0  0  0
151152  1  0  0  0  0
151153  2  0  0  0  0
153154  1  0  0  0  0
153155  1  0  0  0  0
155156  2  0  0  0  0
156157  1  0  0  0  0
157158  2  0  0  0  0
158159  1  0  0  0  0
159160  3  0  0  0  0
158161  1  0  0  0  0
161162  3  0  0  0  0
 13  2  1  0  0  0  0
 60 19  1  0  0  0  0
102 61  1  0  0  0  0
144103  1  0  0  0  0
157146  1  0  0  0  0
 12  5  1  0  0  0  0
 29 22  1  0  0  0  0
 37 30  1  0  0  0  0
 59 38  2  0  0  0  0
 71 64  1  0  0  0  0
 79 72  1  0  0  0  0
101 80  2  0  0  0  0
113106  1  0  0  0  0
121114  1  0  0  0  0
143122  2  0  0  0  0
156149  1  0  0  0  0
 50 43  1  0  0  0  0
 58 51  1  0  0  0  0
 92 85  1  0  0  0  0
100 93  1  0  0  0  0
134127  1  0  0  0  0
142135  1  0  0  0  0
  1163  1  0  0  0  0
  6164  1  0  0  0  0
  8165  1  0  0  0  0
  8166  1  0  0  0  0
  8167  1  0  0  0  0
 10168  1  0  0  0  0
 10169  1  0  0  0  0
 10170  1  0  0  0  0
 11171  1  0  0  0  0
 23172  1  0  0  0  0
 24173  1  0  0  0  0
 27174  1  0  0  0  0
 27175  1  0  0  0  0
 27176  1  0  0  0  0
 28177  1  0  0  0  0
 29178  1  0  0  0  0
 31179  1  0  0  0  0
 32180  1  0  0  0  0
 35181  1  0  0  0  0
 35182  1  0  0  0  0
 35183  1  0  0  0  0
 36184  1  0  0  0  0
 37185  1  0  0  0  0
 44186  1  0  0  0  0
 45187  1  0  0  0  0
 48188  1  0  0  0  0
 48189  1  0  0  0  0
 48190  1  0  0  0  0
 49191  1  0  0  0  0
 50192  1  0  0  0  0
 52193  1  0  0  0  0
 53194  1  0  0  0  0
 56195  1  0  0  0  0
 56196  1  0  0  0  0
 56197  1  0  0  0  0
 57198  1  0  0  0  0
 58199  1  0  0  0  0
 65200  1  0  0  0  0
 66201  1  0  0  0  0
 69202  1  0  0  0  0
 69203  1  0  0  0  0
 69204  1  0  0  0  0
 70205  1  0  0  0  0
 71206  1  0  0  0  0
 73207  1  0  0  0  0
 74208  1  0  0  0  0
 77209  1  0  0  0  0
 77210  1  0  0  0  0
 77211  1  0  0  0  0
 78212  1  0  0  0  0
 79213  1  0  0  0  0
 86214  1  0  0  0  0
 87215  1  0  0  0  0
 90216  1  0  0  0  0
 90217  1  0  0  0  0
 90218  1  0  0  0  0
 91219  1  0  0  0  0
 92220  1  0  0  0  0
 94221  1  0  0  0  0
 95222  1  0  0  0  0
 98223  1  0  0  0  0
 98224  1  0  0  0  0
 98225  1  0  0  0  0
 99226  1  0  0  0  0
100227  1  0  0  0  0
107228  1  0  0  0  0
108229  1  0  0  0  0
111230  1  0  0  0  0
111231  1  0  0  0  0
111232  1  0  0  0  0
112233  1  0  0  0  0
113234  1  0  0  0  0
115235  1  0  0  0  0
116236  1  0  0  0  0
119237  1  0  0  0  0
119238  1  0  0  0  0
119239  1  0  0  0  0
120240  1  0  0  0  0
121241  1  0  0  0  0
128242  1  0  0  0  0
129243  1  0  0  0  0
132244  1  0  0  0  0
132245  1  0  0  0  0
132246  1  0  0  0  0
133247  1  0  0  0  0
134248  1  0  0  0  0
136249  1  0  0  0  0
137250  1  0  0  0  0
140251  1  0  0  0  0
140252  1  0  0  0  0
140253  1  0  0  0  0
141254  1  0  0  0  0
142255  1  0  0  0  0
145256  1  0  0  0  0
150257  1  0  0  0  0
152258  1  0  0  0  0
152259  1  0  0  0  0
152260  1  0  0  0  0
154261  1  0  0  0  0
154262  1  0  0  0  0
154263  1  0  0  0  0
155264  1  0  0  0  0
M  END
