215

C          4.45230        5.78300       -3.03540
C          5.81520        5.74830       -2.89610
C          6.57290        7.02280       -2.83570
O          6.15010        8.13390       -3.07070
C          7.92200        6.64180       -2.37390
C          8.99390        7.44460       -2.04750
C         10.19070        6.85960       -1.64450
C         11.35630        7.72420       -1.28260
C         10.29460        5.46260       -1.58650
C         11.58870        4.81810       -1.19450
C          9.20510        4.65800       -1.91050
C          8.01290        5.24210       -2.29730
C          6.73450        4.66410       -2.69950
C          6.51330        3.35020       -3.05310
C          5.37240        2.93030       -3.75340
N          4.47350        2.54720       -4.36010
C          7.42040        2.30640       -2.80700
N          8.10350        1.41000       -2.58010
C          3.47280        4.85020       -2.66610
C          3.45610        3.77980       -1.75710
N          4.45220        3.38230       -0.89510
C          5.38220        4.23840       -0.29430
C          6.58270        3.69890        0.17200
C          7.53890        4.49810        0.76040
C          7.31920        5.86460        0.88920
S          8.49630        6.99270        1.55200
C          9.78650        5.91360        2.23830
C          6.10700        6.40190        0.46240
C          5.14590        5.60180       -0.11490
C          4.32610        2.08310       -0.33470
C          4.19110        1.92760        1.04420
C          3.93310        0.68380        1.57500
C          3.81030       -0.42550        0.74070
S          3.34690       -1.95430        1.48810
C          2.61790       -2.87940        0.10900
C          4.03380       -0.28740       -0.62220
C          4.28550        0.96180       -1.15660
C          2.18890        3.14790       -1.76960
S          1.52240        1.83630       -0.87790
C         -0.05270        2.09110       -1.62130
C         -0.03660        3.09040       -2.57840
N         -1.07680        3.48420       -3.38620
C         -0.83240        4.49660       -4.36340
C         -0.43410        4.12470       -5.64040
C         -0.18570        5.08160       -6.60540
C         -0.34270        6.42760       -6.30090
S         -0.04490        7.73840       -7.43910
C          0.71980        6.91460       -8.86400
C         -0.77070        6.79940       -5.02790
C         -1.01440        5.84210       -4.06680
C         -2.23740        2.72440       -3.60730
C         -2.23000        1.33500       -3.67090
C         -3.40540        0.63200       -3.86650
C         -4.60390        1.31120       -4.03190
S         -6.17340        0.52260       -4.22730
C         -5.85580       -1.19550       -3.73310
C         -4.60330        2.70510       -4.04480
C         -3.43720        3.40200       -3.82990
C          1.24580        3.70490       -2.61860
S          1.89800        5.07280       -3.44060
C         -1.08860        1.25060       -1.08570
C         -2.24600        1.59010       -0.41060
N         -2.68630        2.88890       -0.20960
C         -1.73220        3.90390       -0.04560
C         -1.89210        5.14780       -0.64790
C         -0.89430        6.10120       -0.56780
C          0.29520        5.81330        0.08610
S          1.67900        6.91000        0.12750
C          1.36240        8.04950       -1.25090
C          0.42850        4.60080        0.75670
C         -0.57990        3.66510        0.70600
C         -4.05660        3.16710       -0.19170
C         -4.56410        4.22570        0.56360
C         -5.91420        4.49410        0.56150
C         -6.79570        3.71060       -0.18230
S         -8.50180        4.16020       -0.12120
C         -9.32190        2.87740       -1.10930
C         -6.29920        2.64660       -0.91980
C         -4.94430        2.38270       -0.92140
C         -2.87760        0.43320        0.12220
S         -4.29920        0.15080        1.07340
C         -3.92320       -1.54510        1.15320
C         -2.78120       -1.88270        0.46880
N         -2.33220       -3.21050        0.33670
C         -1.28290       -3.67600        1.11860
C         -0.74720       -4.95070        0.91720
C          0.23580       -5.43330        1.75070
C          0.73300       -4.64950        2.78820
S          1.91930       -5.40110        3.87070
C          2.73320       -3.98770        4.66350
C          0.27110       -3.35180        2.93890
C         -0.71680       -2.86820        2.10410
C         -3.23710       -4.06280       -0.32380
C         -3.79610       -3.62910       -1.52310
C         -4.74030       -4.39050       -2.18240
C         -5.14640       -5.60450       -1.64710
S         -6.35080       -6.64720       -2.40810
C         -7.28500       -5.48840       -3.45120
C         -4.58000       -6.05050       -0.45560
C         -3.64030       -5.28920        0.20420
C         -2.18550       -0.74300       -0.11450
S         -0.73660       -0.47490       -1.00260
C         -4.61300       -2.52360        1.99620
C         -4.03150       -2.80720        3.25730
N         -3.08570       -1.97190        3.74430
C         -2.51580       -2.27730        4.86610
C         -2.87260       -3.45460        5.58670
O         -2.23760       -3.70840        6.72260
C         -2.60330       -4.90210        7.41200
C         -1.71210       -5.03730        8.63230
N         -3.81240       -4.25800        5.15170
C         -4.39940       -3.96690        3.97460
C         -5.37570       -4.85310        3.43820
C         -6.03210       -4.46480        2.28820
C         -5.64400       -3.32430        1.56480
F         -6.24790       -3.07090        0.39190
F         -6.98290       -5.25300        1.76960
C         -5.61910       -6.12050        4.10140
C         -4.59310       -6.89440        4.51420
C         -3.17000       -6.67350        4.10250
O         -2.76110       -5.94830        3.22100
C         -2.37900       -7.60340        4.91230
C         -1.00550       -7.72820        4.98460
C         -0.45260       -8.68100        5.83250
C          1.03190       -8.81190        5.92790
C         -1.29880       -9.51170        6.58780
C         -0.71430      -10.54720        7.49360
C         -2.68230       -9.38380        6.50240
C         -3.23630       -8.42630        5.66650
C         -4.61960       -8.05460        5.39880
C         -5.73010       -8.65800        5.92030
C         -5.69000       -9.76660        6.79320
N         -5.72200      -10.66570        7.50570
C         -7.06140       -8.26550        5.66310
N         -8.16700       -7.99710        5.51140
H          4.06590        6.71370       -3.44220
H          8.89720        8.51800       -2.10860
H         11.62270        7.58700       -0.23470
H         11.11730        8.77220       -1.43940
H         12.22850        7.46920       -1.88320
H         12.34160        4.99690       -1.96240
H         11.97300        5.23140       -0.26270
H         11.46610        3.74390       -1.08150
H          9.30150        3.58490       -1.84960
H          6.77440        2.64230        0.05370
H          8.45620        4.04430        1.09680
H         10.49900        6.57700        2.71860
H          9.35240        5.24410        2.97470
H         10.27250        5.35970        1.44120
H          5.92390        7.45750        0.58890
H          4.19920        6.03100       -0.39970
H          4.25060        2.79400        1.68640
H          3.78980        0.56230        2.63760
H          2.08150       -3.71160        0.55500
H          3.39740       -3.25280       -0.54870
H          1.92300       -2.23470       -0.42100
H          3.99630       -1.13890       -1.28170
H          4.41850        1.07070       -2.22180
H         -0.30690        3.07790       -5.87450
H          0.13140        4.76430       -7.58510
H          1.59810        6.36420       -8.54010
H          1.01180        7.71240       -9.53970
H          0.00060        6.26430       -9.35350
H         -0.90410        7.84720       -4.80610
H         -1.33790        6.12590       -3.07980
H         -1.29970        0.79440       -3.59620
H         -3.36540       -0.44540       -3.90030
H         -5.21470       -1.68300       -4.46240
H         -6.82810       -1.67850       -3.71730
H         -5.41840       -1.21900       -2.73910
H         -5.53230        3.23020       -4.20360
H         -3.44730        4.48100       -3.82860
H         -2.80140        5.35950       -1.19110
H         -1.04510        7.06610       -1.02630
H          1.10530        7.48070       -2.14030
H          0.57780        8.75280       -0.98650
H          2.29430        8.58430       -1.40860
H          1.33410        4.39800        1.30820
H         -0.46980        2.72790        1.23080
H         -3.89510        4.83180        1.15570
H         -6.30590        5.31390        1.14400
H        -10.38180        3.10810       -1.06500
H         -9.13740        1.90070       -0.67190
H         -8.97800        2.92030       -2.13870
H         -6.94610        2.01910       -1.51030
H         -4.56800        1.56440       -1.51230
H         -1.10940       -5.56720        0.10990
H          0.62560       -6.43010        1.60770
H          2.06470       -3.52800        5.38630
H          3.04230       -3.27830        3.90160
H          3.60250       -4.39300        5.17200
H          0.66430       -2.70680        3.70830
H         -1.07550       -1.86050        2.24550
H         -3.48260       -2.68240       -1.93900
H         -5.15170       -4.02990       -3.11130
H         -7.53570       -4.60790       -2.86760
H         -8.18920       -6.01380       -3.74140
H         -6.71390       -5.22680       -4.33770
H         -4.90670       -6.99140       -0.03950
H         -3.24160       -5.62100        1.14960
H         -1.76720       -1.60350        5.25570
H         -3.66150       -4.84270        7.69150
H         -2.47600       -5.75440        6.73510
H         -0.67080       -5.09620        8.32770
H         -1.83650       -4.17810        9.28560
H         -1.97510       -5.93970        9.17620
H         -6.64940       -6.39700        4.27840
H         -0.37530       -7.08070        4.39330
H          1.52070       -8.06830        5.30420
H          1.34880       -9.80320        5.60520
H          1.36420       -8.68150        6.95710
H         -0.08040      -10.08160        8.24750
H         -0.09390      -11.24110        6.92770
H         -1.49670      -11.10960        7.99540
H         -3.30710      -10.03560        7.09170
