206

C          9.45950        0.54580       -1.05510
C         10.03980       -0.68570       -0.88420
C          9.31490       -1.91590       -0.50100
O          8.12570       -2.05390       -0.26500
C         10.29970       -3.00610       -0.61420
C         10.13810       -4.35330       -0.36560
C         11.21070       -5.21900       -0.55440
C         11.04910       -6.68020       -0.27670
C         12.43790       -4.71340       -1.00680
C         13.59760       -5.63360       -1.22110
C         12.59030       -3.35310       -1.26450
C         11.52460       -2.49270       -1.06880
C         11.39140       -1.04900       -1.24240
C         12.39960       -0.18970       -1.60060
C         13.70670       -0.60170       -1.92660
N         14.78520       -0.87800       -2.21020
C         12.28250        1.21360       -1.67090
N         12.28570        2.36080       -1.73230
C          8.22940        0.93930       -0.48380
C          7.36110        1.84590       -1.13690
C          6.00770        2.11560       -0.68640
N          5.34650        2.88000       -1.55470
S          6.31610        3.24870       -2.78250
N          7.61900        2.44140       -2.29940
C          5.47650        1.51410        0.47840
C          6.41150        0.73520        1.20540
N          6.15150        0.15680        2.37820
S          7.46580       -0.61820        2.88360
N          8.42260       -0.27150        1.64420
C          7.74870        0.45750        0.75450
C          4.11520        1.45740        0.84200
C          2.99100        2.15630        0.36400
N          2.97510        3.39090       -0.22200
C          1.88450        3.63540       -1.10470
C          1.89430        3.05960       -2.36990
C          0.76100        3.11740       -3.15600
C         -0.38890        3.73280       -2.67170
S         -1.88430        3.57280       -3.60380
C         -3.08440        3.25960       -2.26870
C         -0.35470        4.41360       -1.46070
C          0.78400        4.36930       -0.67860
C          3.90550        4.39490        0.00890
C          4.04080        5.43190       -0.91610
C          4.95430        6.44590       -0.71840
C          5.74950        6.45640        0.42110
S          6.96250        7.67960        0.78040
C          6.96550        8.74440       -0.68960
C          5.58650        5.44670        1.37090
C          4.67620        4.43580        1.17500
C          1.81390        1.41060        0.62500
S          0.14420        1.60480        0.22600
C         -0.24460        0.05530        0.96700
C          0.84520       -0.51570        1.59730
N          0.82020       -1.66190        2.36760
C         -0.31910       -2.02200        3.09870
C         -1.18450       -1.06810        3.63170
C         -2.27840       -1.45250        4.37960
C         -2.50680       -2.79800        4.63220
S         -3.85000       -3.33320        5.65660
C         -3.81590       -2.06610        6.96480
C         -1.65750       -3.75710        4.09280
C         -0.57550       -3.37340        3.32870
C          2.05230       -2.27820        2.69260
C          2.45570       -2.42890        4.01840
C          3.71660       -2.90510        4.30410
C          4.59810       -3.25040        3.27930
S          6.22630       -3.73530        3.75120
C          7.05350       -4.14530        2.18660
C          4.17190       -3.17290        1.96260
C          2.91020       -2.68620        1.67900
C          2.01220        0.25530        1.36500
S          3.66270        0.07640        1.83910
C         -1.58820       -0.41970        0.76290
C         -2.00920       -1.48000       -0.01800
N         -1.19960       -2.44150       -0.60650
C         -1.66360       -3.76330       -0.62180
C         -2.39440       -4.25550        0.45650
C         -2.88570       -5.54620        0.44830
C         -2.64910       -6.37170       -0.64180
S         -3.21880       -8.03800       -0.76500
C         -4.31860       -8.22720        0.66670
C         -1.91040       -5.88550       -1.71960
C         -1.42700       -4.59700       -1.71530
C          0.00580       -2.06820       -1.20460
C          0.12590       -0.81810       -1.81400
C          1.35220       -0.36820       -2.24520
C          2.48660       -1.16200       -2.10580
S          4.04840       -0.43480       -2.51690
C          5.21510       -1.43090       -1.54960
C          2.34280       -2.46360       -1.64570
C          1.11510       -2.90900       -1.18710
C         -3.41430       -1.44680       -0.20290
S         -4.50510       -2.32600       -1.21270
C         -5.79150       -1.18560       -0.85310
C         -5.40740       -0.23070        0.08030
N         -6.24420        0.61930        0.79250
C         -7.16650        1.46440        0.14210
C         -8.53590        1.29950        0.31680
C         -9.43030        2.10210       -0.36640
C         -8.96200        3.09130       -1.22150
S         -9.99950        4.12830       -2.19890
C        -11.68560        3.57400       -1.82210
C         -7.58850        3.29710       -1.34810
C         -6.69740        2.49470       -0.67050
C         -6.37970        0.39080        2.16590
C         -6.08590       -0.85210        2.72560
C         -6.26120       -1.07680        4.07510
C         -6.74290       -0.06380        4.89190
S         -7.01770       -0.29640        6.62740
C         -7.52260       -2.04300        6.69810
C         -7.01210        1.18770        4.34660
C         -6.83050        1.41510        2.99990
C         -4.04310       -0.38500        0.41880
S         -2.92460        0.60920        1.27410
C         -7.06160       -1.30040       -1.49800
C         -7.54740       -0.28700       -2.26340
C         -6.65850        0.72870       -2.89450
O         -5.46470        0.86450       -2.72570
C         -7.51500        1.45330       -3.84330
C         -7.18420        2.48060       -4.70240
C         -8.17560        3.06420       -5.48500
C         -7.83590        4.20500       -6.38800
C         -9.49200        2.58410       -5.41170
C        -10.56670        3.21000       -6.23960
C         -9.81470        1.53490       -4.55520
C         -8.83390        0.97330       -3.75770
C         -8.89030       -0.07140       -2.74630
C        -10.02140       -0.61930       -2.19630
C         -9.99640       -1.53690       -1.12760
N        -10.02970       -2.26570       -0.24070
C        -11.32370       -0.22400       -2.54920
N        -12.39780        0.11660       -2.77490
H          9.92340        1.26930       -1.71360
H          9.18290       -4.72420       -0.02320
H         11.25200       -7.26540       -1.17320
H         11.74960       -7.00430        0.49240
H         10.03900       -6.89910        0.05920
H         14.46760       -5.08210       -1.56650
H         13.85570       -6.14650       -0.29510
H         13.35150       -6.39450       -1.96120
H         13.54130       -2.98940       -1.61930
H          2.78440        2.54500       -2.70140
H          0.73860        2.64860       -4.12800
H         -2.57020        2.77220       -1.44590
H         -3.83940        2.59350       -2.67800
H         -3.53910        4.19170       -1.94400
H         -1.22400        4.94780       -1.11100
H          0.80710        4.86250        0.28160
H          3.44030        5.42610       -1.81260
H          5.03940        7.21980       -1.46390
H          6.00410        9.23840       -0.79550
H          7.74060        9.48310       -0.51150
H          7.21050        8.15820       -1.57030
H          6.18480        5.47230        2.26890
H          4.55520        3.67790        1.93280
H         -0.98880       -0.01730        3.48170
H         -2.94160       -0.69860        4.77460
H         -2.78230       -1.85510        7.21910
H         -4.32860       -1.16430        6.64290
H         -4.32890       -2.49440        7.82040
H         -1.84880       -4.80210        4.28270
H          0.09100       -4.11630        2.91680
H          1.78910       -2.14180        4.81810
H          4.04660       -2.98990        5.32800
H          8.05430       -4.45700        2.47150
H          6.53500       -4.96940        1.70420
H          7.11540       -3.27860        1.53290
H          4.81900       -3.45900        1.14920
H          2.58910       -2.58620        0.65630
H         -2.57150       -3.62570        1.31630
H         -3.44350       -5.89200        1.30320
H         -4.76520       -9.21110        0.56350
H         -3.74720       -8.17870        1.58920
H         -5.09160       -7.46530        0.63950
H         -1.73300       -6.53090       -2.56620
H         -0.87450       -4.22250       -2.56370
H         -0.74610       -0.19190       -1.92790
H          1.44310        0.61300       -2.67830
H          5.32690       -2.41910       -1.98580
H          6.17090       -0.91770       -1.58640
H          4.87110       -1.48940       -0.52080
H          3.18830       -3.13320       -1.61370
H          1.02420       -3.90640       -0.78210
H         -8.90120        0.52080        0.97050
H        -10.48760        1.93590       -0.23350
H        -12.33650        4.21160       -2.41230
H        -11.89500        3.71500       -0.76600
H        -11.82090        2.53770       -2.11920
H         -7.23600        4.09080       -1.98880
H         -5.63360        2.64180       -0.77540
H         -5.73690       -1.66170        2.10270
H         -6.03010       -2.05090        4.47550
H         -7.95360       -2.18760        7.68370
H         -6.66720       -2.69940        6.57000
H         -8.26960       -2.22560        5.93200
H         -7.36970        1.97750        4.98910
H         -7.04990        2.38520        2.58000
H         -7.60470       -2.23110       -1.38920
H         -6.16480        2.83440       -4.74820
H         -6.77710        4.44110       -6.32890
H         -8.08200        3.96440       -7.42170
H         -8.40760        5.08990       -6.11050
H        -11.51740        2.70780       -6.08360
H        -10.68030        4.26030       -5.97260
H        -10.31590        3.16360       -7.29860
H        -10.83080        1.17360       -4.52400
