212

C          8.75220       -0.87740       -0.90210
C          9.56560       -1.98830       -0.84340
C          9.08420       -3.37010       -1.01680
O          7.93700       -3.73500       -1.19900
C         10.30070       -4.20660       -1.06100
C         10.41770       -5.57030       -1.21760
C         11.68210       -6.15410       -1.21460
C         11.81980       -7.63560       -1.37260
C         12.81830       -5.34800       -1.06440
C         14.18340       -5.96130       -1.06720
C         12.69080       -3.96890       -0.91370
C         11.43410       -3.39310       -0.90800
C         10.99810       -2.00920       -0.74790
C         11.79800       -0.94830       -0.39660
C         13.18480       -1.04540       -0.18710
N         14.31630       -1.06990        0.01440
C         11.31800        0.34640       -0.12070
N         10.99230        1.41540        0.14690
C          7.38540       -0.84370       -0.61220
C          6.58550       -1.67210        0.20230
N          7.01970       -2.64610        1.05340
C          8.30880       -2.65760        1.60310
C          8.92970       -1.47940        2.01680
C         10.21400       -1.51070        2.51640
C         10.91920       -2.70790        2.62100
C         12.33280       -2.71300        3.11120
C         10.27780       -3.88150        2.24940
C          8.98880       -3.86460        1.74980
C          6.12860       -3.67330        1.43310
C          5.37580       -4.34100        0.47310
C          4.50020       -5.33690        0.85780
C          4.35750       -5.69000        2.19450
C          3.38010       -6.74550        2.61030
C          5.12960       -5.02730        3.14200
C          6.00860       -4.02880        2.77240
C          5.22930       -1.26830        0.13540
S          3.78100       -1.80620        0.91440
C          2.86740       -0.51850        0.15480
C          3.65990        0.31800       -0.61380
N          3.23500        1.49150       -1.20760
C          3.75570        1.83650       -2.45780
C          4.09460        0.83950       -3.37100
C          4.62770        1.17130       -4.60070
C          4.82880        2.49700       -4.96150
C          5.41810        2.85880       -6.29040
C          4.48610        3.48660       -4.04640
C          3.96350        3.16920       -2.80910
C          2.35090        2.33810       -0.52240
C          1.35150        3.03280       -1.20050
C          0.52040        3.89960       -0.52150
C          0.65920        4.10970        0.84650
C         -0.21020        5.10770        1.54770
C          1.63920        3.39310        1.52080
C          2.47240        2.51680        0.85320
C          5.00190       -0.13200       -0.62770
S          6.45470        0.48850       -1.31680
C          1.44140       -0.42070        0.35570
C          0.85120       -0.69360        1.57560
F          1.61180       -1.05250        2.62640
C         -0.53240       -0.61740        1.78530
F         -0.99920       -1.02990        2.97380
C         -1.39380       -0.19310        0.79910
C         -0.82740        0.03690       -0.48690
N         -1.65150        0.34580       -1.49930
C         -1.18300        0.41480       -2.71900
C         -2.21430        0.64120       -3.78370
C         -2.92300       -0.68230       -4.08890
C          0.19720        0.17570       -2.97280
N          1.02760       -0.05290       -1.98390
C          0.56090       -0.11190       -0.72400
C          0.76770        0.15400       -4.35950
C          1.01730        1.56130       -4.90800
C         -2.83060       -0.02530        0.94390
C         -3.52870        0.91290        1.67670
N         -2.96570        1.86910        2.51340
C         -2.21140        1.47090        3.63540
C         -0.95260        2.01870        3.85610
C         -0.21080        1.61980        4.94890
C         -0.70340        0.67450        5.84280
C          0.12990        0.22460        7.00320
C         -1.96480        0.14110        5.61640
C         -2.71750        0.53170        4.52510
C         -3.31340        3.20610        2.33040
C         -3.32880        4.09620        3.40340
C         -3.67560        5.41610        3.20560
C         -4.02720        5.89080        1.94660
C         -4.39970        7.32970        1.75480
C         -4.00650        5.00040        0.88200
C         -3.64680        3.67870        1.06150
C         -4.91590        0.86890        1.37920
S         -6.26220        1.81380        1.89970
C         -7.32930        0.87280        0.85130
C         -6.61190       -0.06660        0.06710
N         -7.13670       -0.82890       -0.94060
C         -8.16190       -0.36850       -1.78940
C         -8.23240        0.96990       -2.16830
C         -9.25750        1.40270       -2.98500
C        -10.22000        0.51910       -3.46000
C        -11.35290        0.99310       -4.31700
C        -10.11720       -0.82130       -3.10750
C         -9.10610       -1.26660       -2.27950
C         -6.50790       -2.04910       -1.25850
C         -6.19340       -2.35960       -2.57700
C         -5.56620       -3.55380       -2.87420
C         -5.24170       -4.46140       -1.87410
C         -4.54750       -5.75040       -2.18860
C         -5.57060       -4.14560       -0.56000
C         -6.19670       -2.95630       -0.24910
C         -5.25160       -0.08000        0.42350
S         -3.86060       -0.96360       -0.11280
C         -8.72140        0.94760        0.85330
C         -9.57010        1.82330        1.49030
C         -9.17460        3.00670        2.26080
O         -8.04690        3.35830        2.56300
C        -10.42620        3.71050        2.58980
C        -10.60870        4.88530        3.28790
C        -11.89840        5.37040        3.48380
C        -12.10990        6.64380        4.23970
C        -12.99170        4.65820        2.97070
C        -14.38360        5.16700        3.17610
C        -12.79730        3.47170        2.26710
C        -11.51480        2.99100        2.07090
C        -11.01080        1.79340        1.40130
C        -11.79200        0.82380        0.81850
C        -11.32960       -0.38890        0.27470
N        -11.04670       -1.41510       -0.16120
C        -13.19400        0.90210        0.70860
N        -14.33450        0.90800        0.56720
H          9.18240        0.06060       -1.23280
H          9.53050       -6.17540       -1.33320
H         12.33080       -8.06900       -0.51330
H         12.40860       -7.87270       -2.25830
H         10.84420       -8.10440       -1.46940
H         14.27870       -6.69010       -0.26270
H         14.36770       -6.48230       -2.00630
H         14.94730       -5.19970       -0.93710
H         13.57930       -3.36640       -0.81030
H          8.40460       -0.53900        1.94160
H         10.68410       -0.58800        2.82410
H         12.99310       -2.27750        2.36050
H         12.42750       -2.11710        4.01700
H         12.67070       -3.72540        3.31620
H         10.79780       -4.82470        2.33430
H          8.50560       -4.78430        1.45620
H          5.50990       -4.08910       -0.56710
H          3.92130       -5.85300        0.10580
H          3.19560       -7.44680        1.80000
H          3.74310       -7.29250        3.47740
H          2.43040       -6.28190        2.87910
H          5.03580       -5.29200        4.18510
H          6.60040       -3.51590        3.51650
H          3.92290       -0.19440       -3.11330
H          4.88490        0.38440       -5.29520
H          4.91540        3.72630       -6.71340
H          5.33970        2.02970       -6.98950
H          6.47340        3.10770       -6.17540
H          4.64110        4.52440       -4.30400
H          3.71860        3.95170       -2.10640
H          1.23560        2.89420       -2.26450
H         -0.24810        4.43310       -1.06220
H         -0.02580        6.10600        1.15100
H         -0.01150        5.12360        2.61650
H         -1.26310        4.88020        1.39090
H          1.77310        3.53720        2.58340
H          3.24020        1.98540        1.39620
H         -1.77160        1.04410       -4.69240
H         -2.94870        1.35030       -3.39950
H         -2.21720       -1.42000       -4.46550
H         -3.69640       -0.52880       -4.83730
H         -3.38200       -1.07580       -3.18480
H          1.71670       -0.38060       -4.32540
H          0.08540       -0.38120       -5.02250
H          1.35100        1.49920       -5.94080
H          0.11650        2.17000       -4.87110
H          1.79460        2.05670       -4.33380
H         -0.56510        2.74040        3.15360
H          0.77390        2.03660        5.10720
H          0.65720        1.06450        7.45140
H         -0.48410       -0.25360        7.76220
H          0.87450       -0.49550        6.66280
H         -2.36420       -0.59300        6.30090
H         -3.69550        0.10720        4.35160
H         -3.07800        3.74280        4.39220
H         -3.68750        6.09170        4.04880
H         -5.13380        7.63580        2.49800
H         -3.52220        7.96680        1.87100
H         -4.81560        7.49520        0.76410
H         -4.26820        5.34570       -0.10840
H         -3.61500        3.00720        0.21550
H         -7.48890        1.66820       -1.81290
H         -9.30600        2.44590       -3.26300
H        -11.49340        0.33200       -5.17000
H        -11.17470        2.00290       -4.67850
H        -12.27900        0.99280       -3.74150
H        -10.85220       -1.52460       -3.46830
H         -9.05200       -2.30570       -1.99590
H         -6.43670       -1.65900       -3.36200
H         -5.31900       -3.77910       -3.90150
H         -3.54660       -5.75160       -1.75780
H         -4.46150       -5.89620       -3.26220
H         -5.09260       -6.59150       -1.76330
H         -5.33560       -4.84490        0.22890
H         -6.45630       -2.72400        0.77300
H         -9.20020        0.18710        0.24980
H         -9.75140        5.41480        3.67640
H        -12.72610        6.46880        5.12120
H        -12.62450        7.37720        3.61950
H        -11.15970        7.06360        4.55830
H        -15.10890        4.49960        2.71920
H        -14.49780        6.15810        2.73800
H        -14.60780        5.24960        4.23920
H        -13.65530        2.94320        1.88350
