256

C         -3.10070        5.34520        7.35570
C         -2.43530        6.37730        7.98540
C         -1.39000        7.19170        7.34420
O         -0.94090        7.06710        6.21890
C         -1.09630        8.27770        8.30100
C         -0.20490        9.32200        8.18950
C         -0.08610       10.23520        9.23410
C          0.88640       11.36760        9.12740
C         -0.88030       10.08700       10.37870
C         -0.76780       11.06560       11.50550
C         -1.78400        9.03140       10.47980
C         -1.89440        8.12200        9.44480
C         -2.72080        6.92960        9.27820
C         -3.50170        6.34730       10.24860
C         -4.17420        5.12100       10.08930
N         -4.72240        4.11190       10.04140
C         -3.65670        6.86440       11.54640
N         -3.80070        7.23330       12.62570
C         -2.60570        4.57190        6.30560
C         -1.28370        4.28210        5.90140
N         -0.14270        4.53910        6.59900
C          1.10500        4.56750        5.92850
C          1.32670        5.45730        4.88380
C          2.57860        5.52910        4.30550
C          3.61580        4.70240        4.72620
C          4.97260        4.81630        4.10270
C          3.37120        3.79770        5.75090
C          2.13240        3.73660        6.36010
C         -0.11640        4.74740        7.98540
C          0.72980        5.71600        8.51990
C          0.73400        5.96340        9.88000
C         -0.08990        5.25230       10.74130
C         -0.13100        5.55140       12.20670
C         -0.89400        4.24900       10.20450
C         -0.91180        3.99580        8.84960
C         -1.29080        3.50770        4.71880
S         -0.04610        2.86950        3.69860
C         -1.24410        1.99890        2.74460
C         -2.54380        2.26390        3.15970
N         -3.68930        1.76330        2.56500
C         -4.75330        1.41900        3.42040
C         -6.05700        1.82590        3.15860
C         -7.07230        1.49910        4.03620
C         -6.81830        0.77410        5.19330
C         -7.91150        0.44720        6.16290
C         -5.51200        0.36970        5.44540
C         -4.49060        0.68070        4.57190
C         -3.88230        1.83670        1.18160
C         -4.74010        0.93710        0.55070
C         -4.98410        1.03700       -0.80390
C         -4.36840        2.01680       -1.57130
C         -4.65520        2.15680       -3.03560
C         -3.48630        2.88670       -0.94160
C         -3.24300        2.80830        0.41400
C         -2.55080        3.11630        4.28750
S         -3.80110        3.73400        5.29990
C         -0.79770        1.02450        1.81500
C          0.49160        0.92460        1.31160
N          1.42070        1.96410        1.38110
C          2.67450        1.73430        1.94920
C          2.78500        0.94500        3.09360
C          4.00790        0.76830        3.69780
C          5.15210        1.35410        3.16170
S          6.65930        1.10650        4.05690
C          7.93040        1.84510        2.99200
C          5.05540        2.10100        1.99670
C          3.82560        2.28960        1.39830
C          1.10120        3.17430        0.75900
C          0.25660        3.20660       -0.34740
C         -0.07190        4.40670       -0.94830
C          0.42420        5.59950       -0.44370
S          0.07040        7.18800       -1.13430
C         -1.32860        6.86730       -2.24710
C          1.26850        5.57160        0.66440
C          1.60530        4.37680        1.25690
C          0.68370       -0.28350        0.61330
S          2.01470       -0.98970       -0.22880
C          1.00320       -2.33920       -0.73070
C         -0.28040       -2.23470       -0.24460
N         -1.29560       -3.15730       -0.52090
C         -1.13010       -4.48980       -0.14200
C         -1.70890       -5.52700       -0.87010
C         -1.56400       -6.84220       -0.47090
C         -0.82590       -7.14910        0.66320
S         -0.55860       -8.78410        1.27300
C         -1.63150       -9.81840        0.23590
C         -0.22910       -6.11750        1.38300
C         -0.37190       -4.80740        0.98700
C         -2.41700       -2.70020       -1.21610
C         -2.28100       -1.70640       -2.18510
C         -3.36840       -1.28860       -2.92290
C         -4.61550       -1.85280       -2.70010
S         -6.04770       -1.38990       -3.64020
C         -5.33020       -1.11220       -5.28960
C         -4.77280       -2.79910       -1.69310
C         -3.68690       -3.21740       -0.95580
C         -0.45570       -1.07100        0.53880
S         -1.79590       -0.35000        1.36060
C          1.40320       -3.22130       -1.80510
C          2.16940       -4.36500       -1.85960
N          2.69450       -5.05220       -0.78120
C          2.64660       -6.45560       -0.80330
C          3.65660       -7.21720       -0.22230
C          3.58720       -8.59570       -0.24340
C          2.53330       -9.25590       -0.86250
C          2.44340      -10.75030       -0.85660
C          1.54510       -8.48860       -1.46380
C          1.58740       -7.11030       -1.42690
C          3.29050       -4.37620        0.29230
C          3.14490       -4.85640        1.59200
C          3.78780       -4.23120        2.63890
C          4.58480       -3.11000        2.42910
C          5.32770       -2.49060        3.57100
C          4.69960       -2.61910        1.13630
C          4.06930       -3.24400        0.07580
C          2.30790       -4.81360       -3.20390
S          3.13820       -6.13640       -3.93190
C          2.64330       -5.59190       -5.54420
C          1.76770       -4.48960       -5.48220
N          1.01420       -3.97990       -6.49780
C          0.68690       -4.70010       -7.65630
C          0.34140       -6.04970       -7.60430
C          0.06390       -6.73860       -8.76590
C          0.12270       -6.11210      -10.00900
C         -0.12130       -6.89270      -11.26180
C          0.42190       -4.75720      -10.04740
C          0.69600       -4.05320       -8.88970
C          0.48200       -2.67620       -6.37420
C         -0.87880       -2.46660       -6.56550
C         -1.40780       -1.20010       -6.40810
C         -0.59950       -0.12490       -6.06080
C         -1.18130        1.23720       -5.83450
C          0.76590       -0.34110       -5.90920
C          1.30910       -1.60080       -6.06550
C          1.64890       -4.03930       -4.14390
S          0.83750       -2.71350       -3.39600
C          3.14330       -6.30600       -6.63690
C          3.27470       -5.82080       -7.91950
C          3.43420       -4.39260       -8.24700
O          3.43020       -3.45040       -7.47560
C          3.73210       -4.35280       -9.69240
C          3.97990       -3.26600      -10.50220
C          4.22590       -3.46450      -11.85830
C          4.48500       -2.29020      -12.74860
C          4.22940       -4.76520      -12.37970
C          4.49910       -4.99280      -13.83390
C          3.98520       -5.85880      -11.55190
C          3.73280       -5.65830      -10.20760
C          3.42410       -6.58750       -9.12500
C          3.15160       -7.92690       -9.26470
C          2.71070       -8.75530       -8.21490
N          2.31440       -9.47800       -7.41410
C          3.19290       -8.61270      -10.49150
N          3.19250       -9.21830      -11.46860
H         -4.11560        5.12190        7.66310
H          0.39760        9.42040        7.29840
H          0.37040       12.32410        9.20440
H          1.41320       11.33360        8.17750
H          1.61850       11.32370        9.93350
H         -1.44780       10.80370       12.31140
H         -1.00480       12.07270       11.16370
H          0.24810       11.08250       11.89930
H         -2.39330        8.94330       11.36540
H          0.52770        6.11150        4.57260
H          2.76180        6.25550        3.52680
H          5.62120        4.01590        4.44770
H          4.90050        4.77120        3.01710
H          5.42830        5.77020        4.36880
H          4.16140        3.14110        6.08390
H          1.95490        3.04920        7.17430
H          1.36800        6.28450        7.86030
H          1.37820        6.73650       10.27310
H          0.65290        6.25150       12.48350
H         -0.01210        4.63880       12.78810
H         -1.09270        5.98940       12.47510
H         -1.52350        3.66450       10.85970
H         -1.54810        3.21700        8.45660
H         -6.26820        2.40540        2.27220
H         -8.07930        1.82700        3.82230
H         -7.86970       -0.60190        6.45040
H         -8.88850        0.65610        5.73480
H         -7.79720        1.04460        7.06730
H         -5.29460       -0.19790        6.33840
H         -3.48010        0.35520        4.77380
H         -5.21980        0.16480        1.13240
H         -5.66740        0.34240       -1.26860
H         -3.74000        2.05210       -3.61870
H         -5.07040        3.14200       -3.24790
H         -5.37170        1.40590       -3.35590
H         -2.99780        3.65650       -1.52180
H         -2.56930        3.51150        0.88260
H          1.89960        0.49530        3.51650
H          4.08920        0.18680        4.60260
H          7.77370        2.91680        2.90640
H          7.92100        1.36520        2.01780
H          8.87560        1.65070        3.48940
H          5.92750        2.54530        1.54420
H          3.75490        2.87670        0.49480
H         -0.14380        2.28700       -0.74850
H         -0.70760        4.39370       -1.81870
H         -1.67680        7.84370       -2.56930
H         -2.11670        6.35470       -1.70330
H         -1.00230        6.29260       -3.10940
H          1.64600        6.50310        1.05740
H          2.24190        4.35800        2.12710
H         -2.27530       -5.30190       -1.76200
H         -2.02370       -7.61700       -1.06330
H         -2.65640       -9.46470        0.29750
H         -1.56160      -10.81980        0.64890
H         -1.27400       -9.81900       -0.78940
H          0.33430       -6.36080        2.27080
H          0.09370       -4.01890        1.55920
H         -1.31070       -1.27440       -2.37970
H         -3.23000       -0.53410       -3.67980
H         -4.62550       -1.90950       -5.50400
H         -4.84790       -0.13990       -5.33780
H         -6.15940       -1.14470       -5.98940
H         -5.75340       -3.20570       -1.49820
H         -3.81230       -3.95550       -0.17820
H          4.49570       -6.72410        0.24540
H          4.37530       -9.17010        0.22160
H          3.42490      -11.19920       -0.72650
H          2.00740      -11.11650       -1.78360
H          1.80880      -11.07660       -0.03140
H          0.72400       -8.97690       -1.96890
H          0.79060       -6.53450       -1.87430
H          2.53840       -5.73150        1.76580
H          3.67450       -4.62170        3.64020
H          6.17750       -3.11700        3.84400
H          4.68780       -2.40340        4.44660
H          5.70200       -1.50630        3.30770
H          5.30060       -1.74080        0.94950
H          4.19340       -2.86460       -0.92860
H          0.29740       -6.55870       -6.65310
H         -0.19310       -7.78640       -8.71030
H         -1.03910       -7.47240      -11.18060
H         -0.19400       -6.23410      -12.12340
H          0.69610       -7.59350      -11.43410
H          0.45910       -4.24460      -10.99760
H          0.93730       -3.00180       -8.93430
H         -1.51550       -3.29940       -6.82750
H         -2.46730       -1.04710       -6.55540
H         -0.54110        2.00710       -6.26020
H         -2.17140        1.31950       -6.27740
H         -1.26380        1.42890       -4.76360
H          1.41190        0.48940       -5.66480
H          2.37070       -1.76860       -5.97190
H          3.48910       -7.31030       -6.42330
H          3.97420       -2.27110      -10.08170
H          5.46500       -2.37410      -13.21740
H          4.44960       -1.36320      -12.18270
H          3.74340       -2.24020      -13.54560
H          4.45480       -6.05190      -14.07210
H          5.48530       -4.61650      -14.10420
H          3.76750       -4.46740      -14.44700
H          4.00410       -6.85180      -11.97240
