200

C          9.33900       -5.12720        6.52290
C         10.55820       -5.72130        6.45930
C         11.38010       -5.92890        5.23200
O         11.06180       -5.76560        4.07480
C         12.72010       -6.30040        5.72120
C         13.86320       -6.55470        4.99080
C         15.03960       -6.88610        5.65390
C         16.28290       -7.16940        4.87320
C         15.05110       -6.95040        7.05660
C         16.31160       -7.29860        7.78210
C         13.89500       -6.69020        7.78570
C         12.72180       -6.36580        7.12370
C         11.38650       -6.05070        7.61200
C         10.97680       -6.12420        8.91660
C          9.66470       -5.88850        9.37990
N          8.62540       -5.72970        9.84280
C         11.82260       -6.47410        9.99010
N         12.45750       -6.74950       10.90630
C          8.42700       -4.83050        5.44940
C          7.62740       -3.68910        5.57620
C          6.75110       -3.37680        4.55640
N          5.88150       -2.31980        4.43840
C          5.76640       -1.22580        5.36470
C          6.75500       -0.10750        5.03700
C          5.19270       -2.45220        3.26020
C          5.62660       -3.62490        2.58950
C          6.62650       -4.21800        3.41920
C          7.39090       -5.37750        3.32680
C          8.28240       -5.67250        4.33070
C          5.06380       -3.97460        1.36640
C          4.04430       -3.20200        0.86260
C          3.56820       -2.07820        1.55830
C          4.18190       -1.66420        2.73680
C          2.37400       -1.40340        1.08100
C          1.26880       -1.01770        1.81610
N          1.08080       -1.17220        3.18540
C          0.37550       -0.17220        3.87070
C         -0.52940       -0.50600        4.87440
C         -1.24670        0.47400        5.53200
C         -1.07620        1.80920        5.19130
S         -1.94490        3.14720        5.95020
C         -3.19200        2.32970        6.98500
C         -0.15940        2.15010        4.19930
C          0.56040        1.17330        3.54880
C          1.64290       -2.24630        3.88110
C          1.75870       -3.50270        3.29120
C          2.46350       -4.51400        3.91230
C          3.05240       -4.29330        5.15000
S          4.07360       -5.46230        5.99060
C          4.36050       -6.75040        4.74740
C          2.85070       -3.07280        5.79020
C          2.15920       -2.06020        5.16520
C          0.27110       -0.46060        0.97370
S         -1.30190        0.20460        1.25150
C         -1.50410        0.47170       -0.46890
C         -0.38220        0.13500       -1.20160
N         -0.20810        0.41000       -2.55400
C         -0.71700        1.61210       -3.06280
C         -0.72160        2.75740       -2.26880
C         -1.37400        3.90400       -2.67520
C         -2.02490        3.93400       -3.90010
S         -3.01020        5.28840       -4.45940
C         -2.66710        6.60010       -3.25110
C         -1.93150        2.83020       -4.74430
C         -1.27880        1.68660       -4.33810
C          0.28280       -0.59470       -3.39360
C          0.00130       -1.93510       -3.12990
C          0.44450       -2.91890       -3.98490
C          1.17210       -2.58660       -5.12340
S          1.64070       -3.92070       -6.18770
C          2.11760       -3.08210       -7.72630
C          1.49010       -1.25870       -5.36950
C          1.05220       -0.27350       -4.50830
C          0.61240       -0.43240       -0.36740
S          2.16840       -1.12700       -0.64090
C         -2.72040        1.01040       -1.00900
C         -3.41830        0.52030       -2.06690
C         -4.52510        1.32370       -2.44730
C         -5.43660        1.10490       -3.49100
C         -5.30450       -0.07020       -4.36400
C         -6.37260       -0.92730       -4.61850
C         -6.17660       -2.04800       -5.40320
C         -4.93250       -2.34680       -5.93540
C         -3.86650       -1.49350       -5.69010
S         -2.20840       -1.73360       -6.26780
C         -2.15030       -3.46650       -6.84190
C         -2.53340       -3.61130       -8.30290
C         -4.06700       -0.35400       -4.92240
C         -6.44080        2.04860       -3.65520
C         -6.53320        3.21580       -2.84930
C         -5.60890        3.44450       -1.80770
C         -5.62730        4.67080       -1.00180
C         -5.71140        5.91960       -1.61400
C         -5.69120        7.06950       -0.84350
C         -5.56260        6.99220        0.53020
C         -5.46230        5.74890        1.14770
S         -5.31090        5.72370        2.91170
C         -4.32110        4.22160        3.23680
C         -2.93170        4.31560        2.64170
C         -5.51420        4.59450        0.38320
C         -4.65270        2.46510       -1.61380
S         -3.41650        2.48750       -0.38100
C         -7.63240        4.00560       -3.22210
C         -8.35800        3.49910       -4.28430
S         -7.69200        1.98530       -4.86320
C         -9.48670        4.17850       -4.79170
C        -10.34280        3.85450       -5.80410
C        -10.30950        2.62310       -6.61900
O         -9.50100        1.71710       -6.56460
C        -11.47250        2.70470       -7.51620
C        -11.90300        1.79860       -8.46360
C        -13.04640        2.07610       -9.20510
C        -13.52310        1.10310      -10.23540
C        -13.74570        3.27200       -8.97920
C        -14.97840        3.58160       -9.76730
C        -13.30320        4.18120       -8.02250
C        -12.16360        3.90560       -7.28500
C        -11.47530        4.65590       -6.23970
C        -11.83860        5.89850       -5.78920
C        -12.95360        6.61710       -6.26990
N        -13.84440        7.25560       -6.61200
C        -11.16880        6.65610       -4.80580
N        -10.68740        7.34570       -4.02260
H          9.00450       -4.78530        7.49620
H         13.83100       -6.49600        3.91300
H         16.09720       -7.07550        3.80680
H         16.64240       -8.17750        5.07710
H         17.07580       -6.47560        5.15100
H         17.09630       -6.57820        7.55350
H         16.14870       -7.30610        8.85630
H         16.66900       -8.28180        7.47760
H         13.93090       -6.73940        8.86220
H          7.72860       -3.06020        6.44800
H          5.94740       -1.60670        6.37300
H          4.74220       -0.84790        5.32480
H          7.77550       -0.48140        5.07610
H          6.56820        0.27850        4.03740
H          6.65210        0.70510        5.75100
H          7.28400       -6.03530        2.47730
H          8.86080       -6.57910        4.27940
H          5.40850       -4.84870        0.83470
H          3.56800       -3.47190       -0.06850
H          3.85410       -0.76240        3.22960
H         -0.67260       -1.54390        5.13600
H         -1.94060        0.18010        6.30280
H         -2.71270        1.79010        7.79670
H         -3.80010        1.66840        6.37460
H         -3.80550        3.12900        7.38940
H         -0.01520        3.19050        3.95100
H          1.27320        1.44750        2.78470
H          1.31440       -3.68080        2.32370
H          2.55280       -5.46600        3.41520
H          5.11780       -7.40200        5.17220
H          3.44760       -7.31200        4.57010
H          4.73350       -6.29570        3.83490
H          3.27170       -2.92170        6.77240
H          2.03940       -1.10470        5.65550
H         -0.23720        2.74240       -1.30350
H         -1.38440        4.75560       -2.01450
H         -1.59930        6.79490       -3.21540
H         -3.05580        6.32390       -2.27460
H         -3.18980        7.47800       -3.61760
H         -2.40240        2.86870       -5.71480
H         -1.21680        0.83640       -5.00100
H         -0.58920       -2.19870       -2.26460
H          0.21270       -3.95540       -3.79160
H          3.06810       -2.57230       -7.59820
H          1.33440       -2.38870       -8.01820
H          2.22000       -3.86600       -8.47030
H          2.08050       -0.97630       -6.22600
H          1.30350        0.75830       -4.70290
H         -3.15780       -0.40250       -2.55270
H         -7.34250       -0.72690       -4.19120
H         -7.00500       -2.71170       -5.60250
H         -4.81540       -3.23620       -6.53380
H         -2.79040       -4.05150       -6.18320
H         -1.11580       -3.77060       -6.68150
H         -1.85980       -3.02840       -8.92710
H         -3.54770       -3.26120       -8.48210
H         -2.46590       -4.65630       -8.59990
H         -3.24810        0.32690       -4.76500
H         -5.76440        5.98430       -2.69030
H         -5.76160        8.03570       -1.32050
H         -5.53440        7.88510        1.13530
H         -4.27440        4.17190        4.32410
H         -4.86620        3.35410        2.86740
H         -2.98250        4.48270        1.56790
H         -2.38240        5.13430        3.10020
H         -2.39340        3.38700        2.81940
H         -5.49360        3.62420        0.85330
H         -7.91040        4.91650       -2.72130
H         -9.68030        5.10720       -4.26770
H        -11.34830        0.88530       -8.61900
H        -12.87610        0.23080      -10.26900
H        -14.53840        0.77620      -10.01360
H        -13.53520        1.56580      -11.22190
H        -15.73670        2.81570       -9.60750
H        -15.39040        4.54400       -9.47670
H        -14.75510        3.60560      -10.83340
H        -13.86020        5.09120       -7.86850
