
  xtb     02152212413D
 energy: -290.246263955203 gnorm: 0.002400721201 xtb: 6.4.1 (unknown)
176190  0     0  0            999 V2000
    3.4825   -9.9297    6.0410 C   0  0  0  0  0  0  0  0  0  0  0  0
    2.6790  -10.0059    7.1275 C   0  0  0  0  0  0  0  0  0  0  0  0
    2.4728  -11.3201    7.8054 C   0  0  0  0  0  0  0  0  0  0  0  0
    3.1372  -12.3203    7.6588 O   0  0  0  0  0  0  0  0  0  0  0  0
    1.2647  -11.1394    8.6299 C   0  0  0  0  0  0  0  0  0  0  0  0
    0.5645  -12.0696    9.3711 C   0  0  0  0  0  0  0  0  0  0  0  0
   -0.5732  -11.6756   10.0681 C   0  0  0  0  0  0  0  0  0  0  0  0
   -1.3330  -12.6744   10.8804 C   0  0  0  0  0  0  0  0  0  0  0  0
   -1.0009  -10.3399   10.0036 C   0  0  0  0  0  0  0  0  0  0  0  0
   -2.2294   -9.9081   10.7386 C   0  0  0  0  0  0  0  0  0  0  0  0
   -0.2873   -9.4053    9.2593 C   0  0  0  0  0  0  0  0  0  0  0  0
    0.8502   -9.7963    8.5735 C   0  0  0  0  0  0  0  0  0  0  0  0
    1.8047   -9.0403    7.7709 C   0  0  0  0  0  0  0  0  0  0  0  0
    1.9799   -7.6831    7.8189 C   0  0  0  0  0  0  0  0  0  0  0  0
    3.0798   -7.0010    7.2566 C   0  0  0  0  0  0  0  0  0  0  0  0
    3.9752   -6.3841    6.8896 N   0  0  0  0  0  0  0  0  0  0  0  0
    1.1081   -6.8058    8.4934 C   0  0  0  0  0  0  0  0  0  0  0  0
    0.4057   -6.0417    8.9858 N   0  0  0  0  0  0  0  0  0  0  0  0
    3.5615   -8.8862    5.0513 C   0  0  0  0  0  0  0  0  0  0  0  0
    2.4427   -8.1156    4.7285 C   0  0  0  0  0  0  0  0  0  0  0  0
    2.5823   -7.1099    3.7919 C   0  0  0  0  0  0  0  0  0  0  0  0
    1.6568   -6.2020    3.3460 N   0  0  0  0  0  0  0  0  0  0  0  0
    0.2725   -6.1465    3.7342 C   0  0  0  0  0  0  0  0  0  0  0  0
   -0.6052   -6.9819    2.8031 C   0  0  0  0  0  0  0  0  0  0  0  0
    2.2618   -5.3830    2.4246 C   0  0  0  0  0  0  0  0  0  0  0  0
    3.6189   -5.7626    2.2717 C   0  0  0  0  0  0  0  0  0  0  0  0
    3.8278   -6.8697    3.1518 C   0  0  0  0  0  0  0  0  0  0  0  0
    4.9254   -7.6687    3.4537 C   0  0  0  0  0  0  0  0  0  0  0  0
    4.7820   -8.6720    4.3832 C   0  0  0  0  0  0  0  0  0  0  0  0
    4.4376   -5.0571    1.3953 C   0  0  0  0  0  0  0  0  0  0  0  0
    3.9130   -3.9879    0.7055 C   0  0  0  0  0  0  0  0  0  0  0  0
    2.5706   -3.6107    0.8628 C   0  0  0  0  0  0  0  0  0  0  0  0
    1.7323   -4.3159    1.7195 C   0  0  0  0  0  0  0  0  0  0  0  0
    2.0373   -2.4486    0.1436 C   0  0  0  0  0  0  0  0  0  0  0  0
    0.8068   -2.4693   -0.4772 C   0  0  0  0  0  0  0  0  0  0  0  0
    0.0789   -3.6064   -0.5064 F   0  0  0  0  0  0  0  0  0  0  0  0
    0.2875   -1.3637   -1.1642 C   0  0  0  0  0  0  0  0  0  0  0  0
   -0.8838   -1.5222   -1.8079 F   0  0  0  0  0  0  0  0  0  0  0  0
    0.9653   -0.1647   -1.2430 C   0  0  0  0  0  0  0  0  0  0  0  0
    2.2021   -0.0807   -0.5421 C   0  0  0  0  0  0  0  0  0  0  0  0
    2.8283    1.1034   -0.4542 N   0  0  0  0  0  0  0  0  0  0  0  0
    3.9912    1.1792    0.1456 C   0  0  0  0  0  0  0  0  0  0  0  0
    4.5812    2.5538    0.2530 C   0  0  0  0  0  0  0  0  0  0  0  0
    3.7076    3.4418    1.1404 C   0  0  0  0  0  0  0  0  0  0  0  0
    4.6084    0.0037    0.6623 C   0  0  0  0  0  0  0  0  0  0  0  0
    3.9698   -1.1381    0.6544 N   0  0  0  0  0  0  0  0  0  0  0  0
    2.7548   -1.2223    0.0901 C   0  0  0  0  0  0  0  0  0  0  0  0
    5.9740   -0.0244    1.2789 C   0  0  0  0  0  0  0  0  0  0  0  0
    5.9169    0.3955    2.7495 C   0  0  0  0  0  0  0  0  0  0  0  0
    0.4800    0.9585   -2.0126 C   0  0  0  0  0  0  0  0  0  0  0  0
    1.2132    1.7614   -2.8715 C   0  0  0  0  0  0  0  0  0  0  0  0
    2.5249    1.5541   -3.2603 N   0  0  0  0  0  0  0  0  0  0  0  0
    3.0681    0.2643   -3.2751 C   0  0  0  0  0  0  0  0  0  0  0  0
    4.3775    0.0344   -2.8501 C   0  0  0  0  0  0  0  0  0  0  0  0
    4.8591   -1.2510   -2.7405 C   0  0  0  0  0  0  0  0  0  0  0  0
    4.0515   -2.3389   -3.0610 C   0  0  0  0  0  0  0  0  0  0  0  0
    4.7339   -3.9495   -2.8176 S   0  0  0  0  0  0  0  0  0  0  0  0
    3.2669   -5.0167   -2.7466 C   0  0  0  0  0  0  0  0  0  0  0  0
    2.7775   -2.1136   -3.5646 C   0  0  0  0  0  0  0  0  0  0  0  0
    2.2956   -0.8250   -3.6745 C   0  0  0  0  0  0  0  0  0  0  0  0
    3.3395    2.6687   -3.5027 C   0  0  0  0  0  0  0  0  0  0  0  0
    4.2833    2.6401   -4.5254 C   0  0  0  0  0  0  0  0  0  0  0  0
    5.0773    3.7401   -4.7824 C   0  0  0  0  0  0  0  0  0  0  0  0
    4.9310    4.8960   -4.0261 C   0  0  0  0  0  0  0  0  0  0  0  0
    5.8862    6.3616   -4.2688 S   0  0  0  0  0  0  0  0  0  0  0  0
    6.7105    6.0811   -5.8617 C   0  0  0  0  0  0  0  0  0  0  0  0
    3.9943    4.9260   -2.9957 C   0  0  0  0  0  0  0  0  0  0  0  0
    3.2101    3.8247   -2.7319 C   0  0  0  0  0  0  0  0  0  0  0  0
    0.4037    2.8027   -3.3905 C   0  0  0  0  0  0  0  0  0  0  0  0
    0.6873    4.0922   -4.5000 S   0  0  0  0  0  0  0  0  0  0  0  0
   -0.9879    4.6419   -4.3287 C   0  0  0  0  0  0  0  0  0  0  0  0
   -1.7484    3.7642   -3.5289 C   0  0  0  0  0  0  0  0  0  0  0  0
   -3.1079    3.7561   -3.4047 N   0  0  0  0  0  0  0  0  0  0  0  0
   -3.7063    3.1627   -2.2766 C   0  0  0  0  0  0  0  0  0  0  0  0
   -3.2130    3.4117   -1.0002 C   0  0  0  0  0  0  0  0  0  0  0  0
   -3.7947    2.8160    0.1016 C   0  0  0  0  0  0  0  0  0  0  0  0
   -4.8787    1.9635   -0.0613 C   0  0  0  0  0  0  0  0  0  0  0  0
   -5.6924    1.1446    1.2723 S   0  0  0  0  0  0  0  0  0  0  0  0
   -4.5348    1.3313    2.6595 C   0  0  0  0  0  0  0  0  0  0  0  0
   -5.3915    1.7360   -1.3374 C   0  0  0  0  0  0  0  0  0  0  0  0
   -4.8120    2.3288   -2.4362 C   0  0  0  0  0  0  0  0  0  0  0  0
   -3.9462    4.3119   -4.3811 C   0  0  0  0  0  0  0  0  0  0  0  0
   -5.0705    5.0469   -3.9996 C   0  0  0  0  0  0  0  0  0  0  0  0
   -5.8448    5.6729   -4.9510 C   0  0  0  0  0  0  0  0  0  0  0  0
   -5.5229    5.5747   -6.3041 C   0  0  0  0  0  0  0  0  0  0  0  0
   -6.5148    6.5058   -7.4195 S   0  0  0  0  0  0  0  0  0  0  0  0
   -5.7339    6.2459   -9.0363 C   0  0  0  0  0  0  0  0  0  0  0  0
   -4.4525    4.7748   -6.6918 C   0  0  0  0  0  0  0  0  0  0  0  0
   -3.6737    4.1537   -5.7378 C   0  0  0  0  0  0  0  0  0  0  0  0
   -0.9171    2.7650   -2.9664 C   0  0  0  0  0  0  0  0  0  0  0  0
   -1.2057    1.4206   -1.9186 S   0  0  0  0  0  0  0  0  0  0  0  0
   -1.3363    5.8203   -4.9956 C   0  0  0  0  0  0  0  0  0  0  0  0
   -2.3792    6.6589   -4.6671 C   0  0  0  0  0  0  0  0  0  0  0  0
   -2.9610    6.7679   -3.3173 C   0  0  0  0  0  0  0  0  0  0  0  0
   -2.6491    6.1345   -2.3250 O   0  0  0  0  0  0  0  0  0  0  0  0
   -3.9078    7.8984   -3.3867 C   0  0  0  0  0  0  0  0  0  0  0  0
   -4.7333    8.4088   -2.4087 C   0  0  0  0  0  0  0  0  0  0  0  0
   -5.5736    9.4774   -2.7109 C   0  0  0  0  0  0  0  0  0  0  0  0
   -6.4905   10.0241   -1.6632 C   0  0  0  0  0  0  0  0  0  0  0  0
   -5.5585   10.0307   -3.9985 C   0  0  0  0  0  0  0  0  0  0  0  0
   -6.4471   11.1863   -4.3329 C   0  0  0  0  0  0  0  0  0  0  0  0
   -4.7178    9.5113   -4.9803 C   0  0  0  0  0  0  0  0  0  0  0  0
   -3.8940    8.4424   -4.6808 C   0  0  0  0  0  0  0  0  0  0  0  0
   -2.9671    7.6704   -5.5008 C   0  0  0  0  0  0  0  0  0  0  0  0
   -2.8144    7.7819   -6.8618 C   0  0  0  0  0  0  0  0  0  0  0  0
   -2.0758    6.8774   -7.6478 C   0  0  0  0  0  0  0  0  0  0  0  0
   -1.5484    6.1514   -8.3665 N   0  0  0  0  0  0  0  0  0  0  0  0
   -3.4456    8.7593   -7.6530 C   0  0  0  0  0  0  0  0  0  0  0  0
   -3.9273    9.5246   -8.3622 N   0  0  0  0  0  0  0  0  0  0  0  0
    4.1129  -10.7987    5.8754 H   0  0  0  0  0  0  0  0  0  0  0  0
    0.9083  -13.0926    9.4063 H   0  0  0  0  0  0  0  0  0  0  0  0
   -0.8676  -13.6542   10.8194 H   0  0  0  0  0  0  0  0  0  0  0  0
   -1.3678  -12.3703   11.9262 H   0  0  0  0  0  0  0  0  0  0  0  0
   -2.3608  -12.7542   10.5275 H   0  0  0  0  0  0  0  0  0  0  0  0
   -3.0987  -10.4670   10.3933 H   0  0  0  0  0  0  0  0  0  0  0  0
   -2.1215  -10.0956   11.8062 H   0  0  0  0  0  0  0  0  0  0  0  0
   -2.4154   -8.8480   10.5903 H   0  0  0  0  0  0  0  0  0  0  0  0
   -0.6367   -8.3854    9.2192 H   0  0  0  0  0  0  0  0  0  0  0  0
    1.4880   -8.3293    5.1861 H   0  0  0  0  0  0  0  0  0  0  0  0
    0.1852   -6.5069    4.7627 H   0  0  0  0  0  0  0  0  0  0  0  0
   -0.0511   -5.1026    3.7173 H   0  0  0  0  0  0  0  0  0  0  0  0
   -0.2838   -8.0210    2.8130 H   0  0  0  0  0  0  0  0  0  0  0  0
   -1.6429   -6.9327    3.1215 H   0  0  0  0  0  0  0  0  0  0  0  0
   -0.5336   -6.6077    1.7846 H   0  0  0  0  0  0  0  0  0  0  0  0
    5.8727   -7.5011    2.9648 H   0  0  0  0  0  0  0  0  0  0  0  0
    5.6259   -9.2930    4.6429 H   0  0  0  0  0  0  0  0  0  0  0  0
    5.4700   -5.3417    1.2636 H   0  0  0  0  0  0  0  0  0  0  0  0
    4.5316   -3.4295    0.0233 H   0  0  0  0  0  0  0  0  0  0  0  0
    0.7041   -4.0158    1.8481 H   0  0  0  0  0  0  0  0  0  0  0  0
    5.5940    2.5147    0.6493 H   0  0  0  0  0  0  0  0  0  0  0  0
    4.6138    2.9898   -0.7484 H   0  0  0  0  0  0  0  0  0  0  0  0
    2.6942    3.4707    0.7491 H   0  0  0  0  0  0  0  0  0  0  0  0
    3.6721    3.0548    2.1568 H   0  0  0  0  0  0  0  0  0  0  0  0
    4.1054    4.4529    1.1662 H   0  0  0  0  0  0  0  0  0  0  0  0
    6.3401   -1.0499    1.2194 H   0  0  0  0  0  0  0  0  0  0  0  0
    6.6555    0.6255    0.7277 H   0  0  0  0  0  0  0  0  0  0  0  0
    6.9080    0.3351    3.1924 H   0  0  0  0  0  0  0  0  0  0  0  0
    5.2517   -0.2682    3.2962 H   0  0  0  0  0  0  0  0  0  0  0  0
    5.5529    1.4147    2.8529 H   0  0  0  0  0  0  0  0  0  0  0  0
    5.0035    0.8687   -2.5711 H   0  0  0  0  0  0  0  0  0  0  0  0
    5.8616   -1.4276   -2.3818 H   0  0  0  0  0  0  0  0  0  0  0  0
    3.6162   -5.9708   -2.3648 H   0  0  0  0  0  0  0  0  0  0  0  0
    2.5402   -4.5900   -2.0622 H   0  0  0  0  0  0  0  0  0  0  0  0
    2.8459   -5.1500   -3.7391 H   0  0  0  0  0  0  0  0  0  0  0  0
    2.1506   -2.9346   -3.8738 H   0  0  0  0  0  0  0  0  0  0  0  0
    1.3025   -0.6608   -4.0655 H   0  0  0  0  0  0  0  0  0  0  0  0
    4.3919    1.7479   -5.1243 H   0  0  0  0  0  0  0  0  0  0  0  0
    5.8002    3.6844   -5.5800 H   0  0  0  0  0  0  0  0  0  0  0  0
    7.4601    5.3004   -5.7673 H   0  0  0  0  0  0  0  0  0  0  0  0
    5.9710    5.8298   -6.6164 H   0  0  0  0  0  0  0  0  0  0  0  0
    7.1895    7.0218   -6.1128 H   0  0  0  0  0  0  0  0  0  0  0  0
    3.8929    5.8227   -2.4040 H   0  0  0  0  0  0  0  0  0  0  0  0
    2.4936    3.8493   -1.9255 H   0  0  0  0  0  0  0  0  0  0  0  0
   -2.3936    4.1022   -0.8786 H   0  0  0  0  0  0  0  0  0  0  0  0
   -3.4006    3.0343    1.0810 H   0  0  0  0  0  0  0  0  0  0  0  0
   -4.5223    2.3609    3.0063 H   0  0  0  0  0  0  0  0  0  0  0  0
   -3.5443    1.0047    2.3548 H   0  0  0  0  0  0  0  0  0  0  0  0
   -4.9132    0.6860    3.4465 H   0  0  0  0  0  0  0  0  0  0  0  0
   -6.2414    1.0815   -1.4542 H   0  0  0  0  0  0  0  0  0  0  0  0
   -5.2034    2.1427   -3.4254 H   0  0  0  0  0  0  0  0  0  0  0  0
   -5.3148    5.1400   -2.9524 H   0  0  0  0  0  0  0  0  0  0  0  0
   -6.6950    6.2684   -4.6562 H   0  0  0  0  0  0  0  0  0  0  0  0
   -6.2717    6.8926   -9.7225 H   0  0  0  0  0  0  0  0  0  0  0  0
   -4.6898    6.5418   -9.0020 H   0  0  0  0  0  0  0  0  0  0  0  0
   -5.8420    5.2091   -9.3411 H   0  0  0  0  0  0  0  0  0  0  0  0
   -4.2061    4.6369   -7.7318 H   0  0  0  0  0  0  0  0  0  0  0  0
   -2.8366    3.5490   -6.0530 H   0  0  0  0  0  0  0  0  0  0  0  0
   -0.6873    6.1025   -5.8166 H   0  0  0  0  0  0  0  0  0  0  0  0
   -4.7309    7.9701   -1.4215 H   0  0  0  0  0  0  0  0  0  0  0  0
   -6.3774    9.4793   -0.7296 H   0  0  0  0  0  0  0  0  0  0  0  0
   -7.5289    9.9495   -1.9860 H   0  0  0  0  0  0  0  0  0  0  0  0
   -6.2793   11.0773   -1.4794 H   0  0  0  0  0  0  0  0  0  0  0  0
   -7.4934   10.9216   -4.1833 H   0  0  0  0  0  0  0  0  0  0  0  0
   -6.3114   11.4888   -5.3676 H   0  0  0  0  0  0  0  0  0  0  0  0
   -6.2273   12.0376   -3.6888 H   0  0  0  0  0  0  0  0  0  0  0  0
   -4.7207    9.9530   -5.9641 H   0  0  0  0  0  0  0  0  0  0  0  0
  1  2  2  0  0  0  0
  2  3  1  0  0  0  0
  3  4  2  0  0  0  0
  3  5  1  0  0  0  0
  5  6  2  0  0  0  0
  6  7  1  0  0  0  0
  7  8  1  0  0  0  0
  7  9  2  0  0  0  0
  9 10  1  0  0  0  0
  9 11  1  0  0  0  0
 11 12  2  0  0  0  0
 12 13  1  0  0  0  0
 13 14  2  0  0  0  0
 14 15  1  0  0  0  0
 15 16  3  0  0  0  0
 14 17  1  0  0  0  0
 17 18  3  0  0  0  0
  1 19  1  0  0  0  0
 19 20  2  0  0  0  0
 20 21  1  0  0  0  0
 21 22  1  0  0  0  0
 22 23  1  0  0  0  0
 23 24  1  0  0  0  0
 22 25  1  0  0  0  0
 25 26  2  0  0  0  0
 26 27  1  0  0  0  0
 27 28  1  0  0  0  0
 28 29  2  0  0  0  0
 26 30  1  0  0  0  0
 30 31  2  0  0  0  0
 31 32  1  0  0  0  0
 32 33  2  0  0  0  0
 32 34  1  0  0  0  0
 34 35  2  0  0  0  0
 35 36  1  0  0  0  0
 35 37  1  0  0  0  0
 37 38  1  0  0  0  0
 37 39  2  0  0  0  0
 39 40  1  0  0  0  0
 40 41  2  0  0  0  0
 41 42  1  0  0  0  0
 42 43  1  0  0  0  0
 43 44  1  0  0  0  0
 42 45  2  0  0  0  0
 45 46  1  0  0  0  0
 46 47  2  0  0  0  0
 45 48  1  0  0  0  0
 48 49  1  0  0  0  0
 39 50  1  0  0  0  0
 50 51  2  0  0  0  0
 51 52  1  0  0  0  0
 52 53  1  0  0  0  0
 53 54  2  0  0  0  0
 54 55  1  0  0  0  0
 55 56  2  0  0  0  0
 56 57  1  0  0  0  0
 57 58  1  0  0  0  0
 56 59  1  0  0  0  0
 59 60  2  0  0  0  0
 52 61  1  0  0  0  0
 61 62  2  0  0  0  0
 62 63  1  0  0  0  0
 63 64  2  0  0  0  0
 64 65  1  0  0  0  0
 65 66  1  0  0  0  0
 64 67  1  0  0  0  0
 67 68  2  0  0  0  0
 51 69  1  0  0  0  0
 69 70  1  0  0  0  0
 70 71  1  0  0  0  0
 71 72  2  0  0  0  0
 72 73  1  0  0  0  0
 73 74  1  0  0  0  0
 74 75  2  0  0  0  0
 75 76  1  0  0  0  0
 76 77  2  0  0  0  0
 77 78  1  0  0  0  0
 78 79  1  0  0  0  0
 77 80  1  0  0  0  0
 80 81  2  0  0  0  0
 73 82  1  0  0  0  0
 82 83  2  0  0  0  0
 83 84  1  0  0  0  0
 84 85  2  0  0  0  0
 85 86  1  0  0  0  0
 86 87  1  0  0  0  0
 85 88  1  0  0  0  0
 88 89  2  0  0  0  0
 72 90  1  0  0  0  0
 90 91  1  0  0  0  0
 71 92  1  0  0  0  0
 92 93  2  0  0  0  0
 93 94  1  0  0  0  0
 94 95  2  0  0  0  0
 94 96  1  0  0  0  0
 96 97  2  0  0  0  0
 97 98  1  0  0  0  0
 98 99  1  0  0  0  0
 98100  2  0  0  0  0
100101  1  0  0  0  0
100102  1  0  0  0  0
102103  2  0  0  0  0
103104  1  0  0  0  0
104105  2  0  0  0  0
105106  1  0  0  0  0
106107  3  0  0  0  0
105108  1  0  0  0  0
108109  3  0  0  0  0
 13  2  1  0  0  0  0
 29 19  1  0  0  0  0
 47 34  1  0  0  0  0
 91 50  1  0  0  0  0
104 93  1  0  0  0  0
 12  5  1  0  0  0  0
 27 21  2  0  0  0  0
 47 40  1  0  0  0  0
 60 53  1  0  0  0  0
 68 61  1  0  0  0  0
 90 69  2  0  0  0  0
103 96  1  0  0  0  0
 33 25  1  0  0  0  0
 81 74  1  0  0  0  0
 89 82  1  0  0  0  0
  1110  1  0  0  0  0
  6111  1  0  0  0  0
  8112  1  0  0  0  0
  8113  1  0  0  0  0
  8114  1  0  0  0  0
 10115  1  0  0  0  0
 10116  1  0  0  0  0
 10117  1  0  0  0  0
 11118  1  0  0  0  0
 20119  1  0  0  0  0
 23120  1  0  0  0  0
 23121  1  0  0  0  0
 24122  1  0  0  0  0
 24123  1  0  0  0  0
 24124  1  0  0  0  0
 28125  1  0  0  0  0
 29126  1  0  0  0  0
 30127  1  0  0  0  0
 31128  1  0  0  0  0
 33129  1  0  0  0  0
 43130  1  0  0  0  0
 43131  1  0  0  0  0
 44132  1  0  0  0  0
 44133  1  0  0  0  0
 44134  1  0  0  0  0
 48135  1  0  0  0  0
 48136  1  0  0  0  0
 49137  1  0  0  0  0
 49138  1  0  0  0  0
 49139  1  0  0  0  0
 54140  1  0  0  0  0
 55141  1  0  0  0  0
 58142  1  0  0  0  0
 58143  1  0  0  0  0
 58144  1  0  0  0  0
 59145  1  0  0  0  0
 60146  1  0  0  0  0
 62147  1  0  0  0  0
 63148  1  0  0  0  0
 66149  1  0  0  0  0
 66150  1  0  0  0  0
 66151  1  0  0  0  0
 67152  1  0  0  0  0
 68153  1  0  0  0  0
 75154  1  0  0  0  0
 76155  1  0  0  0  0
 79156  1  0  0  0  0
 79157  1  0  0  0  0
 79158  1  0  0  0  0
 80159  1  0  0  0  0
 81160  1  0  0  0  0
 83161  1  0  0  0  0
 84162  1  0  0  0  0
 87163  1  0  0  0  0
 87164  1  0  0  0  0
 87165  1  0  0  0  0
 88166  1  0  0  0  0
 89167  1  0  0  0  0
 92168  1  0  0  0  0
 97169  1  0  0  0  0
 99170  1  0  0  0  0
 99171  1  0  0  0  0
 99172  1  0  0  0  0
101173  1  0  0  0  0
101174  1  0  0  0  0
101175  1  0  0  0  0
102176  1  0  0  0  0
M  END
