176

C         -7.71170       -5.62010       -5.83020
C         -7.62160       -5.91240       -7.15230
C         -6.48690       -5.53100       -8.04000
O         -5.48920       -4.90680       -7.74700
C         -6.76330       -6.18180       -9.33070
C         -6.02330       -6.13820      -10.49500
C         -6.46900       -6.83130      -11.61500
C         -5.68180       -6.78330      -12.88500
C         -7.65990       -7.57200      -11.54380
C         -8.15020       -8.32150      -12.74130
C         -8.39470       -7.61880      -10.36300
C         -7.95290       -6.92430       -9.24830
C         -8.50580       -6.78930       -7.90680
C         -9.67610       -7.34880       -7.46700
C        -10.50230       -8.17610       -8.25670
N        -11.21680       -8.85800       -8.84230
C        -10.23050       -7.18900       -6.17970
N        -10.75410       -7.10820       -5.16040
C         -6.94330       -4.62970       -5.11840
C         -6.54130       -4.90880       -3.80900
C         -5.78980       -3.96440       -3.13640
N         -5.18590       -4.03530       -1.90340
C         -5.31270       -5.11950       -0.96620
C         -6.50630       -4.91910       -0.03390
C         -4.52930       -2.85020       -1.67170
C         -4.71640       -1.98400       -2.77820
C         -5.50680       -2.70220       -3.72530
C         -5.96230       -2.41440       -5.00840
C         -6.65510       -3.37980       -5.69850
C         -4.15010       -0.71310       -2.77050
C         -3.34260       -0.35830       -1.71800
C         -3.06750       -1.25910       -0.67200
C         -3.71120       -2.49000       -0.61440
C         -2.03670       -0.93410        0.29460
C         -0.79400       -0.38910        0.03230
N         -0.27050       -0.03740       -1.20460
C         -0.61900       -0.71040       -2.38060
C         -0.74780        0.00550       -3.57180
C         -1.22900       -0.61190       -4.70270
C         -1.59310       -1.95740       -4.67760
S         -2.31720       -2.60100       -6.15250
C         -2.93950       -4.23350       -5.67380
C         -1.37930       -2.69400       -3.52030
C         -0.89080       -2.07590       -2.38600
C          0.69290        0.98560       -1.22900
C          0.49040        2.15770       -0.50300
C          1.50310        3.08710       -0.36230
C          2.73800        2.85590       -0.95100
S          4.14410        3.90110       -0.70320
C          3.75660        4.76190        0.85070
C          2.90810        1.74030       -1.76910
C          1.89760        0.81560       -1.91160
C         -0.05470       -0.23730        1.23300
S          1.51460        0.37360        1.58060
C          1.25190        0.17290        3.30780
C          0.04340       -0.44710        3.57540
N         -0.40760       -0.84260        4.82720
C          0.47130       -1.37110        5.77780
C          0.22180       -1.19270        7.14080
C          1.09450       -1.68980        8.08090
C          2.24520       -2.37120        7.69000
S          3.29130       -2.95540        8.98830
C          4.75070       -3.59520        8.11930
C          2.49610       -2.55700        6.33830
C          1.61610       -2.06400        5.39490
C         -1.78210       -0.75710        5.09220
C         -2.44620       -1.77620        5.76820
C         -3.80260       -1.69240        6.01380
C         -4.52200       -0.58790        5.57770
S         -6.25770       -0.37170        5.82210
C         -6.74990       -1.82420        6.79370
C         -3.86210        0.43380        4.89830
C         -2.50860        0.35410        4.66180
C         -0.69700       -0.66560        2.37970
S         -2.25140       -1.32830        1.99600
C          2.22120        0.84640        4.14390
C          3.45330        1.15830        3.56860
C          4.28390        2.05790        4.20500
N          5.44650        2.62500        3.75500
C          6.09630        2.35420        2.49920
C          7.16450        1.27210        2.64200
C          5.84720        3.56440        4.67080
C          4.94280        3.57750        5.76690
C          3.93580        2.61090        5.46560
C          2.74470        2.22180        6.07380
C          1.89480        1.36580        5.41110
C          5.15080        4.46870        6.81850
C          6.19570        5.35730        6.73770
C          7.04260        5.39930        5.60890
C          6.90060        4.45210        4.59390
C          8.03180        6.43620        5.52240
C          8.44660        7.06890        4.39090
C          7.75740        7.06050        3.06910
O          6.85570        6.34520        2.68130
C          8.35080        8.17850        2.31620
C          8.02570        8.63410        1.05430
C          8.71840        9.71380        0.51760
C          8.38010       10.21140       -0.85110
C          9.73290       10.32980        1.26780
C         10.47990       11.49610        0.70420
C         10.05450        9.86430        2.53940
C          9.36790        8.78510        3.07050
C          9.48640        8.08650        4.34260
C         10.45850        8.29530        5.28420
C         10.62310        7.53470        6.46140
N         10.83950        6.94920        7.42550
C         11.45800        9.28460        5.17820
N         12.28930       10.07620        5.15130
H         -8.41410       -6.18050       -5.22480
H         -5.11100       -5.56120      -10.52530
H         -6.28090       -6.36140      -13.69140
H         -5.38280       -7.78610      -13.18850
H         -4.78910       -6.17650      -12.76140
H         -7.41590       -9.06230      -13.05610
H         -9.08480       -8.83030      -12.52210
H         -8.31100       -7.64230      -13.57780
H         -9.30200       -8.20050      -10.33290
H         -6.78090       -5.86540       -3.36860
H         -4.38950       -5.18360       -0.38400
H         -5.42520       -6.05100       -1.52740
H         -6.58460       -5.75200        0.65950
H         -6.38830       -3.99910        0.53400
H         -7.42680       -4.85450       -0.60940
H         -5.75520       -1.45560       -5.45700
H         -7.01900       -3.17100       -6.69140
H         -4.32890       -0.02990       -3.58570
H         -2.89570        0.62310       -1.68880
H         -3.52160       -3.15430        0.21570
H         -0.49940        1.05650       -3.59010
H         -1.35890       -0.05310       -5.61660
H         -3.61880       -4.53090       -6.46750
H         -3.48640       -4.15260       -4.74000
H         -2.11750       -4.93970       -5.59350
H         -1.59510       -3.75020       -3.48790
H         -0.73670       -2.65470       -1.48750
H         -0.45900        2.32280       -0.01390
H          1.32500        3.97400        0.22470
H          3.03100        5.55070        0.67350
H          3.38490        4.04570        1.57790
H          4.68960        5.19580        1.19950
H          3.85740        1.59040       -2.26030
H          2.04600       -0.06750       -2.51510
H         -0.65770       -0.65150        7.45730
H          0.90180       -1.54600        9.13300
H          5.18600       -2.81200        7.50560
H          5.44930       -3.88660        8.89750
H          4.48250       -4.46290        7.52340
H          3.37020       -3.09060        6.00140
H          1.82150       -2.22450        4.34730
H         -1.89450       -2.64350        6.09980
H         -4.28510       -2.50170        6.53740
H         -6.20320       -1.84570        7.73200
H         -7.81050       -1.69850        6.98800
H         -6.58620       -2.73100        6.21860
H         -4.42530        1.29210        4.56550
H         -2.00110        1.15570        4.14520
H          3.71910        0.74000        2.60930
H          5.34150        2.03900        1.77450
H          6.54410        3.28280        2.13690
H          6.71710        0.34360        2.98970
H          7.64250        1.09230        1.68300
H          7.92230        1.57950        3.35920
H          2.46730        2.62520        7.03580
H          0.93840        1.13260        5.84850
H          4.49130        4.46740        7.67300
H          6.35540        6.07520        7.52850
H          7.60770        4.41690        3.78300
H          8.42500        6.78550        6.47030
H          7.24120        8.14550        0.49540
H          8.06410       11.25340       -0.81240
H          7.57910        9.62130       -1.28790
H          9.24980       10.15630       -1.50500
H         11.22650       11.85270        1.40820
H         10.98060       11.21760       -0.22260
H          9.79700       12.31380        0.47570
H         10.83370       10.35710        3.09870
