
  xtb     02032218573D
 energy: -225.583971144900 gnorm: 0.000470008408 xtb: 6.4.1 (unknown)
127138  0     0  0            999 V2000
   -6.3878   -5.9239    0.4766 C   0  0  0  0  0  0  0  0  0  0  0  0
   -5.6821   -7.0501    0.7946 C   0  0  0  0  0  0  0  0  0  0  0  0
   -4.2431   -7.1018    1.1022 C   0  0  0  0  0  0  0  0  0  0  0  0
   -3.4833   -6.1585    1.2335 O   0  0  0  0  0  0  0  0  0  0  0  0
   -3.9048   -8.5272    1.2149 C   0  0  0  0  0  0  0  0  0  0  0  0
   -2.6789   -9.1164    1.4479 C   0  0  0  0  0  0  0  0  0  0  0  0
   -2.5867  -10.5033    1.5030 C   0  0  0  0  0  0  0  0  0  0  0  0
   -1.2641  -11.1544    1.7507 C   0  0  0  0  0  0  0  0  0  0  0  0
   -3.7401  -11.2831    1.3230 C   0  0  0  0  0  0  0  0  0  0  0  0
   -3.6541  -12.7747    1.3772 C   0  0  0  0  0  0  0  0  0  0  0  0
   -4.9734  -10.6801    1.0908 C   0  0  0  0  0  0  0  0  0  0  0  0
   -5.0653   -9.2996    1.0355 C   0  0  0  0  0  0  0  0  0  0  0  0
   -6.1992   -8.4082    0.8128 C   0  0  0  0  0  0  0  0  0  0  0  0
   -7.5060   -8.8002    0.6892 C   0  0  0  0  0  0  0  0  0  0  0  0
   -8.6123   -7.9386    0.5346 C   0  0  0  0  0  0  0  0  0  0  0  0
   -9.5646   -7.3060    0.4227 N   0  0  0  0  0  0  0  0  0  0  0  0
   -7.9333  -10.1445    0.7294 C   0  0  0  0  0  0  0  0  0  0  0  0
   -8.3467  -11.2152    0.7513 N   0  0  0  0  0  0  0  0  0  0  0  0
   -5.9692   -4.5812    0.4106 C   0  0  0  0  0  0  0  0  0  0  0  0
   -6.8267   -3.5619    0.0029 C   0  0  0  0  0  0  0  0  0  0  0  0
   -6.2547   -2.2955    0.0127 C   0  0  0  0  0  0  0  0  0  0  0  0
   -7.0349   -1.0679   -0.3105 C   0  0  0  0  0  0  0  0  0  0  0  0
   -7.5241   -0.8764   -1.3946 O   0  0  0  0  0  0  0  0  0  0  0  0
   -7.2536   -0.1478    0.8725 C   0  0  0  0  0  0  0  0  0  0  0  0
   -8.3028   -0.7775    1.7925 C   0  0  0  0  0  0  0  0  0  0  0  0
   -4.9207   -2.3341    0.4148 C   0  0  0  0  0  0  0  0  0  0  0  0
   -4.3946   -3.9392    0.7935 S   0  0  0  0  0  0  0  0  0  0  0  0
   -4.0053   -1.2430    0.4396 C   0  0  0  0  0  0  0  0  0  0  0  0
   -4.1216   -0.0451   -0.2112 C   0  0  0  0  0  0  0  0  0  0  0  0
   -3.0205    0.8195   -0.0080 C   0  0  0  0  0  0  0  0  0  0  0  0
   -2.8179    2.0968   -0.5579 C   0  0  0  0  0  0  0  0  0  0  0  0
   -3.8516    2.7609   -1.3624 C   0  0  0  0  0  0  0  0  0  0  0  0
   -5.1589    2.8470   -0.8934 C   0  0  0  0  0  0  0  0  0  0  0  0
   -6.1223    3.4906   -1.6507 C   0  0  0  0  0  0  0  0  0  0  0  0
   -5.7923    4.0576   -2.8645 C   0  0  0  0  0  0  0  0  0  0  0  0
   -4.4831    3.9835   -3.3377 C   0  0  0  0  0  0  0  0  0  0  0  0
   -4.1902    4.7271   -4.9120 S   0  0  0  0  0  0  0  0  0  0  0  0
   -2.3775    4.7179   -5.1341 C   0  0  0  0  0  0  0  0  0  0  0  0
   -1.6818    5.7679   -4.2887 C   0  0  0  0  0  0  0  0  0  0  0  0
   -3.5186    3.3302   -2.5882 C   0  0  0  0  0  0  0  0  0  0  0  0
   -1.6032    2.7044   -0.2817 C   0  0  0  0  0  0  0  0  0  0  0  0
   -0.6088    2.1120    0.5391 C   0  0  0  0  0  0  0  0  0  0  0  0
   -0.8235    0.8442    1.1122 C   0  0  0  0  0  0  0  0  0  0  0  0
    0.1861    0.2092    1.9693 C   0  0  0  0  0  0  0  0  0  0  0  0
   -0.1637   -0.2912    3.2221 C   0  0  0  0  0  0  0  0  0  0  0  0
    0.7995   -0.8682    4.0273 C   0  0  0  0  0  0  0  0  0  0  0  0
    2.1152   -0.9590    3.6075 C   0  0  0  0  0  0  0  0  0  0  0  0
    2.4670   -0.4835    2.3513 C   0  0  0  0  0  0  0  0  0  0  0  0
    4.1142   -0.5049    1.7063 S   0  0  0  0  0  0  0  0  0  0  0  0
    4.9501   -1.8370    2.6342 C   0  0  0  0  0  0  0  0  0  0  0  0
    4.3584   -3.2007    2.3361 C   0  0  0  0  0  0  0  0  0  0  0  0
    1.5010    0.0971    1.5377 C   0  0  0  0  0  0  0  0  0  0  0  0
   -2.0294    0.2299    0.8204 C   0  0  0  0  0  0  0  0  0  0  0  0
   -2.5078   -1.3661    1.3414 S   0  0  0  0  0  0  0  0  0  0  0  0
    0.5141    2.9568    0.6907 C   0  0  0  0  0  0  0  0  0  0  0  0
    0.4102    4.1393    0.0069 C   0  0  0  0  0  0  0  0  0  0  0  0
   -1.1116    4.2816   -0.8376 S   0  0  0  0  0  0  0  0  0  0  0  0
    1.3866    5.1820   -0.1073 C   0  0  0  0  0  0  0  0  0  0  0  0
    2.6575    5.1011    0.4409 C   0  0  0  0  0  0  0  0  0  0  0  0
    3.6039    6.1026    0.2448 C   0  0  0  0  0  0  0  0  0  0  0  0
    4.8036    5.9156    0.8329 F   0  0  0  0  0  0  0  0  0  0  0  0
    3.3861    7.2726   -0.4730 C   0  0  0  0  0  0  0  0  0  0  0  0
    2.0725    7.4075   -0.9890 C   0  0  0  0  0  0  0  0  0  0  0  0
    1.0961    6.3671   -0.8324 C   0  0  0  0  0  0  0  0  0  0  0  0
   -0.0502    6.6701   -1.4349 N   0  0  0  0  0  0  0  0  0  0  0  0
    0.0875    8.1119   -2.1292 S   0  0  0  0  0  0  0  0  0  0  0  0
    1.6024    8.4291   -1.7012 N   0  0  0  0  0  0  0  0  0  0  0  0
    4.3436    8.3224   -0.6718 C   0  0  0  0  0  0  0  0  0  0  0  0
    5.6885    8.2456   -0.8014 C   0  0  0  0  0  0  0  0  0  0  0  0
    6.5155    9.4771   -0.6214 C   0  0  0  0  0  0  0  0  0  0  0  0
    6.1169   10.6166   -0.5883 O   0  0  0  0  0  0  0  0  0  0  0  0
    7.8960    8.9871   -0.4406 C   0  0  0  0  0  0  0  0  0  0  0  0
    9.0319    9.7038   -0.1149 C   0  0  0  0  0  0  0  0  0  0  0  0
   10.2420    9.0365    0.0352 C   0  0  0  0  0  0  0  0  0  0  0  0
   11.5090    9.7452    0.3845 C   0  0  0  0  0  0  0  0  0  0  0  0
   10.2448    7.6514   -0.1509 C   0  0  0  0  0  0  0  0  0  0  0  0
   11.4100    6.9981    0.0081 F   0  0  0  0  0  0  0  0  0  0  0  0
    9.1249    6.9094   -0.4867 C   0  0  0  0  0  0  0  0  0  0  0  0
    7.9299    7.5945   -0.6364 C   0  0  0  0  0  0  0  0  0  0  0  0
    6.5969    7.1326   -1.0087 C   0  0  0  0  0  0  0  0  0  0  0  0
    6.3152    5.9575   -1.6491 C   0  0  0  0  0  0  0  0  0  0  0  0
    7.2724    4.9511   -1.9008 C   0  0  0  0  0  0  0  0  0  0  0  0
    8.0082    4.1004   -2.1266 N   0  0  0  0  0  0  0  0  0  0  0  0
    5.0595    5.6448   -2.2079 C   0  0  0  0  0  0  0  0  0  0  0  0
    4.0673    5.3584   -2.7092 N   0  0  0  0  0  0  0  0  0  0  0  0
   -7.4293   -6.0530    0.2069 H   0  0  0  0  0  0  0  0  0  0  0  0
   -1.8052   -8.4964    1.5826 H   0  0  0  0  0  0  0  0  0  0  0  0
   -1.0058  -11.8215    0.9290 H   0  0  0  0  0  0  0  0  0  0  0  0
   -1.2960  -11.7523    2.6610 H   0  0  0  0  0  0  0  0  0  0  0  0
   -0.4807  -10.4084    1.8523 H   0  0  0  0  0  0  0  0  0  0  0  0
   -2.9838  -13.1472    0.6031 H   0  0  0  0  0  0  0  0  0  0  0  0
   -3.2587  -13.1007    2.3386 H   0  0  0  0  0  0  0  0  0  0  0  0
   -4.6331  -13.2233    1.2338 H   0  0  0  0  0  0  0  0  0  0  0  0
   -5.8429  -11.3021    0.9520 H   0  0  0  0  0  0  0  0  0  0  0  0
   -7.8490   -3.7456   -0.2789 H   0  0  0  0  0  0  0  0  0  0  0  0
   -6.3217   -0.0118    1.4220 H   0  0  0  0  0  0  0  0  0  0  0  0
   -7.6123    0.8158    0.5080 H   0  0  0  0  0  0  0  0  0  0  0  0
   -8.5015   -0.1190    2.6343 H   0  0  0  0  0  0  0  0  0  0  0  0
   -7.9538   -1.7342    2.1751 H   0  0  0  0  0  0  0  0  0  0  0  0
   -9.2328   -0.9377    1.2520 H   0  0  0  0  0  0  0  0  0  0  0  0
   -4.9431    0.1925   -0.8625 H   0  0  0  0  0  0  0  0  0  0  0  0
   -5.4090    2.4341    0.0723 H   0  0  0  0  0  0  0  0  0  0  0  0
   -7.1374    3.5560   -1.2889 H   0  0  0  0  0  0  0  0  0  0  0  0
   -6.5372    4.5626   -3.4599 H   0  0  0  0  0  0  0  0  0  0  0  0
   -2.2500    4.9279   -6.1965 H   0  0  0  0  0  0  0  0  0  0  0  0
   -2.0102    3.7123   -4.9350 H   0  0  0  0  0  0  0  0  0  0  0  0
   -2.0537    6.7579   -4.5426 H   0  0  0  0  0  0  0  0  0  0  0  0
   -0.6101    5.7374   -4.4763 H   0  0  0  0  0  0  0  0  0  0  0  0
   -1.8512    5.5970   -3.2284 H   0  0  0  0  0  0  0  0  0  0  0  0
   -2.5074    3.2279   -2.9469 H   0  0  0  0  0  0  0  0  0  0  0  0
   -1.1813   -0.2052    3.5704 H   0  0  0  0  0  0  0  0  0  0  0  0
    0.5284   -1.2449    5.0024 H   0  0  0  0  0  0  0  0  0  0  0  0
    2.8513   -1.3925    4.2656 H   0  0  0  0  0  0  0  0  0  0  0  0
    4.9212   -1.5947    3.6962 H   0  0  0  0  0  0  0  0  0  0  0  0
    5.9835   -1.7759    2.2929 H   0  0  0  0  0  0  0  0  0  0  0  0
    4.9084   -3.9687    2.8767 H   0  0  0  0  0  0  0  0  0  0  0  0
    3.3128   -3.2456    2.6347 H   0  0  0  0  0  0  0  0  0  0  0  0
    4.4199   -3.4116    1.2710 H   0  0  0  0  0  0  0  0  0  0  0  0
    1.7830    0.4417    0.5540 H   0  0  0  0  0  0  0  0  0  0  0  0
    1.3614    2.6936    1.2965 H   0  0  0  0  0  0  0  0  0  0  0  0
    2.9575    4.2407    1.0168 H   0  0  0  0  0  0  0  0  0  0  0  0
    3.9246    9.3237   -0.6891 H   0  0  0  0  0  0  0  0  0  0  0  0
    8.9718   10.7730    0.0199 H   0  0  0  0  0  0  0  0  0  0  0  0
   11.9262    9.3371    1.3045 H   0  0  0  0  0  0  0  0  0  0  0  0
   11.3349   10.8093    0.5127 H   0  0  0  0  0  0  0  0  0  0  0  0
   12.2505    9.5965   -0.4000 H   0  0  0  0  0  0  0  0  0  0  0  0
    9.2091    5.8417   -0.6067 H   0  0  0  0  0  0  0  0  0  0  0  0
  1  2  2  0  0  0  0
  2  3  1  0  0  0  0
  3  4  2  0  0  0  0
  3  5  1  0  0  0  0
  5  6  2  0  0  0  0
  6  7  1  0  0  0  0
  7  8  1  0  0  0  0
  7  9  2  0  0  0  0
  9 10  1  0  0  0  0
  9 11  1  0  0  0  0
 11 12  2  0  0  0  0
 12 13  1  0  0  0  0
 13 14  2  0  0  0  0
 14 15  1  0  0  0  0
 15 16  3  0  0  0  0
 14 17  1  0  0  0  0
 17 18  3  0  0  0  0
  1 19  1  0  0  0  0
 19 20  2  0  0  0  0
 20 21  1  0  0  0  0
 21 22  1  0  0  0  0
 22 23  2  0  0  0  0
 22 24  1  0  0  0  0
 24 25  1  0  0  0  0
 21 26  2  0  0  0  0
 26 27  1  0  0  0  0
 26 28  1  0  0  0  0
 28 29  2  0  0  0  0
 29 30  1  0  0  0  0
 30 31  2  0  0  0  0
 31 32  1  0  0  0  0
 32 33  2  0  0  0  0
 33 34  1  0  0  0  0
 34 35  2  0  0  0  0
 35 36  1  0  0  0  0
 36 37  1  0  0  0  0
 37 38  1  0  0  0  0
 38 39  1  0  0  0  0
 36 40  2  0  0  0  0
 31 41  1  0  0  0  0
 41 42  2  0  0  0  0
 42 43  1  0  0  0  0
 43 44  1  0  0  0  0
 44 45  2  0  0  0  0
 45 46  1  0  0  0  0
 46 47  2  0  0  0  0
 47 48  1  0  0  0  0
 48 49  1  0  0  0  0
 49 50  1  0  0  0  0
 50 51  1  0  0  0  0
 48 52  2  0  0  0  0
 43 53  2  0  0  0  0
 53 54  1  0  0  0  0
 42 55  1  0  0  0  0
 55 56  2  0  0  0  0
 56 57  1  0  0  0  0
 56 58  1  0  0  0  0
 58 59  2  0  0  0  0
 59 60  1  0  0  0  0
 60 61  1  0  0  0  0
 60 62  2  0  0  0  0
 62 63  1  0  0  0  0
 63 64  1  0  0  0  0
 64 65  2  0  0  0  0
 65 66  1  0  0  0  0
 66 67  1  0  0  0  0
 62 68  1  0  0  0  0
 68 69  2  0  0  0  0
 69 70  1  0  0  0  0
 70 71  2  0  0  0  0
 70 72  1  0  0  0  0
 72 73  2  0  0  0  0
 73 74  1  0  0  0  0
 74 75  1  0  0  0  0
 74 76  2  0  0  0  0
 76 77  1  0  0  0  0
 76 78  1  0  0  0  0
 78 79  2  0  0  0  0
 79 80  1  0  0  0  0
 80 81  2  0  0  0  0
 81 82  1  0  0  0  0
 82 83  3  0  0  0  0
 81 84  1  0  0  0  0
 84 85  3  0  0  0  0
 13  2  1  0  0  0  0
 27 19  1  0  0  0  0
 54 28  1  0  0  0  0
 64 58  1  0  0  0  0
 80 69  1  0  0  0  0
 12  5  1  0  0  0  0
 53 30  1  0  0  0  0
 67 63  2  0  0  0  0
 79 72  1  0  0  0  0
 40 32  1  0  0  0  0
 57 41  1  0  0  0  0
 52 44  1  0  0  0  0
  1 86  1  0  0  0  0
  6 87  1  0  0  0  0
  8 88  1  0  0  0  0
  8 89  1  0  0  0  0
  8 90  1  0  0  0  0
 10 91  1  0  0  0  0
 10 92  1  0  0  0  0
 10 93  1  0  0  0  0
 11 94  1  0  0  0  0
 20 95  1  0  0  0  0
 24 96  1  0  0  0  0
 24 97  1  0  0  0  0
 25 98  1  0  0  0  0
 25 99  1  0  0  0  0
 25100  1  0  0  0  0
 29101  1  0  0  0  0
 33102  1  0  0  0  0
 34103  1  0  0  0  0
 35104  1  0  0  0  0
 38105  1  0  0  0  0
 38106  1  0  0  0  0
 39107  1  0  0  0  0
 39108  1  0  0  0  0
 39109  1  0  0  0  0
 40110  1  0  0  0  0
 45111  1  0  0  0  0
 46112  1  0  0  0  0
 47113  1  0  0  0  0
 50114  1  0  0  0  0
 50115  1  0  0  0  0
 51116  1  0  0  0  0
 51117  1  0  0  0  0
 51118  1  0  0  0  0
 52119  1  0  0  0  0
 55120  1  0  0  0  0
 59121  1  0  0  0  0
 68122  1  0  0  0  0
 73123  1  0  0  0  0
 75124  1  0  0  0  0
 75125  1  0  0  0  0
 75126  1  0  0  0  0
 78127  1  0  0  0  0
M  END
