
  xtb     02072211553D
 energy: -261.334919782754 gnorm: 0.000588966398 xtb: 6.4.1 (unknown)
146158  0     0  0            999 V2000
   -4.6515   -3.7101    1.7532 C   0  0  0  0  0  0  0  0  0  0  0  0
   -4.6228   -4.4460    2.9144 C   0  0  0  0  0  0  0  0  0  0  0  0
   -3.5099   -4.5528    3.8768 C   0  0  0  0  0  0  0  0  0  0  0  0
   -2.6298   -3.7395    4.0848 O   0  0  0  0  0  0  0  0  0  0  0  0
   -3.7209   -5.8275    4.5803 C   0  0  0  0  0  0  0  0  0  0  0  0
   -2.8811   -6.4860    5.4746 C   0  0  0  0  0  0  0  0  0  0  0  0
   -1.7030   -5.9388    5.8014 O   0  0  0  0  0  0  0  0  0  0  0  0
   -3.3198   -7.7128    5.9854 C   0  0  0  0  0  0  0  0  0  0  0  0
   -4.5436   -8.2392    5.6188 C   0  0  0  0  0  0  0  0  0  0  0  0
   -5.3868   -7.5796    4.7309 C   0  0  0  0  0  0  0  0  0  0  0  0
   -4.9639   -6.3706    4.2103 C   0  0  0  0  0  0  0  0  0  0  0  0
   -5.6026   -5.4421    3.2782 C   0  0  0  0  0  0  0  0  0  0  0  0
   -6.9302   -5.4498    2.9288 C   0  0  0  0  0  0  0  0  0  0  0  0
   -7.8340   -6.4747    3.2701 C   0  0  0  0  0  0  0  0  0  0  0  0
   -8.6099   -7.2896    3.4999 N   0  0  0  0  0  0  0  0  0  0  0  0
   -7.5803   -4.3574    2.3293 C   0  0  0  0  0  0  0  0  0  0  0  0
   -8.1930   -3.4601    1.9549 N   0  0  0  0  0  0  0  0  0  0  0  0
   -3.6659   -2.8702    1.2178 C   0  0  0  0  0  0  0  0  0  0  0  0
   -3.5959   -2.4552   -0.1338 C   0  0  0  0  0  0  0  0  0  0  0  0
   -4.4923   -2.7587   -1.1314 N   0  0  0  0  0  0  0  0  0  0  0  0
   -5.8815   -2.6627   -0.9616 C   0  0  0  0  0  0  0  0  0  0  0  0
   -6.4368   -1.6680   -0.1602 C   0  0  0  0  0  0  0  0  0  0  0  0
   -7.8053   -1.5479   -0.0443 C   0  0  0  0  0  0  0  0  0  0  0  0
   -8.6440   -2.4254   -0.7231 C   0  0  0  0  0  0  0  0  0  0  0  0
  -10.3994   -2.3351   -0.6480 S   0  0  0  0  0  0  0  0  0  0  0  0
  -10.6853   -1.5128    0.9458 C   0  0  0  0  0  0  0  0  0  0  0  0
   -8.0905   -3.4185   -1.5281 C   0  0  0  0  0  0  0  0  0  0  0  0
   -6.7245   -3.5395   -1.6455 C   0  0  0  0  0  0  0  0  0  0  0  0
   -3.9882   -2.9948   -2.4234 C   0  0  0  0  0  0  0  0  0  0  0  0
   -4.5978   -2.4353   -3.5415 C   0  0  0  0  0  0  0  0  0  0  0  0
   -4.1036   -2.6774   -4.8079 C   0  0  0  0  0  0  0  0  0  0  0  0
   -2.9842   -3.4819   -4.9766 C   0  0  0  0  0  0  0  0  0  0  0  0
   -2.2586   -3.8599   -6.5379 S   0  0  0  0  0  0  0  0  0  0  0  0
   -3.3506   -3.0486   -7.7403 C   0  0  0  0  0  0  0  0  0  0  0  0
   -2.3696   -4.0427   -3.8574 C   0  0  0  0  0  0  0  0  0  0  0  0
   -2.8658   -3.8061   -2.5964 C   0  0  0  0  0  0  0  0  0  0  0  0
   -2.4088   -1.7392   -0.3837 C   0  0  0  0  0  0  0  0  0  0  0  0
   -1.7523   -0.9326   -1.7758 S   0  0  0  0  0  0  0  0  0  0  0  0
   -0.3640   -0.4230   -0.8342 C   0  0  0  0  0  0  0  0  0  0  0  0
   -0.4513   -0.7877    0.5041 C   0  0  0  0  0  0  0  0  0  0  0  0
    0.3982   -0.3907    1.5138 N   0  0  0  0  0  0  0  0  0  0  0  0
    0.5911   -1.2570    2.6034 C   0  0  0  0  0  0  0  0  0  0  0  0
    0.5807   -0.7621    3.9038 C   0  0  0  0  0  0  0  0  0  0  0  0
    0.7037   -1.6239    4.9734 C   0  0  0  0  0  0  0  0  0  0  0  0
    0.8332   -2.9897    4.7576 C   0  0  0  0  0  0  0  0  0  0  0  0
    0.9635   -4.1313    6.1023 S   0  0  0  0  0  0  0  0  0  0  0  0
   -0.2843   -3.4562    7.2407 C   0  0  0  0  0  0  0  0  0  0  0  0
    0.8879   -3.4823    3.4603 C   0  0  0  0  0  0  0  0  0  0  0  0
    0.7685   -2.6226    2.3894 C   0  0  0  0  0  0  0  0  0  0  0  0
    1.0529    0.8455    1.4608 C   0  0  0  0  0  0  0  0  0  0  0  0
    0.4115    1.9619    0.9269 C   0  0  0  0  0  0  0  0  0  0  0  0
    1.1014    3.1387    0.7222 C   0  0  0  0  0  0  0  0  0  0  0  0
    2.4464    3.2221    1.0607 C   0  0  0  0  0  0  0  0  0  0  0  0
    3.4480    4.6359    0.7363 S   0  0  0  0  0  0  0  0  0  0  0  0
    2.4763    5.5742   -0.4770 C   0  0  0  0  0  0  0  0  0  0  0  0
    3.0642    2.1411    1.6861 C   0  0  0  0  0  0  0  0  0  0  0  0
    2.3765    0.9650    1.8867 C   0  0  0  0  0  0  0  0  0  0  0  0
   -1.6175   -1.5576    0.7403 C   0  0  0  0  0  0  0  0  0  0  0  0
   -2.2721   -2.3049    2.1456 S   0  0  0  0  0  0  0  0  0  0  0  0
    0.6854    0.3486   -1.4405 C   0  0  0  0  0  0  0  0  0  0  0  0
    0.4374    1.4172   -2.3276 C   0  0  0  0  0  0  0  0  0  0  0  0
   -0.7148    1.8615   -2.8448 N   0  0  0  0  0  0  0  0  0  0  0  0
   -0.3749    2.9102   -3.5369 N   0  0  0  0  0  0  0  0  0  0  0  0
   -1.3466    3.7040   -4.2331 C   0  0  0  0  0  0  0  0  0  0  0  0
   -1.6707    4.9642   -3.4366 C   0  0  0  0  0  0  0  0  0  0  0  0
    0.8904    3.2319   -3.5322 N   0  0  0  0  0  0  0  0  0  0  0  0
    1.4706    2.2985   -2.7660 C   0  0  0  0  0  0  0  0  0  0  0  0
    2.8156    2.1493   -2.3486 C   0  0  0  0  0  0  0  0  0  0  0  0
    3.0385    1.0424   -1.5394 C   0  0  0  0  0  0  0  0  0  0  0  0
    2.0256    0.1716   -1.1233 C   0  0  0  0  0  0  0  0  0  0  0  0
    2.3911   -0.8928   -0.3839 F   0  0  0  0  0  0  0  0  0  0  0  0
    4.2857    0.7710   -1.1155 F   0  0  0  0  0  0  0  0  0  0  0  0
    3.8414    3.0702   -2.7447 C   0  0  0  0  0  0  0  0  0  0  0  0
    3.7566    4.0172   -3.7406 C   0  0  0  0  0  0  0  0  0  0  0  0
    4.9392    4.7459   -3.9135 C   0  0  0  0  0  0  0  0  0  0  0  0
    5.0644    5.9945   -5.1356 S   0  0  0  0  0  0  0  0  0  0  0  0
    5.8897    7.3915   -4.2644 C   0  0  0  0  0  0  0  0  0  0  0  0
    7.1882    7.8061   -4.9263 C   0  0  0  0  0  0  0  0  0  0  0  0
    5.9518    4.3708   -3.0357 C   0  0  0  0  0  0  0  0  0  0  0  0
    5.3866    3.1181   -1.9587 S   0  0  0  0  0  0  0  0  0  0  0  0
    7.3143    4.7393   -3.0865 C   0  0  0  0  0  0  0  0  0  0  0  0
    8.2456    4.6045   -2.1012 C   0  0  0  0  0  0  0  0  0  0  0  0
    9.6876    4.4777   -2.4002 C   0  0  0  0  0  0  0  0  0  0  0  0
   10.2705    4.7183   -3.4459 O   0  0  0  0  0  0  0  0  0  0  0  0
   10.2791    3.9281   -1.1816 C   0  0  0  0  0  0  0  0  0  0  0  0
   11.6002    3.5360   -0.9944 C   0  0  0  0  0  0  0  0  0  0  0  0
   12.5136    3.6533   -1.9654 O   0  0  0  0  0  0  0  0  0  0  0  0
   11.9397    3.0136    0.2611 C   0  0  0  0  0  0  0  0  0  0  0  0
   10.9855    2.9045    1.2542 C   0  0  0  0  0  0  0  0  0  0  0  0
    9.6640    3.3111    1.0699 C   0  0  0  0  0  0  0  0  0  0  0  0
    9.3135    3.8283   -0.1614 C   0  0  0  0  0  0  0  0  0  0  0  0
    8.0717    4.3958   -0.6769 C   0  0  0  0  0  0  0  0  0  0  0  0
    7.0495    4.9265    0.0679 C   0  0  0  0  0  0  0  0  0  0  0  0
    6.1283    5.8095   -0.5244 C   0  0  0  0  0  0  0  0  0  0  0  0
    5.4628    6.6001   -1.0278 N   0  0  0  0  0  0  0  0  0  0  0  0
    6.9129    4.7502    1.4576 C   0  0  0  0  0  0  0  0  0  0  0  0
    6.7707    4.6063    2.5871 N   0  0  0  0  0  0  0  0  0  0  0  0
   -5.5048   -3.8788    1.1033 H   0  0  0  0  0  0  0  0  0  0  0  0
   -1.1886   -6.5143    6.3819 H   0  0  0  0  0  0  0  0  0  0  0  0
   -2.6853   -8.2515    6.6765 H   0  0  0  0  0  0  0  0  0  0  0  0
   -4.8523   -9.1879    6.0310 H   0  0  0  0  0  0  0  0  0  0  0  0
   -6.3330   -8.0154    4.4574 H   0  0  0  0  0  0  0  0  0  0  0  0
   -5.7871   -0.9833    0.3648 H   0  0  0  0  0  0  0  0  0  0  0  0
   -8.2116   -0.7639    0.5727 H   0  0  0  0  0  0  0  0  0  0  0  0
  -10.0259   -1.9600    1.6823 H   0  0  0  0  0  0  0  0  0  0  0  0
  -10.5223   -0.4424    0.8557 H   0  0  0  0  0  0  0  0  0  0  0  0
  -11.7228   -1.7056    1.1998 H   0  0  0  0  0  0  0  0  0  0  0  0
   -8.7455   -4.0995   -2.0489 H   0  0  0  0  0  0  0  0  0  0  0  0
   -6.2971   -4.3172   -2.2612 H   0  0  0  0  0  0  0  0  0  0  0  0
   -5.4628   -1.8013   -3.4170 H   0  0  0  0  0  0  0  0  0  0  0  0
   -4.5976   -2.2245   -5.6520 H   0  0  0  0  0  0  0  0  0  0  0  0
   -4.3584   -3.4434   -7.6520 H   0  0  0  0  0  0  0  0  0  0  0  0
   -2.9428   -3.2950   -8.7158 H   0  0  0  0  0  0  0  0  0  0  0  0
   -3.3314   -1.9724   -7.5951 H   0  0  0  0  0  0  0  0  0  0  0  0
   -1.5035   -4.6714   -3.9946 H   0  0  0  0  0  0  0  0  0  0  0  0
   -2.3916   -4.2525   -1.7350 H   0  0  0  0  0  0  0  0  0  0  0  0
    0.4653    0.2989    4.0702 H   0  0  0  0  0  0  0  0  0  0  0  0
    0.6901   -1.2257    5.9757 H   0  0  0  0  0  0  0  0  0  0  0  0
   -0.4573   -4.2174    7.9944 H   0  0  0  0  0  0  0  0  0  0  0  0
   -1.1913   -3.2708    6.6744 H   0  0  0  0  0  0  0  0  0  0  0  0
    0.0802   -2.5510    7.7169 H   0  0  0  0  0  0  0  0  0  0  0  0
    1.0145   -4.5416    3.3011 H   0  0  0  0  0  0  0  0  0  0  0  0
    0.8091   -3.0005    1.3786 H   0  0  0  0  0  0  0  0  0  0  0  0
   -0.6306    1.8984    0.6494 H   0  0  0  0  0  0  0  0  0  0  0  0
    0.5833    3.9839    0.2979 H   0  0  0  0  0  0  0  0  0  0  0  0
    1.6423    6.0702    0.0108 H   0  0  0  0  0  0  0  0  0  0  0  0
    3.1652    6.3130   -0.8775 H   0  0  0  0  0  0  0  0  0  0  0  0
    2.1388    4.9118   -1.2692 H   0  0  0  0  0  0  0  0  0  0  0  0
    4.0989    2.2271    1.9797 H   0  0  0  0  0  0  0  0  0  0  0  0
    2.8711    0.1136    2.3284 H   0  0  0  0  0  0  0  0  0  0  0  0
   -0.9299    3.9701   -5.2070 H   0  0  0  0  0  0  0  0  0  0  0  0
   -2.2344    3.0826   -4.3593 H   0  0  0  0  0  0  0  0  0  0  0  0
   -0.7687    5.5525   -3.2867 H   0  0  0  0  0  0  0  0  0  0  0  0
   -2.0875    4.7016   -2.4673 H   0  0  0  0  0  0  0  0  0  0  0  0
   -2.3957    5.5654   -3.9773 H   0  0  0  0  0  0  0  0  0  0  0  0
    2.8714    4.1675   -4.3295 H   0  0  0  0  0  0  0  0  0  0  0  0
    5.1670    8.2069   -4.3063 H   0  0  0  0  0  0  0  0  0  0  0  0
    6.0275    7.0909   -3.2277 H   0  0  0  0  0  0  0  0  0  0  0  0
    7.9292    7.0115   -4.8933 H   0  0  0  0  0  0  0  0  0  0  0  0
    7.5950    8.6722   -4.4083 H   0  0  0  0  0  0  0  0  0  0  0  0
    7.0166    8.0728   -5.9669 H   0  0  0  0  0  0  0  0  0  0  0  0
    7.6820    5.0441   -4.0615 H   0  0  0  0  0  0  0  0  0  0  0  0
   12.0866    4.0345   -2.7565 H   0  0  0  0  0  0  0  0  0  0  0  0
   12.9576    2.7016    0.4323 H   0  0  0  0  0  0  0  0  0  0  0  0
   11.2733    2.4929    2.2098 H   0  0  0  0  0  0  0  0  0  0  0  0
    8.9449    3.2097    1.8661 H   0  0  0  0  0  0  0  0  0  0  0  0
  1  2  2  0  0  0  0
  2  3  1  0  0  0  0
  3  4  2  0  0  0  0
  3  5  1  0  0  0  0
  5  6  2  0  0  0  0
  6  7  1  0  0  0  0
  6  8  1  0  0  0  0
  8  9  2  0  0  0  0
  9 10  1  0  0  0  0
 10 11  2  0  0  0  0
 11 12  1  0  0  0  0
 12 13  2  0  0  0  0
 13 14  1  0  0  0  0
 14 15  3  0  0  0  0
 13 16  1  0  0  0  0
 16 17  3  0  0  0  0
  1 18  1  0  0  0  0
 18 19  2  0  0  0  0
 19 20  1  0  0  0  0
 20 21  1  0  0  0  0
 21 22  2  0  0  0  0
 22 23  1  0  0  0  0
 23 24  2  0  0  0  0
 24 25  1  0  0  0  0
 25 26  1  0  0  0  0
 24 27  1  0  0  0  0
 27 28  2  0  0  0  0
 20 29  1  0  0  0  0
 29 30  2  0  0  0  0
 30 31  1  0  0  0  0
 31 32  2  0  0  0  0
 32 33  1  0  0  0  0
 33 34  1  0  0  0  0
 32 35  1  0  0  0  0
 35 36  2  0  0  0  0
 19 37  1  0  0  0  0
 37 38  1  0  0  0  0
 38 39  1  0  0  0  0
 39 40  2  0  0  0  0
 40 41  1  0  0  0  0
 41 42  1  0  0  0  0
 42 43  2  0  0  0  0
 43 44  1  0  0  0  0
 44 45  2  0  0  0  0
 45 46  1  0  0  0  0
 46 47  1  0  0  0  0
 45 48  1  0  0  0  0
 48 49  2  0  0  0  0
 41 50  1  0  0  0  0
 50 51  2  0  0  0  0
 51 52  1  0  0  0  0
 52 53  2  0  0  0  0
 53 54  1  0  0  0  0
 54 55  1  0  0  0  0
 53 56  1  0  0  0  0
 56 57  2  0  0  0  0
 40 58  1  0  0  0  0
 58 59  1  0  0  0  0
 39 60  1  0  0  0  0
 60 61  1  0  0  0  0
 61 62  2  0  0  0  0
 62 63  1  0  0  0  0
 63 64  1  0  0  0  0
 64 65  1  0  0  0  0
 63 66  1  0  0  0  0
 66 67  2  0  0  0  0
 67 68  1  0  0  0  0
 68 69  2  0  0  0  0
 69 70  1  0  0  0  0
 70 71  1  0  0  0  0
 69 72  1  0  0  0  0
 68 73  1  0  0  0  0
 73 74  2  0  0  0  0
 74 75  1  0  0  0  0
 75 76  1  0  0  0  0
 76 77  1  0  0  0  0
 77 78  1  0  0  0  0
 75 79  2  0  0  0  0
 79 80  1  0  0  0  0
 79 81  1  0  0  0  0
 81 82  2  0  0  0  0
 82 83  1  0  0  0  0
 83 84  2  0  0  0  0
 83 85  1  0  0  0  0
 85 86  2  0  0  0  0
 86 87  1  0  0  0  0
 86 88  1  0  0  0  0
 88 89  2  0  0  0  0
 89 90  1  0  0  0  0
 90 91  2  0  0  0  0
 91 92  1  0  0  0  0
 92 93  2  0  0  0  0
 93 94  1  0  0  0  0
 94 95  3  0  0  0  0
 93 96  1  0  0  0  0
 96 97  3  0  0  0  0
 12  2  1  0  0  0  0
 59 18  1  0  0  0  0
 70 60  2  0  0  0  0
 80 73  1  0  0  0  0
 92 82  1  0  0  0  0
 11  5  1  0  0  0  0
 28 21  1  0  0  0  0
 36 29  1  0  0  0  0
 58 37  2  0  0  0  0
 67 61  1  0  0  0  0
 91 85  1  0  0  0  0
 49 42  1  0  0  0  0
 57 50  1  0  0  0  0
  1 98  1  0  0  0  0
  7 99  1  0  0  0  0
  8100  1  0  0  0  0
  9101  1  0  0  0  0
 10102  1  0  0  0  0
 22103  1  0  0  0  0
 23104  1  0  0  0  0
 26105  1  0  0  0  0
 26106  1  0  0  0  0
 26107  1  0  0  0  0
 27108  1  0  0  0  0
 28109  1  0  0  0  0
 30110  1  0  0  0  0
 31111  1  0  0  0  0
 34112  1  0  0  0  0
 34113  1  0  0  0  0
 34114  1  0  0  0  0
 35115  1  0  0  0  0
 36116  1  0  0  0  0
 43117  1  0  0  0  0
 44118  1  0  0  0  0
 47119  1  0  0  0  0
 47120  1  0  0  0  0
 47121  1  0  0  0  0
 48122  1  0  0  0  0
 49123  1  0  0  0  0
 51124  1  0  0  0  0
 52125  1  0  0  0  0
 55126  1  0  0  0  0
 55127  1  0  0  0  0
 55128  1  0  0  0  0
 56129  1  0  0  0  0
 57130  1  0  0  0  0
 64131  1  0  0  0  0
 64132  1  0  0  0  0
 65133  1  0  0  0  0
 65134  1  0  0  0  0
 65135  1  0  0  0  0
 74136  1  0  0  0  0
 77137  1  0  0  0  0
 77138  1  0  0  0  0
 78139  1  0  0  0  0
 78140  1  0  0  0  0
 78141  1  0  0  0  0
 81142  1  0  0  0  0
 87143  1  0  0  0  0
 88144  1  0  0  0  0
 89145  1  0  0  0  0
 90146  1  0  0  0  0
M  END
