210

C          0.38900        5.18490       -6.68200
C          1.60350        5.27550       -7.31590
C          1.83030        6.28380       -8.36370
O          1.01510        7.03630       -8.88480
C          3.27070        6.26500       -8.61540
C          3.99100        7.11270       -9.44720
O          3.38570        8.06660      -10.17000
C          5.37920        6.92980       -9.49880
C          5.97990        5.94290       -8.74120
C          5.25290        5.08490       -7.91530
C          3.88350        5.24930       -7.86140
C          2.82880        4.53310       -7.14150
C          2.94470        3.25050       -6.66400
C          1.86170        2.48490       -6.19490
N          1.00100        1.80460       -5.85030
C          4.13140        2.49540       -6.73620
N          5.05350        1.81320       -6.79180
C          0.15730        4.66400       -5.40250
C         -0.99650        4.06380       -4.86820
N         -2.19600        3.88100       -5.49860
C         -2.69600        4.78450       -6.44280
C         -2.50030        6.15580       -6.28980
C         -2.93950        7.04070       -7.25410
C         -3.58990        6.56710       -8.38670
S         -4.13270        7.61850       -9.69340
C         -3.01750        9.04540       -9.53930
C         -3.84320        5.20200       -8.51160
C         -3.40130        4.31830       -7.55290
C         -2.97630        2.75670       -5.15240
C         -4.32210        2.91300       -4.84280
C         -5.08970        1.82020       -4.48840
C         -4.51550        0.55680       -4.44100
S         -5.40430       -0.90800       -4.02910
C         -7.00080       -0.30490       -3.41540
C         -3.16750        0.39940       -4.76040
C         -2.40080        1.48660       -5.11590
C         -0.73890        3.56260       -3.57410
S         -1.69320        2.69390       -2.42650
C         -0.37420        2.72570       -1.26460
C          0.72640        3.43550       -1.74100
N          1.87490        3.71640       -1.01740
C          1.80530        4.20110        0.29030
C          0.65300        4.81790        0.77270
C          0.58120        5.25290        2.08090
C          1.67370        5.10940        2.92290
S          1.66500        5.61840        4.61480
C          0.30260        6.81910        4.69070
C          2.83830        4.51800        2.44050
C          2.90020        4.05700        1.14540
C          3.06860        3.80710       -1.75950
C          3.87760        4.93580       -1.69120
C          4.98610        5.05380       -2.50670
C          5.30250        4.04040       -3.40190
S          6.65460        4.10910       -4.53130
C          7.21230        5.83620       -4.43390
C          4.52210        2.88590       -3.43610
C          3.41250        2.77260       -2.62940
C          0.51500        3.86460       -3.06700
S          1.47750        4.71100       -4.22050
C         -0.45560        1.91140       -0.10930
C         -1.59400        1.27060        0.37380
N         -2.89470        1.56050       -0.01740
C         -3.76920        0.48550       -0.22930
C         -3.31070       -0.66080       -0.87200
C         -4.14450       -1.74330       -1.06660
C         -5.46220       -1.68870       -0.63500
S         -6.62790       -2.99690       -0.85150
C         -5.78450       -4.14460       -1.97590
C         -5.92590       -0.54310        0.00900
C         -5.08950        0.53040        0.21700
C         -3.35370        2.87900       -0.03930
C         -4.35020        3.26420       -0.94120
C         -4.77270        4.57150       -0.99390
C         -4.21180        5.53310       -0.15420
S         -4.81850        7.18240       -0.33440
C         -3.89980        8.12840        0.91340
C         -3.22870        5.15470        0.74860
C         -2.80770        3.83980        0.80690
C         -1.25470        0.27600        1.31560
S         -2.13160       -0.92650        2.18830
C         -0.64910       -1.55810        2.90380
C          0.45970       -0.84800        2.47480
N          1.80160       -1.02910        2.85490
C          2.42560        0.07330        3.45890
C          1.74990        0.79030        4.44290
C          2.36050        1.84340        5.09630
C          3.66620        2.19080        4.78170
S          4.57130        3.47170        5.59690
C          3.61370        3.78110        7.10480
C          4.32540        1.51380        3.75780
C          3.71150        0.47520        3.09600
C          2.54350       -2.09270        2.34670
C          3.69330       -2.53280        3.01290
C          4.39230       -3.62260        2.54890
C          3.96280       -4.31490        1.41710
S          4.91910       -5.72690        0.94920
C          4.27560       -6.16030       -0.69120
C          2.82120       -3.88850        0.75470
C          2.12480       -2.78520        1.21120
C          0.10050        0.19040        1.58400
S          1.01300        1.35670        0.69190
C         -0.78070       -2.70530        3.77810
C          0.29950       -3.53700        4.06470
C          0.08440       -4.66200        4.84180
N          0.97040       -5.65070        5.18760
C          2.37820       -5.65460        4.88590
C          3.17280       -4.86970        5.92690
C          0.31000       -6.57490        5.95600
C         -1.04900       -6.18500        6.09890
C         -1.19330       -4.96260        5.37650
C         -2.26070       -4.10910        5.11100
C         -2.04850       -3.00750        4.31850
C         -1.92690       -6.98160        6.82750
C         -1.44890       -8.12570        7.41920
C         -0.10290       -8.51790        7.27900
C          0.77660       -7.74930        6.51730
C          0.37030       -9.74450        7.87160
C         -0.03450      -10.32030        9.02580
C          0.23750      -11.76800        9.28270
O          1.02040      -12.46250        8.68150
C         -0.68910      -12.13460       10.36950
C         -0.96480      -13.38990       10.91000
O         -0.32740      -14.47430       10.44450
C         -1.91730      -13.46020       11.93190
C         -2.56670      -12.32690       12.38400
C         -2.29410      -11.07330       11.85150
C         -1.34890      -10.98450       10.84500
C         -0.83890       -9.82150       10.12240
C         -0.90000       -8.52240       10.54830
C         -1.62810       -8.09550       11.67710
N         -2.21970       -7.69730       12.57680
C         -0.16070       -7.47520        9.95730
N          0.47310       -6.60190        9.56650
H         -0.44360        5.63320       -7.21250
H          2.42630        8.02380       -9.99290
H          5.96300        7.57310      -10.13770
H          7.05230        5.82780       -8.79180
H          5.75910        4.33260       -7.33250
H         -1.99690        6.52730       -5.40910
H         -2.76880        8.09560       -7.11320
H         -3.10250        9.58980      -10.47450
H         -3.32660        9.68340       -8.71620
H         -2.00010        8.69010       -9.40520
H         -4.36870        4.84390       -9.38320
H         -3.57300        3.25880       -7.66780
H         -4.76700        3.89650       -4.87630
H         -6.13140        1.96880       -4.25310
H         -6.83610        0.39050       -2.59740
H         -7.56590        0.15070       -4.22330
H         -7.52550       -1.18130       -3.04730
H         -2.73380       -0.58800       -4.73290
H         -1.35810        1.36460       -5.36860
H         -0.19800        4.95720        0.12190
H         -0.33210        5.70890        2.42950
H         -0.65660        6.31040        4.64820
H          0.40630        7.53520        3.88100
H          0.40580        7.32370        5.64630
H          3.68930        4.41760        3.09450
H          3.79730        3.57850        0.78430
H          3.62440        5.73440       -1.00940
H          5.58570        5.94720       -2.44240
H          7.65610        6.03630       -3.46300
H          7.96500        5.94290       -5.20870
H          6.37890        6.50300       -4.63470
H          4.79310        2.08810       -4.10990
H          2.79430        1.88830       -2.67560
H         -2.29220       -0.69740       -1.22910
H         -3.75820       -2.61520       -1.56750
H         -4.94780       -4.61650       -1.46910
H         -6.52460       -4.89430       -2.23820
H         -5.46300       -3.60990       -2.86500
H         -6.94910       -0.51170        0.35170
H         -5.45240        1.40880        0.72960
H         -4.76630        2.53150       -1.61550
H         -5.53490        4.87070       -1.69690
H         -4.11510        7.74230        1.90560
H         -4.26170        9.14840        0.82990
H         -2.83570        8.09700        0.69680
H         -2.78310        5.87290        1.41800
H         -2.04440        3.55590        1.51680
H          0.74140        0.50780        4.70860
H          1.81200        2.37960        5.85370
H          2.68420        4.28470        6.85700
H          3.43590        2.84190        7.61990
H          4.23220        4.43070        7.71600
H          5.32720        1.81320        3.49010
H          4.22850       -0.03640        2.29830
H          4.02210       -2.02040        3.90400
H          5.27730       -3.96120        3.06520
H          4.92830       -6.94360       -1.06390
H          4.32590       -5.29440       -1.34460
H          3.25970       -6.53680       -0.61010
H          2.46030       -4.40260       -0.12150
H          1.23800       -2.46310        0.68590
H          1.27490       -3.33390        3.66590
H          2.72190       -6.69100        4.85280
H          2.52580       -5.21830        3.89400
H          2.84690       -3.83250        5.94290
H          3.02040       -5.29530        6.91600
H          4.23170       -4.90010        5.68690
H         -3.24050       -4.31550        5.51330
H         -2.87450       -2.34640        4.10070
H         -2.96470       -6.70170        6.92590
H         -2.12220       -8.76640        7.96990
H          1.80620       -8.05750        6.41980
H          1.09180      -10.31480        7.29460
H         -0.61260      -15.27000       10.91190
H         -2.14610      -14.42250       12.37060
H         -3.30170      -12.41920       13.16910
H         -2.81750      -10.20380       12.21270
