
  xtb     02112222323D
 energy: -378.297823403670 gnorm: 0.000336041354 xtb: 6.4.1 (unknown)
223243  0     0  0            999 V2000
    0.8318   -2.1357    8.1913 C   0  0  0  0  0  0  0  0  0  0  0  0
    0.7607   -1.0290    9.0181 C   0  0  0  0  0  0  0  0  0  0  0  0
    0.2192    0.2747    8.6044 C   0  0  0  0  0  0  0  0  0  0  0  0
   -0.2325    0.5659    7.5096 O   0  0  0  0  0  0  0  0  0  0  0  0
    0.2102    1.1023    9.8260 C   0  0  0  0  0  0  0  0  0  0  0  0
   -0.1558    2.4328    9.9921 C   0  0  0  0  0  0  0  0  0  0  0  0
   -0.5858    3.1544    8.9376 O   0  0  0  0  0  0  0  0  0  0  0  0
   -0.0372    2.9853   11.2714 C   0  0  0  0  0  0  0  0  0  0  0  0
    0.4185    2.2307   12.3342 C   0  0  0  0  0  0  0  0  0  0  0  0
    0.7869    0.9001   12.1720 C   0  0  0  0  0  0  0  0  0  0  0  0
    0.6857    0.3451   10.9108 C   0  0  0  0  0  0  0  0  0  0  0  0
    1.0508   -0.9830   10.4185 C   0  0  0  0  0  0  0  0  0  0  0  0
    1.7288   -1.9442   11.1302 C   0  0  0  0  0  0  0  0  0  0  0  0
    2.0729   -1.8401   12.4895 C   0  0  0  0  0  0  0  0  0  0  0  0
    2.4050   -1.8222   13.5898 N   0  0  0  0  0  0  0  0  0  0  0  0
    2.2562   -3.1172   10.5562 C   0  0  0  0  0  0  0  0  0  0  0  0
    2.7688   -4.0609   10.1469 N   0  0  0  0  0  0  0  0  0  0  0  0
    0.9297   -2.0991    6.8038 C   0  0  0  0  0  0  0  0  0  0  0  0
    1.3670   -1.0762    5.9307 C   0  0  0  0  0  0  0  0  0  0  0  0
    2.0724    0.0409    6.2441 N   0  0  0  0  0  0  0  0  0  0  0  0
    2.2072    1.0512    5.2497 C   0  0  0  0  0  0  0  0  0  0  0  0
    1.1080    1.8113    4.8634 C   0  0  0  0  0  0  0  0  0  0  0  0
    1.2303    2.7226    3.8383 C   0  0  0  0  0  0  0  0  0  0  0  0
    2.4469    2.8764    3.1744 C   0  0  0  0  0  0  0  0  0  0  0  0
    2.4597    3.9793    1.8008 S   0  0  0  0  0  0  0  0  0  0  0  0
    4.0967    3.7432    1.0527 C   0  0  0  0  0  0  0  0  0  0  0  0
    3.5603    2.1664    3.6078 C   0  0  0  0  0  0  0  0  0  0  0  0
    3.4408    1.2637    4.6480 C   0  0  0  0  0  0  0  0  0  0  0  0
    2.7589    0.2512    7.4457 C   0  0  0  0  0  0  0  0  0  0  0  0
    3.4660   -0.7668    8.0815 C   0  0  0  0  0  0  0  0  0  0  0  0
    4.1003   -0.5395    9.2864 C   0  0  0  0  0  0  0  0  0  0  0  0
    4.0363    0.7150    9.8831 C   0  0  0  0  0  0  0  0  0  0  0  0
    4.7245    1.1057   11.4530 S   0  0  0  0  0  0  0  0  0  0  0  0
    5.4909   -0.4406   12.0116 C   0  0  0  0  0  0  0  0  0  0  0  0
    3.3803    1.7517    9.2187 C   0  0  0  0  0  0  0  0  0  0  0  0
    2.7551    1.5277    8.0137 C   0  0  0  0  0  0  0  0  0  0  0  0
    1.0779   -1.4314    4.5909 C   0  0  0  0  0  0  0  0  0  0  0  0
    1.2454   -0.5930    3.0901 S   0  0  0  0  0  0  0  0  0  0  0  0
    0.6119   -1.9785    2.2383 C   0  0  0  0  0  0  0  0  0  0  0  0
    0.3680   -3.0659    3.0555 C   0  0  0  0  0  0  0  0  0  0  0  0
    0.0745   -4.3305    2.5580 N   0  0  0  0  0  0  0  0  0  0  0  0
    0.7765   -4.7324    1.4058 C   0  0  0  0  0  0  0  0  0  0  0  0
    2.1154   -4.3786    1.2537 C   0  0  0  0  0  0  0  0  0  0  0  0
    2.8116   -4.6919    0.1034 C   0  0  0  0  0  0  0  0  0  0  0  0
    2.1824   -5.3832   -0.9216 C   0  0  0  0  0  0  0  0  0  0  0  0
    2.9600   -5.7999   -2.4484 S   0  0  0  0  0  0  0  0  0  0  0  0
    4.6966   -5.3516   -2.1850 C   0  0  0  0  0  0  0  0  0  0  0  0
    0.8579   -5.7814   -0.7580 C   0  0  0  0  0  0  0  0  0  0  0  0
    0.1648   -5.4674    0.3903 C   0  0  0  0  0  0  0  0  0  0  0  0
   -0.9016   -5.1383    3.1456 C   0  0  0  0  0  0  0  0  0  0  0  0
   -0.8778   -6.5240    2.9972 C   0  0  0  0  0  0  0  0  0  0  0  0
   -1.8864   -7.3076    3.5201 C   0  0  0  0  0  0  0  0  0  0  0  0
   -2.9336   -6.7263    4.2216 C   0  0  0  0  0  0  0  0  0  0  0  0
   -4.2735   -7.6484    4.9134 S   0  0  0  0  0  0  0  0  0  0  0  0
   -4.3195   -9.1348    3.8712 C   0  0  0  0  0  0  0  0  0  0  0  0
   -2.9308   -5.3519    4.4272 C   0  0  0  0  0  0  0  0  0  0  0  0
   -1.9307   -4.5713    3.8943 C   0  0  0  0  0  0  0  0  0  0  0  0
    0.5926   -2.7207    4.4127 C   0  0  0  0  0  0  0  0  0  0  0  0
    0.4133   -3.5488    5.9143 S   0  0  0  0  0  0  0  0  0  0  0  0
    0.3060   -1.8262    0.8387 C   0  0  0  0  0  0  0  0  0  0  0  0
   -0.9705   -1.7047    0.3360 C   0  0  0  0  0  0  0  0  0  0  0  0
   -2.0936   -1.6897    1.1812 N   0  0  0  0  0  0  0  0  0  0  0  0
   -2.9734   -2.7607    1.2118 C   0  0  0  0  0  0  0  0  0  0  0  0
   -4.1307   -2.7550    1.9884 C   0  0  0  0  0  0  0  0  0  0  0  0
   -4.9386   -3.8733    2.0634 C   0  0  0  0  0  0  0  0  0  0  0  0
   -4.6236   -5.0155    1.3435 C   0  0  0  0  0  0  0  0  0  0  0  0
   -5.5439   -6.5231    1.4042 S   0  0  0  0  0  0  0  0  0  0  0  0
   -6.7921   -6.2233    2.6855 C   0  0  0  0  0  0  0  0  0  0  0  0
   -3.5216   -4.9953    0.4949 C   0  0  0  0  0  0  0  0  0  0  0  0
   -2.7120   -3.8853    0.4260 C   0  0  0  0  0  0  0  0  0  0  0  0
   -2.1326   -0.5884    2.0626 C   0  0  0  0  0  0  0  0  0  0  0  0
   -2.3436   -0.7183    3.4309 C   0  0  0  0  0  0  0  0  0  0  0  0
   -2.3566    0.3855    4.2619 C   0  0  0  0  0  0  0  0  0  0  0  0
   -2.1644    1.6545    3.7347 C   0  0  0  0  0  0  0  0  0  0  0  0
   -2.2205    3.1373    4.6883 S   0  0  0  0  0  0  0  0  0  0  0  0
   -2.6338    2.5752    6.3628 C   0  0  0  0  0  0  0  0  0  0  0  0
   -1.9212    1.7923    2.3693 C   0  0  0  0  0  0  0  0  0  0  0  0
   -1.9000    0.6886    1.5476 C   0  0  0  0  0  0  0  0  0  0  0  0
   -0.9491   -1.3942   -1.0440 C   0  0  0  0  0  0  0  0  0  0  0  0
   -2.1408   -0.9670   -2.2205 S   0  0  0  0  0  0  0  0  0  0  0  0
   -0.8908   -0.4283   -3.3291 C   0  0  0  0  0  0  0  0  0  0  0  0
    0.3779   -0.6249   -2.8231 C   0  0  0  0  0  0  0  0  0  0  0  0
    1.5885   -0.2592   -3.4436 N   0  0  0  0  0  0  0  0  0  0  0  0
    2.0905    1.0186   -3.2073 C   0  0  0  0  0  0  0  0  0  0  0  0
    3.1268    1.5395   -3.9872 C   0  0  0  0  0  0  0  0  0  0  0  0
    3.6116    2.8069   -3.7495 C   0  0  0  0  0  0  0  0  0  0  0  0
    3.0561    3.6023   -2.7547 C   0  0  0  0  0  0  0  0  0  0  0  0
    3.7544    5.2097   -2.4827 S   0  0  0  0  0  0  0  0  0  0  0  0
    2.2862    6.1850   -2.0372 C   0  0  0  0  0  0  0  0  0  0  0  0
    2.0085    3.1077   -1.9931 C   0  0  0  0  0  0  0  0  0  0  0  0
    1.5329    1.8321   -2.2180 C   0  0  0  0  0  0  0  0  0  0  0  0
    2.3644   -1.3156   -3.9433 C   0  0  0  0  0  0  0  0  0  0  0  0
    1.7362   -2.3385   -4.6501 C   0  0  0  0  0  0  0  0  0  0  0  0
    2.4621   -3.3878   -5.1783 C   0  0  0  0  0  0  0  0  0  0  0  0
    3.8377   -3.4343   -5.0071 C   0  0  0  0  0  0  0  0  0  0  0  0
    4.8741   -4.6916   -5.6930 S   0  0  0  0  0  0  0  0  0  0  0  0
    3.7070   -6.0013   -6.1583 C   0  0  0  0  0  0  0  0  0  0  0  0
    4.4674   -2.4337   -4.2708 C   0  0  0  0  0  0  0  0  0  0  0  0
    3.7415   -1.3935   -3.7334 C   0  0  0  0  0  0  0  0  0  0  0  0
    0.3337   -1.2068   -1.5382 C   0  0  0  0  0  0  0  0  0  0  0  0
    1.5493   -1.5049   -0.3498 S   0  0  0  0  0  0  0  0  0  0  0  0
   -1.2576    0.2258   -4.5477 C   0  0  0  0  0  0  0  0  0  0  0  0
   -0.5698    1.2230   -5.1769 C   0  0  0  0  0  0  0  0  0  0  0  0
   -1.2472    1.7382   -6.3068 C   0  0  0  0  0  0  0  0  0  0  0  0
   -0.8755    2.8211   -7.1160 C   0  0  0  0  0  0  0  0  0  0  0  0
    0.3795    3.5508   -6.8664 C   0  0  0  0  0  0  0  0  0  0  0  0
    1.6126    2.8825   -7.0141 C   0  0  0  0  0  0  0  0  0  0  0  0
    2.7869    3.5393   -6.7895 C   0  0  0  0  0  0  0  0  0  0  0  0
    2.7961    4.8853   -6.3667 C   0  0  0  0  0  0  0  0  0  0  0  0
    3.9913    5.5822   -6.0969 C   0  0  0  0  0  0  0  0  0  0  0  0
    3.9623    6.8772   -5.6617 C   0  0  0  0  0  0  0  0  0  0  0  0
    2.7365    7.5372   -5.4843 C   0  0  0  0  0  0  0  0  0  0  0  0
    1.5603    6.8942   -5.7503 C   0  0  0  0  0  0  0  0  0  0  0  0
    1.5570    5.5563   -6.1973 C   0  0  0  0  0  0  0  0  0  0  0  0
    0.3612    4.8651   -6.4737 C   0  0  0  0  0  0  0  0  0  0  0  0
   -1.7558    3.1672   -8.1204 C   0  0  0  0  0  0  0  0  0  0  0  0
   -2.9836    2.4814   -8.3971 C   0  0  0  0  0  0  0  0  0  0  0  0
   -3.3535    1.3956   -7.5657 C   0  0  0  0  0  0  0  0  0  0  0  0
   -4.4642    0.6319   -7.5801 O   0  0  0  0  0  0  0  0  0  0  0  0
   -5.4149    0.6423   -8.6316 C   0  0  0  0  0  0  0  0  0  0  0  0
   -4.8818    0.0161   -9.9146 C   0  0  0  0  0  0  0  0  0  0  0  0
   -2.4707    1.0782   -6.5370 C   0  0  0  0  0  0  0  0  0  0  0  0
   -2.7684   -0.1592   -5.3479 S   0  0  0  0  0  0  0  0  0  0  0  0
   -3.6438    3.0547   -9.5035 C   0  0  0  0  0  0  0  0  0  0  0  0
   -2.9880    4.1220  -10.0695 C   0  0  0  0  0  0  0  0  0  0  0  0
   -1.4871    4.4854   -9.2208 S   0  0  0  0  0  0  0  0  0  0  0  0
   -3.3245    4.9507  -11.1618 C   0  0  0  0  0  0  0  0  0  0  0  0
   -4.3225    4.8685  -12.0937 C   0  0  0  0  0  0  0  0  0  0  0  0
   -5.3066    3.7788  -12.3235 C   0  0  0  0  0  0  0  0  0  0  0  0
   -5.5974    2.8567  -11.5901 O   0  0  0  0  0  0  0  0  0  0  0  0
   -5.8866    4.0485  -13.6495 C   0  0  0  0  0  0  0  0  0  0  0  0
   -6.7894    3.2785  -14.3805 C   0  0  0  0  0  0  0  0  0  0  0  0
   -7.2445    2.1177  -13.8809 O   0  0  0  0  0  0  0  0  0  0  0  0
   -7.1825    3.7594  -15.6332 C   0  0  0  0  0  0  0  0  0  0  0  0
   -6.6889    4.9527  -16.1251 C   0  0  0  0  0  0  0  0  0  0  0  0
   -5.7913    5.7239  -15.3972 C   0  0  0  0  0  0  0  0  0  0  0  0
   -5.3953    5.2652  -14.1529 C   0  0  0  0  0  0  0  0  0  0  0  0
   -4.4870    5.8393  -13.1627 C   0  0  0  0  0  0  0  0  0  0  0  0
   -3.9682    7.1060  -13.2128 C   0  0  0  0  0  0  0  0  0  0  0  0
   -4.1881    8.0123  -14.2719 C   0  0  0  0  0  0  0  0  0  0  0  0
   -4.3199    8.7993  -15.0974 N   0  0  0  0  0  0  0  0  0  0  0  0
   -3.1936    7.7223  -12.2056 C   0  0  0  0  0  0  0  0  0  0  0  0
   -2.5861    8.3150  -11.4318 N   0  0  0  0  0  0  0  0  0  0  0  0
    0.7680   -3.1211    8.6373 H   0  0  0  0  0  0  0  0  0  0  0  0
   -0.7724    4.0630    9.2068 H   0  0  0  0  0  0  0  0  0  0  0  0
   -0.3050    4.0229   11.4222 H   0  0  0  0  0  0  0  0  0  0  0  0
    0.4956    2.6851   13.3099 H   0  0  0  0  0  0  0  0  0  0  0  0
    1.1404    0.3317   13.0155 H   0  0  0  0  0  0  0  0  0  0  0  0
    0.1712    1.6636    5.3743 H   0  0  0  0  0  0  0  0  0  0  0  0
    0.3815    3.3126    3.5313 H   0  0  0  0  0  0  0  0  0  0  0  0
    4.1047    4.3427    0.1469 H   0  0  0  0  0  0  0  0  0  0  0  0
    4.2324    2.6963    0.7979 H   0  0  0  0  0  0  0  0  0  0  0  0
    4.8710    4.0944    1.7283 H   0  0  0  0  0  0  0  0  0  0  0  0
    4.5217    2.2955    3.1379 H   0  0  0  0  0  0  0  0  0  0  0  0
    4.3016    0.6995    4.9764 H   0  0  0  0  0  0  0  0  0  0  0  0
    3.5198   -1.7489    7.6364 H   0  0  0  0  0  0  0  0  0  0  0  0
    4.6292   -1.3543    9.7541 H   0  0  0  0  0  0  0  0  0  0  0  0
    4.7352   -1.2092   12.1426 H   0  0  0  0  0  0  0  0  0  0  0  0
    6.2594   -0.7499   11.3096 H   0  0  0  0  0  0  0  0  0  0  0  0
    5.9401   -0.2077   12.9720 H   0  0  0  0  0  0  0  0  0  0  0  0
    3.3552    2.7293    9.6748 H   0  0  0  0  0  0  0  0  0  0  0  0
    2.2319    2.3284    7.5138 H   0  0  0  0  0  0  0  0  0  0  0  0
    2.6209   -3.8398    2.0416 H   0  0  0  0  0  0  0  0  0  0  0  0
    3.8413   -4.3846    0.0219 H   0  0  0  0  0  0  0  0  0  0  0  0
    5.0841   -5.8839   -1.3214 H   0  0  0  0  0  0  0  0  0  0  0  0
    4.7847   -4.2752   -2.0675 H   0  0  0  0  0  0  0  0  0  0  0  0
    5.2234   -5.6633   -3.0816 H   0  0  0  0  0  0  0  0  0  0  0  0
    0.3745   -6.3357   -1.5480 H   0  0  0  0  0  0  0  0  0  0  0  0
   -0.8572   -5.7890    0.5042 H   0  0  0  0  0  0  0  0  0  0  0  0
   -0.0609   -6.9956    2.4723 H   0  0  0  0  0  0  0  0  0  0  0  0
   -1.8407   -8.3759    3.3810 H   0  0  0  0  0  0  0  0  0  0  0  0
   -3.4970   -9.7989    4.1209 H   0  0  0  0  0  0  0  0  0  0  0  0
   -4.2890   -8.8364    2.8275 H   0  0  0  0  0  0  0  0  0  0  0  0
   -5.2630   -9.6237    4.0927 H   0  0  0  0  0  0  0  0  0  0  0  0
   -3.7271   -4.8988    4.9977 H   0  0  0  0  0  0  0  0  0  0  0  0
   -1.9531   -3.5059    4.0440 H   0  0  0  0  0  0  0  0  0  0  0  0
   -4.4100   -1.8694    2.5375 H   0  0  0  0  0  0  0  0  0  0  0  0
   -5.8147   -3.8350    2.6906 H   0  0  0  0  0  0  0  0  0  0  0  0
   -7.4613   -5.4265    2.3738 H   0  0  0  0  0  0  0  0  0  0  0  0
   -7.3456   -7.1525    2.7783 H   0  0  0  0  0  0  0  0  0  0  0  0
   -6.3018   -5.9921    3.6266 H   0  0  0  0  0  0  0  0  0  0  0  0
   -3.3071   -5.8658   -0.1074 H   0  0  0  0  0  0  0  0  0  0  0  0
   -1.8611   -3.8819   -0.2378 H   0  0  0  0  0  0  0  0  0  0  0  0
   -2.5010   -1.6924    3.8642 H   0  0  0  0  0  0  0  0  0  0  0  0
   -2.5026    0.2372    5.3196 H   0  0  0  0  0  0  0  0  0  0  0  0
   -2.7354    3.4817    6.9510 H   0  0  0  0  0  0  0  0  0  0  0  0
   -1.8329    1.9648    6.7719 H   0  0  0  0  0  0  0  0  0  0  0  0
   -3.5792    2.0403    6.3457 H   0  0  0  0  0  0  0  0  0  0  0  0
   -1.7619    2.7776    1.9585 H   0  0  0  0  0  0  0  0  0  0  0  0
   -1.7193    0.8131    0.4905 H   0  0  0  0  0  0  0  0  0  0  0  0
    3.5414    0.9492   -4.7895 H   0  0  0  0  0  0  0  0  0  0  0  0
    4.4253    3.1980   -4.3385 H   0  0  0  0  0  0  0  0  0  0  0  0
    2.5762    7.2254   -2.1415 H   0  0  0  0  0  0  0  0  0  0  0  0
    1.9895    5.9850   -1.0113 H   0  0  0  0  0  0  0  0  0  0  0  0
    1.4864    5.9498   -2.7323 H   0  0  0  0  0  0  0  0  0  0  0  0
    1.5662    3.7001   -1.2075 H   0  0  0  0  0  0  0  0  0  0  0  0
    0.7235    1.4649   -1.6061 H   0  0  0  0  0  0  0  0  0  0  0  0
    0.6672   -2.3044   -4.7993 H   0  0  0  0  0  0  0  0  0  0  0  0
    1.9432   -4.1562   -5.7275 H   0  0  0  0  0  0  0  0  0  0  0  0
    3.0772   -6.2407   -5.3065 H   0  0  0  0  0  0  0  0  0  0  0  0
    4.3180   -6.8583   -6.4242 H   0  0  0  0  0  0  0  0  0  0  0  0
    3.1176   -5.6914   -7.0165 H   0  0  0  0  0  0  0  0  0  0  0  0
    5.5357   -2.4856   -4.1212 H   0  0  0  0  0  0  0  0  0  0  0  0
    4.2388   -0.6416   -3.1396 H   0  0  0  0  0  0  0  0  0  0  0  0
    0.3625    1.6231   -4.8254 H   0  0  0  0  0  0  0  0  0  0  0  0
    1.6093    1.8479   -7.3263 H   0  0  0  0  0  0  0  0  0  0  0  0
    3.7305    3.0318   -6.9301 H   0  0  0  0  0  0  0  0  0  0  0  0
    4.9340    5.0719   -6.2354 H   0  0  0  0  0  0  0  0  0  0  0  0
    4.8819    7.4006   -5.4466 H   0  0  0  0  0  0  0  0  0  0  0  0
    2.7315    8.5603   -5.1371 H   0  0  0  0  0  0  0  0  0  0  0  0
    0.6136    7.3999   -5.6210 H   0  0  0  0  0  0  0  0  0  0  0  0
   -0.5811    5.3815   -6.3543 H   0  0  0  0  0  0  0  0  0  0  0  0
   -6.2373    0.0397   -8.2359 H   0  0  0  0  0  0  0  0  0  0  0  0
   -5.7893    1.6552   -8.8041 H   0  0  0  0  0  0  0  0  0  0  0  0
   -3.9517    0.4885  -10.2207 H   0  0  0  0  0  0  0  0  0  0  0  0
   -5.6098    0.1495  -10.7089 H   0  0  0  0  0  0  0  0  0  0  0  0
   -4.6969   -1.0449   -9.7655 H   0  0  0  0  0  0  0  0  0  0  0  0
   -4.5737    2.7226   -9.9199 H   0  0  0  0  0  0  0  0  0  0  0  0
   -2.6317    5.7757  -11.2854 H   0  0  0  0  0  0  0  0  0  0  0  0
   -7.8621    1.7006  -14.4955 H   0  0  0  0  0  0  0  0  0  0  0  0
   -7.8827    3.1818  -16.2223 H   0  0  0  0  0  0  0  0  0  0  0  0
   -7.0082    5.2933  -17.0983 H   0  0  0  0  0  0  0  0  0  0  0  0
   -5.4188    6.6466  -15.8078 H   0  0  0  0  0  0  0  0  0  0  0  0
  1  2  2  0  0  0  0
  2  3  1  0  0  0  0
  3  4  2  0  0  0  0
  3  5  1  0  0  0  0
  5  6  2  0  0  0  0
  6  7  1  0  0  0  0
  6  8  1  0  0  0  0
  8  9  2  0  0  0  0
  9 10  1  0  0  0  0
 10 11  2  0  0  0  0
 11 12  1  0  0  0  0
 12 13  2  0  0  0  0
 13 14  1  0  0  0  0
 14 15  3  0  0  0  0
 13 16  1  0  0  0  0
 16 17  3  0  0  0  0
  1 18  1  0  0  0  0
 18 19  2  0  0  0  0
 19 20  1  0  0  0  0
 20 21  1  0  0  0  0
 21 22  2  0  0  0  0
 22 23  1  0  0  0  0
 23 24  2  0  0  0  0
 24 25  1  0  0  0  0
 25 26  1  0  0  0  0
 24 27  1  0  0  0  0
 27 28  2  0  0  0  0
 20 29  1  0  0  0  0
 29 30  2  0  0  0  0
 30 31  1  0  0  0  0
 31 32  2  0  0  0  0
 32 33  1  0  0  0  0
 33 34  1  0  0  0  0
 32 35  1  0  0  0  0
 35 36  2  0  0  0  0
 19 37  1  0  0  0  0
 37 38  1  0  0  0  0
 38 39  1  0  0  0  0
 39 40  2  0  0  0  0
 40 41  1  0  0  0  0
 41 42  1  0  0  0  0
 42 43  2  0  0  0  0
 43 44  1  0  0  0  0
 44 45  2  0  0  0  0
 45 46  1  0  0  0  0
 46 47  1  0  0  0  0
 45 48  1  0  0  0  0
 48 49  2  0  0  0  0
 41 50  1  0  0  0  0
 50 51  2  0  0  0  0
 51 52  1  0  0  0  0
 52 53  2  0  0  0  0
 53 54  1  0  0  0  0
 54 55  1  0  0  0  0
 53 56  1  0  0  0  0
 56 57  2  0  0  0  0
 40 58  1  0  0  0  0
 58 59  1  0  0  0  0
 39 60  1  0  0  0  0
 60 61  2  0  0  0  0
 61 62  1  0  0  0  0
 62 63  1  0  0  0  0
 63 64  2  0  0  0  0
 64 65  1  0  0  0  0
 65 66  2  0  0  0  0
 66 67  1  0  0  0  0
 67 68  1  0  0  0  0
 66 69  1  0  0  0  0
 69 70  2  0  0  0  0
 62 71  1  0  0  0  0
 71 72  2  0  0  0  0
 72 73  1  0  0  0  0
 73 74  2  0  0  0  0
 74 75  1  0  0  0  0
 75 76  1  0  0  0  0
 74 77  1  0  0  0  0
 77 78  2  0  0  0  0
 61 79  1  0  0  0  0
 79 80  1  0  0  0  0
 80 81  1  0  0  0  0
 81 82  2  0  0  0  0
 82 83  1  0  0  0  0
 83 84  1  0  0  0  0
 84 85  2  0  0  0  0
 85 86  1  0  0  0  0
 86 87  2  0  0  0  0
 87 88  1  0  0  0  0
 88 89  1  0  0  0  0
 87 90  1  0  0  0  0
 90 91  2  0  0  0  0
 83 92  1  0  0  0  0
 92 93  2  0  0  0  0
 93 94  1  0  0  0  0
 94 95  2  0  0  0  0
 95 96  1  0  0  0  0
 96 97  1  0  0  0  0
 95 98  1  0  0  0  0
 98 99  2  0  0  0  0
 82100  1  0  0  0  0
100101  1  0  0  0  0
 81102  1  0  0  0  0
102103  2  0  0  0  0
103104  1  0  0  0  0
104105  2  0  0  0  0
105106  1  0  0  0  0
106107  2  0  0  0  0
107108  1  0  0  0  0
108109  2  0  0  0  0
109110  1  0  0  0  0
110111  2  0  0  0  0
111112  1  0  0  0  0
112113  2  0  0  0  0
113114  1  0  0  0  0
114115  2  0  0  0  0
105116  1  0  0  0  0
116117  2  0  0  0  0
117118  1  0  0  0  0
118119  1  0  0  0  0
119120  1  0  0  0  0
120121  1  0  0  0  0
118122  2  0  0  0  0
122123  1  0  0  0  0
117124  1  0  0  0  0
124125  2  0  0  0  0
125126  1  0  0  0  0
125127  1  0  0  0  0
127128  2  0  0  0  0
128129  1  0  0  0  0
129130  2  0  0  0  0
129131  1  0  0  0  0
131132  2  0  0  0  0
132133  1  0  0  0  0
132134  1  0  0  0  0
134135  2  0  0  0  0
135136  1  0  0  0  0
136137  2  0  0  0  0
137138  1  0  0  0  0
138139  2  0  0  0  0
139140  1  0  0  0  0
140141  3  0  0  0  0
139142  1  0  0  0  0
142143  3  0  0  0  0
 12  2  1  0  0  0  0
 59 18  1  0  0  0  0
101 60  1  0  0  0  0
123102  1  0  0  0  0
138128  1  0  0  0  0
 11  5  1  0  0  0  0
 28 21  1  0  0  0  0
 36 29  1  0  0  0  0
 58 37  2  0  0  0  0
 70 63  1  0  0  0  0
 78 71  1  0  0  0  0
100 79  2  0  0  0  0
122104  1  0  0  0  0
137131  1  0  0  0  0
 49 42  1  0  0  0  0
 57 50  1  0  0  0  0
 91 84  1  0  0  0  0
 99 92  1  0  0  0  0
115106  1  0  0  0  0
126116  1  0  0  0  0
114109  1  0  0  0  0
  1144  1  0  0  0  0
  7145  1  0  0  0  0
  8146  1  0  0  0  0
  9147  1  0  0  0  0
 10148  1  0  0  0  0
 22149  1  0  0  0  0
 23150  1  0  0  0  0
 26151  1  0  0  0  0
 26152  1  0  0  0  0
 26153  1  0  0  0  0
 27154  1  0  0  0  0
 28155  1  0  0  0  0
 30156  1  0  0  0  0
 31157  1  0  0  0  0
 34158  1  0  0  0  0
 34159  1  0  0  0  0
 34160  1  0  0  0  0
 35161  1  0  0  0  0
 36162  1  0  0  0  0
 43163  1  0  0  0  0
 44164  1  0  0  0  0
 47165  1  0  0  0  0
 47166  1  0  0  0  0
 47167  1  0  0  0  0
 48168  1  0  0  0  0
 49169  1  0  0  0  0
 51170  1  0  0  0  0
 52171  1  0  0  0  0
 55172  1  0  0  0  0
 55173  1  0  0  0  0
 55174  1  0  0  0  0
 56175  1  0  0  0  0
 57176  1  0  0  0  0
 64177  1  0  0  0  0
 65178  1  0  0  0  0
 68179  1  0  0  0  0
 68180  1  0  0  0  0
 68181  1  0  0  0  0
 69182  1  0  0  0  0
 70183  1  0  0  0  0
 72184  1  0  0  0  0
 73185  1  0  0  0  0
 76186  1  0  0  0  0
 76187  1  0  0  0  0
 76188  1  0  0  0  0
 77189  1  0  0  0  0
 78190  1  0  0  0  0
 85191  1  0  0  0  0
 86192  1  0  0  0  0
 89193  1  0  0  0  0
 89194  1  0  0  0  0
 89195  1  0  0  0  0
 90196  1  0  0  0  0
 91197  1  0  0  0  0
 93198  1  0  0  0  0
 94199  1  0  0  0  0
 97200  1  0  0  0  0
 97201  1  0  0  0  0
 97202  1  0  0  0  0
 98203  1  0  0  0  0
 99204  1  0  0  0  0
103205  1  0  0  0  0
107206  1  0  0  0  0
108207  1  0  0  0  0
110208  1  0  0  0  0
111209  1  0  0  0  0
112210  1  0  0  0  0
113211  1  0  0  0  0
115212  1  0  0  0  0
120213  1  0  0  0  0
120214  1  0  0  0  0
121215  1  0  0  0  0
121216  1  0  0  0  0
121217  1  0  0  0  0
124218  1  0  0  0  0
127219  1  0  0  0  0
133220  1  0  0  0  0
134221  1  0  0  0  0
135222  1  0  0  0  0
136223  1  0  0  0  0
M  END
