
  xtb     02112205363D
 energy: -285.494721698438 gnorm: 0.000543681119 xtb: 6.4.1 (unknown)
160175  0     0  0            999 V2000
    3.4331    2.5242   -9.7951 C   0  0  0  0  0  0  0  0  0  0  0  0
    2.2157    3.0365  -10.0667 C   0  0  0  0  0  0  0  0  0  0  0  0
    1.9048    3.5545  -11.4347 C   0  0  0  0  0  0  0  0  0  0  0  0
    2.5206    3.3223  -12.4496 O   0  0  0  0  0  0  0  0  0  0  0  0
    0.7469    4.4375  -11.2469 C   0  0  0  0  0  0  0  0  0  0  0  0
    0.1312    5.2626  -12.1748 C   0  0  0  0  0  0  0  0  0  0  0  0
   -0.9510    6.0313  -11.7744 C   0  0  0  0  0  0  0  0  0  0  0  0
   -1.6456    6.8696  -12.5689 O   0  0  0  0  0  0  0  0  0  0  0  0
   -1.2592    6.9966  -13.9183 C   0  0  0  0  0  0  0  0  0  0  0  0
   -1.4089    5.9640  -10.4240 C   0  0  0  0  0  0  0  0  0  0  0  0
   -2.4632    6.7534  -10.1455 O   0  0  0  0  0  0  0  0  0  0  0  0
   -2.9990    6.7397   -8.8401 C   0  0  0  0  0  0  0  0  0  0  0  0
   -0.7844    5.1306   -9.5079 C   0  0  0  0  0  0  0  0  0  0  0  0
    0.2966    4.3597   -9.9193 C   0  0  0  0  0  0  0  0  0  0  0  0
    1.0876    3.3734   -9.2027 C   0  0  0  0  0  0  0  0  0  0  0  0
    0.7170    2.7447   -8.0431 C   0  0  0  0  0  0  0  0  0  0  0  0
    1.3349    1.5898   -7.5238 C   0  0  0  0  0  0  0  0  0  0  0  0
    1.7345    0.6053   -7.0870 N   0  0  0  0  0  0  0  0  0  0  0  0
   -0.3793    3.1510   -7.2532 C   0  0  0  0  0  0  0  0  0  0  0  0
   -1.2347    3.4834   -6.5639 N   0  0  0  0  0  0  0  0  0  0  0  0
    3.9684    2.2646   -8.4756 C   0  0  0  0  0  0  0  0  0  0  0  0
    3.6816    3.1393   -7.4156 C   0  0  0  0  0  0  0  0  0  0  0  0
    4.0371    2.7702   -6.1434 C   0  0  0  0  0  0  0  0  0  0  0  0
    3.6711    3.4210   -4.8588 C   0  0  0  0  0  0  0  0  0  0  0  0
    3.1183    4.4836   -4.6985 O   0  0  0  0  0  0  0  0  0  0  0  0
    4.0680    2.4278   -3.8304 C   0  0  0  0  0  0  0  0  0  0  0  0
    4.7168    1.3395   -4.4460 C   0  0  0  0  0  0  0  0  0  0  0  0
    4.6950    1.5499   -5.8880 C   0  0  0  0  0  0  0  0  0  0  0  0
    5.0847    0.7467   -6.9426 C   0  0  0  0  0  0  0  0  0  0  0  0
    4.7241    1.1172   -8.2309 C   0  0  0  0  0  0  0  0  0  0  0  0
    5.1400    0.2736   -3.6747 C   0  0  0  0  0  0  0  0  0  0  0  0
    4.7866    0.2434   -2.3334 C   0  0  0  0  0  0  0  0  0  0  0  0
    4.0333    1.2650   -1.7491 C   0  0  0  0  0  0  0  0  0  0  0  0
    3.7496    2.4186   -2.4951 C   0  0  0  0  0  0  0  0  0  0  0  0
    3.3955    1.0570   -0.4637 C   0  0  0  0  0  0  0  0  0  0  0  0
    2.1068    1.4309   -0.1339 C   0  0  0  0  0  0  0  0  0  0  0  0
    1.2604    2.2328   -0.9290 N   0  0  0  0  0  0  0  0  0  0  0  0
    0.5911    1.6728   -2.0192 C   0  0  0  0  0  0  0  0  0  0  0  0
   -0.5661    2.2772   -2.5235 C   0  0  0  0  0  0  0  0  0  0  0  0
   -1.2074    1.7612   -3.6251 C   0  0  0  0  0  0  0  0  0  0  0  0
   -0.7289    0.6118   -4.2522 C   0  0  0  0  0  0  0  0  0  0  0  0
   -1.6182    0.0524   -5.6697 S   0  0  0  0  0  0  0  0  0  0  0  0
   -0.6884   -1.4052   -6.2223 C   0  0  0  0  0  0  0  0  0  0  0  0
    0.3788   -0.0306   -3.7219 C   0  0  0  0  0  0  0  0  0  0  0  0
    1.0227    0.4889   -2.6148 C   0  0  0  0  0  0  0  0  0  0  0  0
    1.2569    3.6127   -0.6742 C   0  0  0  0  0  0  0  0  0  0  0  0
    1.4233    4.0925    0.6266 C   0  0  0  0  0  0  0  0  0  0  0  0
    1.4553    5.4465    0.8766 C   0  0  0  0  0  0  0  0  0  0  0  0
    1.3302    6.3644   -0.1628 C   0  0  0  0  0  0  0  0  0  0  0  0
    1.3776    8.0728    0.2820 S   0  0  0  0  0  0  0  0  0  0  0  0
    1.2217    8.9397   -1.3047 C   0  0  0  0  0  0  0  0  0  0  0  0
    1.1878    5.8968   -1.4620 C   0  0  0  0  0  0  0  0  0  0  0  0
    1.1580    4.5400   -1.7134 C   0  0  0  0  0  0  0  0  0  0  0  0
    1.7152    0.8738    1.1046 C   0  0  0  0  0  0  0  0  0  0  0  0
    0.2528    0.8966    2.0260 S   0  0  0  0  0  0  0  0  0  0  0  0
    1.0003   -0.0904    3.2649 C   0  0  0  0  0  0  0  0  0  0  0  0
    2.2912   -0.4726    2.9437 C   0  0  0  0  0  0  0  0  0  0  0  0
    3.0568   -1.3781    3.6655 N   0  0  0  0  0  0  0  0  0  0  0  0
    4.4390   -1.1979    3.7597 C   0  0  0  0  0  0  0  0  0  0  0  0
    4.9902    0.0848    3.7794 C   0  0  0  0  0  0  0  0  0  0  0  0
    6.3545    0.2544    3.8478 C   0  0  0  0  0  0  0  0  0  0  0  0
    7.2029   -0.8487    3.9123 C   0  0  0  0  0  0  0  0  0  0  0  0
    8.9323   -0.5015    3.9982 S   0  0  0  0  0  0  0  0  0  0  0  0
    9.7072   -2.1407    4.0820 C   0  0  0  0  0  0  0  0  0  0  0  0
    6.6590   -2.1262    3.9091 C   0  0  0  0  0  0  0  0  0  0  0  0
    5.2911   -2.2969    3.8283 C   0  0  0  0  0  0  0  0  0  0  0  0
    2.4137   -2.4444    4.3146 C   0  0  0  0  0  0  0  0  0  0  0  0
    2.7623   -2.8111    5.6143 C   0  0  0  0  0  0  0  0  0  0  0  0
    2.0059   -3.7375    6.2976 C   0  0  0  0  0  0  0  0  0  0  0  0
    0.8865   -4.3185    5.7044 C   0  0  0  0  0  0  0  0  0  0  0  0
   -0.1113   -5.3580    6.7234 S   0  0  0  0  0  0  0  0  0  0  0  0
   -1.5392   -5.7503    5.6799 C   0  0  0  0  0  0  0  0  0  0  0  0
    0.5999   -4.0318    4.3760 C   0  0  0  0  0  0  0  0  0  0  0  0
    1.3599   -3.1063    3.6909 C   0  0  0  0  0  0  0  0  0  0  0  0
    2.6936    0.1011    1.7113 C   0  0  0  0  0  0  0  0  0  0  0  0
    4.1244    0.0245    0.7464 S   0  0  0  0  0  0  0  0  0  0  0  0
    0.2527   -0.4966    4.4410 C   0  0  0  0  0  0  0  0  0  0  0  0
   -1.0404   -1.0212    4.3161 C   0  0  0  0  0  0  0  0  0  0  0  0
   -1.6327   -1.5753    5.4264 C   0  0  0  0  0  0  0  0  0  0  0  0
   -2.9231   -2.3078    5.5354 C   0  0  0  0  0  0  0  0  0  0  0  0
   -3.7421   -2.4974    4.6678 O   0  0  0  0  0  0  0  0  0  0  0  0
   -2.9605   -2.7810    6.9474 C   0  0  0  0  0  0  0  0  0  0  0  0
   -1.8066   -2.3272    7.6195 C   0  0  0  0  0  0  0  0  0  0  0  0
   -0.9843   -1.5847    6.6775 C   0  0  0  0  0  0  0  0  0  0  0  0
    0.2483   -0.9780    6.8221 C   0  0  0  0  0  0  0  0  0  0  0  0
    0.8594   -0.4455    5.6987 C   0  0  0  0  0  0  0  0  0  0  0  0
   -1.6206   -2.6314    8.9558 C   0  0  0  0  0  0  0  0  0  0  0  0
   -2.5853   -3.3850    9.6011 C   0  0  0  0  0  0  0  0  0  0  0  0
   -3.7117   -3.8825    8.9301 C   0  0  0  0  0  0  0  0  0  0  0  0
   -3.9031   -3.5572    7.5758 C   0  0  0  0  0  0  0  0  0  0  0  0
   -4.6729   -4.6455    9.6842 C   0  0  0  0  0  0  0  0  0  0  0  0
   -5.4549   -5.6696    9.2522 C   0  0  0  0  0  0  0  0  0  0  0  0
   -5.2606   -6.4426    7.9967 C   0  0  0  0  0  0  0  0  0  0  0  0
   -4.4254   -6.2782    7.1355 O   0  0  0  0  0  0  0  0  0  0  0  0
   -6.2410   -7.5470    8.0587 C   0  0  0  0  0  0  0  0  0  0  0  0
   -6.4613   -8.5399    7.1251 C   0  0  0  0  0  0  0  0  0  0  0  0
   -7.4435   -9.4862    7.3885 C   0  0  0  0  0  0  0  0  0  0  0  0
   -7.7758  -10.7458    6.2659 Cl  0  0  0  0  0  0  0  0  0  0  0  0
   -8.1668   -9.4073    8.5822 C   0  0  0  0  0  0  0  0  0  0  0  0
   -9.1088  -10.3243    8.8307 F   0  0  0  0  0  0  0  0  0  0  0  0
   -7.9485   -8.4166    9.5252 C   0  0  0  0  0  0  0  0  0  0  0  0
   -6.9694   -7.4694    9.2586 C   0  0  0  0  0  0  0  0  0  0  0  0
   -6.5074   -6.3180   10.0223 C   0  0  0  0  0  0  0  0  0  0  0  0
   -7.0217   -5.9038   11.2239 C   0  0  0  0  0  0  0  0  0  0  0  0
   -6.6160   -4.7599   11.9433 C   0  0  0  0  0  0  0  0  0  0  0  0
   -6.3560   -3.8471   12.5901 N   0  0  0  0  0  0  0  0  0  0  0  0
   -8.0528   -6.5752   11.9148 C   0  0  0  0  0  0  0  0  0  0  0  0
   -8.8827   -7.0756   12.5298 N   0  0  0  0  0  0  0  0  0  0  0  0
    4.0656    2.3091  -10.6494 H   0  0  0  0  0  0  0  0  0  0  0  0
    0.5043    5.2809  -13.1857 H   0  0  0  0  0  0  0  0  0  0  0  0
   -0.2382    7.3797  -14.0084 H   0  0  0  0  0  0  0  0  0  0  0  0
   -1.9538    7.7122  -14.3544 H   0  0  0  0  0  0  0  0  0  0  0  0
   -1.3391    6.0430  -14.4488 H   0  0  0  0  0  0  0  0  0  0  0  0
   -2.2704    7.0928   -8.1045 H   0  0  0  0  0  0  0  0  0  0  0  0
   -3.3448    5.7413   -8.5575 H   0  0  0  0  0  0  0  0  0  0  0  0
   -3.8456    7.4230   -8.8676 H   0  0  0  0  0  0  0  0  0  0  0  0
   -1.1263    5.0882   -8.4885 H   0  0  0  0  0  0  0  0  0  0  0  0
    3.1712    4.0750   -7.5914 H   0  0  0  0  0  0  0  0  0  0  0  0
    5.6198   -0.1751   -6.7737 H   0  0  0  0  0  0  0  0  0  0  0  0
    4.9691    0.4695   -9.0598 H   0  0  0  0  0  0  0  0  0  0  0  0
    5.6825   -0.5518   -4.1099 H   0  0  0  0  0  0  0  0  0  0  0  0
    5.0439   -0.6192   -1.7349 H   0  0  0  0  0  0  0  0  0  0  0  0
    3.2668    3.2715   -2.0488 H   0  0  0  0  0  0  0  0  0  0  0  0
   -0.9660    3.1539   -2.0381 H   0  0  0  0  0  0  0  0  0  0  0  0
   -2.0885    2.2442   -4.0173 H   0  0  0  0  0  0  0  0  0  0  0  0
    0.3261   -1.1101   -6.4782 H   0  0  0  0  0  0  0  0  0  0  0  0
   -0.7040   -2.1700   -5.4515 H   0  0  0  0  0  0  0  0  0  0  0  0
   -1.2060   -1.7634   -7.1068 H   0  0  0  0  0  0  0  0  0  0  0  0
    0.7650   -0.9346   -4.1631 H   0  0  0  0  0  0  0  0  0  0  0  0
    1.8751   -0.0427   -2.2234 H   0  0  0  0  0  0  0  0  0  0  0  0
    1.5235    3.4055    1.4513 H   0  0  0  0  0  0  0  0  0  0  0  0
    1.5763    5.8088    1.8860 H   0  0  0  0  0  0  0  0  0  0  0  0
    0.2707    8.6956   -1.7693 H   0  0  0  0  0  0  0  0  0  0  0  0
    2.0554    8.6823   -1.9515 H   0  0  0  0  0  0  0  0  0  0  0  0
    1.2538    9.9978   -1.0637 H   0  0  0  0  0  0  0  0  0  0  0  0
    1.1164    6.5718   -2.2986 H   0  0  0  0  0  0  0  0  0  0  0  0
    1.0774    4.2036   -2.7359 H   0  0  0  0  0  0  0  0  0  0  0  0
    4.3428    0.9488    3.7501 H   0  0  0  0  0  0  0  0  0  0  0  0
    6.7805    1.2458    3.8604 H   0  0  0  0  0  0  0  0  0  0  0  0
   10.7753   -1.9548    4.1379 H   0  0  0  0  0  0  0  0  0  0  0  0
    9.3774   -2.6636    4.9750 H   0  0  0  0  0  0  0  0  0  0  0  0
    9.4786   -2.7069    3.1837 H   0  0  0  0  0  0  0  0  0  0  0  0
    7.2876   -3.0005    3.9595 H   0  0  0  0  0  0  0  0  0  0  0  0
    4.8752   -3.2934    3.8140 H   0  0  0  0  0  0  0  0  0  0  0  0
    3.6058   -2.3387    6.0953 H   0  0  0  0  0  0  0  0  0  0  0  0
    2.2517   -3.9979    7.3154 H   0  0  0  0  0  0  0  0  0  0  0  0
   -2.2716   -6.2161    6.3319 H   0  0  0  0  0  0  0  0  0  0  0  0
   -1.9594   -4.8376    5.2691 H   0  0  0  0  0  0  0  0  0  0  0  0
   -1.2457   -6.4396    4.8932 H   0  0  0  0  0  0  0  0  0  0  0  0
   -0.2198   -4.5110    3.8664 H   0  0  0  0  0  0  0  0  0  0  0  0
    1.1148   -2.8712    2.6657 H   0  0  0  0  0  0  0  0  0  0  0  0
   -1.5371   -1.0381    3.3572 H   0  0  0  0  0  0  0  0  0  0  0  0
    0.7442   -0.9426    7.7796 H   0  0  0  0  0  0  0  0  0  0  0  0
    1.8337    0.0116    5.7891 H   0  0  0  0  0  0  0  0  0  0  0  0
   -0.7477   -2.2879    9.4889 H   0  0  0  0  0  0  0  0  0  0  0  0
   -2.4583   -3.6259   10.6467 H   0  0  0  0  0  0  0  0  0  0  0  0
   -4.7832   -3.8791    7.0432 H   0  0  0  0  0  0  0  0  0  0  0  0
   -4.7525   -4.3582   10.7258 H   0  0  0  0  0  0  0  0  0  0  0  0
   -5.8866   -8.5740    6.2133 H   0  0  0  0  0  0  0  0  0  0  0  0
   -8.5392   -8.4156   10.4265 H   0  0  0  0  0  0  0  0  0  0  0  0
  1  2  2  0  0  0  0
  2  3  1  0  0  0  0
  3  4  2  0  0  0  0
  3  5  1  0  0  0  0
  5  6  2  0  0  0  0
  6  7  1  0  0  0  0
  7  8  1  0  0  0  0
  8  9  1  0  0  0  0
  7 10  2  0  0  0  0
 10 11  1  0  0  0  0
 11 12  1  0  0  0  0
 10 13  1  0  0  0  0
 13 14  2  0  0  0  0
 14 15  1  0  0  0  0
 15 16  2  0  0  0  0
 16 17  1  0  0  0  0
 17 18  3  0  0  0  0
 16 19  1  0  0  0  0
 19 20  3  0  0  0  0
  1 21  1  0  0  0  0
 21 22  2  0  0  0  0
 22 23  1  0  0  0  0
 23 24  1  0  0  0  0
 24 25  2  0  0  0  0
 24 26  1  0  0  0  0
 26 27  2  0  0  0  0
 27 28  1  0  0  0  0
 28 29  1  0  0  0  0
 29 30  2  0  0  0  0
 27 31  1  0  0  0  0
 31 32  2  0  0  0  0
 32 33  1  0  0  0  0
 33 34  2  0  0  0  0
 33 35  1  0  0  0  0
 35 36  2  0  0  0  0
 36 37  1  0  0  0  0
 37 38  1  0  0  0  0
 38 39  2  0  0  0  0
 39 40  1  0  0  0  0
 40 41  2  0  0  0  0
 41 42  1  0  0  0  0
 42 43  1  0  0  0  0
 41 44  1  0  0  0  0
 44 45  2  0  0  0  0
 37 46  1  0  0  0  0
 46 47  2  0  0  0  0
 47 48  1  0  0  0  0
 48 49  2  0  0  0  0
 49 50  1  0  0  0  0
 50 51  1  0  0  0  0
 49 52  1  0  0  0  0
 52 53  2  0  0  0  0
 36 54  1  0  0  0  0
 54 55  1  0  0  0  0
 55 56  1  0  0  0  0
 56 57  2  0  0  0  0
 57 58  1  0  0  0  0
 58 59  1  0  0  0  0
 59 60  2  0  0  0  0
 60 61  1  0  0  0  0
 61 62  2  0  0  0  0
 62 63  1  0  0  0  0
 63 64  1  0  0  0  0
 62 65  1  0  0  0  0
 65 66  2  0  0  0  0
 58 67  1  0  0  0  0
 67 68  2  0  0  0  0
 68 69  1  0  0  0  0
 69 70  2  0  0  0  0
 70 71  1  0  0  0  0
 71 72  1  0  0  0  0
 70 73  1  0  0  0  0
 73 74  2  0  0  0  0
 57 75  1  0  0  0  0
 75 76  1  0  0  0  0
 56 77  1  0  0  0  0
 77 78  2  0  0  0  0
 78 79  1  0  0  0  0
 79 80  1  0  0  0  0
 80 81  2  0  0  0  0
 80 82  1  0  0  0  0
 82 83  2  0  0  0  0
 83 84  1  0  0  0  0
 84 85  1  0  0  0  0
 85 86  2  0  0  0  0
 83 87  1  0  0  0  0
 87 88  2  0  0  0  0
 88 89  1  0  0  0  0
 89 90  2  0  0  0  0
 89 91  1  0  0  0  0
 91 92  2  0  0  0  0
 92 93  1  0  0  0  0
 93 94  2  0  0  0  0
 93 95  1  0  0  0  0
 95 96  2  0  0  0  0
 96 97  1  0  0  0  0
 97 98  1  0  0  0  0
 97 99  2  0  0  0  0
 99100  1  0  0  0  0
 99101  1  0  0  0  0
101102  2  0  0  0  0
102103  1  0  0  0  0
103104  2  0  0  0  0
104105  1  0  0  0  0
105106  3  0  0  0  0
104107  1  0  0  0  0
107108  3  0  0  0  0
 15  2  1  0  0  0  0
 30 21  1  0  0  0  0
 76 35  1  0  0  0  0
 86 77  1  0  0  0  0
103 92  1  0  0  0  0
 14  5  1  0  0  0  0
 28 23  2  0  0  0  0
 45 38  1  0  0  0  0
 53 46  1  0  0  0  0
 75 54  2  0  0  0  0
 84 79  2  0  0  0  0
102 95  1  0  0  0  0
 34 26  1  0  0  0  0
 66 59  1  0  0  0  0
 74 67  1  0  0  0  0
 90 82  1  0  0  0  0
  1109  1  0  0  0  0
  6110  1  0  0  0  0
  9111  1  0  0  0  0
  9112  1  0  0  0  0
  9113  1  0  0  0  0
 12114  1  0  0  0  0
 12115  1  0  0  0  0
 12116  1  0  0  0  0
 13117  1  0  0  0  0
 22118  1  0  0  0  0
 29119  1  0  0  0  0
 30120  1  0  0  0  0
 31121  1  0  0  0  0
 32122  1  0  0  0  0
 34123  1  0  0  0  0
 39124  1  0  0  0  0
 40125  1  0  0  0  0
 43126  1  0  0  0  0
 43127  1  0  0  0  0
 43128  1  0  0  0  0
 44129  1  0  0  0  0
 45130  1  0  0  0  0
 47131  1  0  0  0  0
 48132  1  0  0  0  0
 51133  1  0  0  0  0
 51134  1  0  0  0  0
 51135  1  0  0  0  0
 52136  1  0  0  0  0
 53137  1  0  0  0  0
 60138  1  0  0  0  0
 61139  1  0  0  0  0
 64140  1  0  0  0  0
 64141  1  0  0  0  0
 64142  1  0  0  0  0
 65143  1  0  0  0  0
 66144  1  0  0  0  0
 68145  1  0  0  0  0
 69146  1  0  0  0  0
 72147  1  0  0  0  0
 72148  1  0  0  0  0
 72149  1  0  0  0  0
 73150  1  0  0  0  0
 74151  1  0  0  0  0
 78152  1  0  0  0  0
 85153  1  0  0  0  0
 86154  1  0  0  0  0
 87155  1  0  0  0  0
 88156  1  0  0  0  0
 90157  1  0  0  0  0
 91158  1  0  0  0  0
 96159  1  0  0  0  0
101160  1  0  0  0  0
M  END
