231

C         10.58770        3.39740       -1.82240
C         10.15600        4.55540       -2.40080
C         11.11550        5.53950       -2.96680
O         12.31610        5.56340       -2.80020
C         10.29460        6.42970       -3.80770
C         10.69760        7.45650       -4.64540
C          9.73510        8.15600       -5.35960
O          9.98620        9.18280       -6.20120
C         11.32180        9.58980       -6.38600
C          8.35930        7.80850       -5.23030
O          7.51150        8.54330       -5.97970
C          6.12850        8.27930       -5.89370
C          7.97020        6.78440       -4.37890
C          8.94060        6.09740       -3.66310
C          8.81850        5.03990       -2.67280
C          7.68500        4.77690       -1.94060
C          6.42300        5.32990       -2.21280
N          5.35950        5.72630       -2.39700
C          7.66690        3.97700       -0.78100
N          7.61000        3.38520        0.20230
C          9.80270        2.23460       -1.63610
C          9.84030        1.31180       -0.58660
C         10.92030        1.38450        0.44850
C         12.24290        0.83450       -0.09400
C          8.75780        0.42630       -0.63900
C          7.96140        0.64610       -1.76730
S          8.50560        1.90870       -2.77460
C          6.77850       -0.10250       -1.68410
C          6.75810       -0.78890       -0.47310
C          8.05110       -0.56080        0.28800
C          7.79440        0.15080        1.63200
C          6.88970       -0.59650        2.60310
C          8.73990       -1.93680        0.41260
C          9.99630       -1.99640        1.26970
C          5.55090       -1.44820       -0.27210
C          4.64660       -1.22260       -1.30100
S          5.33310       -0.25310       -2.58720
C          3.25850       -1.50210       -1.29900
C          2.33440       -1.16570       -2.28200
N          2.68830       -0.72040       -3.56240
C          2.46430        0.61780       -3.90890
C          2.20070        0.98900       -5.22760
C          2.11260        2.32050       -5.56890
C          2.26840        3.31270       -4.60320
S          2.27670        4.98410       -5.17680
C          2.30430        5.97670       -3.65810
C          2.43930        2.94780       -3.27600
C          2.53100        1.61250       -2.93580
C          3.29140       -1.64240       -4.42140
C          3.01160       -3.00410       -4.28180
C          3.61720       -3.93180       -5.09830
C          4.51770       -3.52930       -6.08140
S          5.22580       -4.81020       -7.07170
C          6.22690       -3.91590       -8.29320
C          4.80770       -2.17940       -6.22110
C          4.20590       -1.24900       -5.39720
C          1.01490       -1.35170       -1.82930
S         -0.55240       -1.07800       -2.49950
C         -1.31830       -1.61540       -1.00730
C         -0.39310       -2.00810       -0.05910
N         -0.68770       -2.36280        1.27530
C         -0.59100       -1.28100        2.17870
C         -1.30110       -0.10470        1.93210
C         -1.21370        0.96160        2.80000
C         -0.40960        0.88870        3.93460
S         -0.39580        2.30890        4.98460
C          0.88520        1.93020        6.21350
C          0.32180       -0.26680        4.17060
C          0.23780       -1.33300        3.29600
C         -0.41910       -3.66710        1.69990
C          0.22270       -4.59630        0.88050
C          0.45630       -5.87850        1.32500
C          0.05200       -6.27540        2.59510
S          0.42210       -7.93990        3.05960
C         -0.55520       -8.18970        4.57020
C         -0.61350       -5.36730        3.40590
C         -0.85500       -4.08460        2.95710
C          0.92540       -1.85210       -0.53740
S          2.48890       -2.10780        0.15860
C         -2.72550       -1.40080       -0.88310
C         -3.69180       -1.99150       -0.07980
N         -3.58750       -3.14470        0.68300
C         -3.06140       -4.34170        0.19950
C         -2.95060       -5.44460        1.05230
C         -2.43720       -6.63580        0.59750
C         -1.99640       -6.76530       -0.71720
S         -1.32010       -8.33060       -1.17450
C         -0.57930       -8.01550       -2.80260
C         -2.11700       -5.68320       -1.57430
C         -2.65140       -4.49100       -1.12260
C         -4.37040       -3.12940        1.86480
C         -5.42420       -4.01840        2.05300
C         -6.23150       -3.91670        3.16880
C         -6.00260       -2.91520        4.10240
S         -7.02550       -2.70030        5.52800
C         -8.64000       -3.29840        4.94280
C         -4.93340       -2.04320        3.93410
C         -4.12460       -2.14890        2.82320
C         -4.90220       -1.24860       -0.13600
S         -6.42230       -1.40130        0.64850
C         -7.03030        0.04170       -0.15340
C         -6.09190        0.56300       -1.06600
N         -6.24910        1.67170       -1.85360
C         -5.10720        2.41490       -2.21220
C         -4.88050        2.75220       -3.54190
C         -3.73030        3.42060       -3.90920
C         -2.78600        3.76170       -2.94890
S         -1.26070        4.55790       -3.31920
C         -1.25520        4.66130       -5.12960
C         -3.03260        3.46420       -1.60910
C         -4.18170        2.80060       -1.24210
C         -7.46350        1.97570       -2.48870
C         -7.85750        3.30710       -2.62110
C         -9.03800        3.61580       -3.25780
C         -9.84340        2.60570       -3.78370
S        -11.33560        3.10560       -4.56950
C        -12.29640        1.56790       -4.65150
C         -9.43500        1.28070       -3.68240
C         -8.25800        0.97020       -3.03270
C         -4.88060       -0.16050       -0.99520
S         -3.35100       -0.02400       -1.79090
C         -8.31210        0.52050        0.17130
C         -8.92100        0.37280        1.39670
C         -8.21070        0.14360        2.67710
O         -7.02130       -0.03390        2.85960
C         -9.22850        0.30230        3.72580
C         -9.06840        0.18170        5.09460
C        -10.17560        0.35510        5.91200
O        -10.16960        0.23370        7.25790
C         -8.94410       -0.04170        7.89880
C        -11.43590        0.67830        5.33450
O        -12.44400        0.83610        6.22090
C        -13.72500        1.17250        5.73850
C        -11.57220        0.81200        3.95880
C        -10.46210        0.61900        3.14690
C        -10.30340        0.65330        1.69910
C        -11.32400        0.81850        0.79090
C        -11.20960        0.65130       -0.59810
N        -11.23560        0.47090       -1.73400
C        -12.65420        1.10700        1.15020
N        -13.75200        1.35420        1.38340
H         11.63200        3.37180       -1.53300
H         11.74660        7.69300       -4.71700
H         11.76950        9.93330       -5.44830
H         11.93200        8.78510       -6.80740
H         11.27960       10.41840       -7.09070
H          5.75540        8.41860       -4.87460
H          5.88920        7.26650       -6.23160
H          5.65360        9.00130       -6.55530
H          6.93250        6.51430       -4.28550
H         11.05650        2.42360        0.75320
H         10.62690        0.81520        1.32800
H         12.99880        0.84530        0.68760
H         12.60270        1.43030       -0.92840
H         12.12080       -0.18850       -0.44440
H          7.35650        1.12610        1.40990
H          8.75490        0.33190        2.11300
H          7.24890       -1.60560        2.78840
H          6.86920       -0.06450        3.55190
H          5.87180       -0.64870        2.22860
H          8.98160       -2.27480       -0.59870
H          8.00470       -2.63450        0.81850
H          9.79560       -1.68550        2.29140
H         10.35940       -3.02190        1.29720
H         10.78220       -1.37330        0.85820
H          5.29070       -2.05250        0.57810
H          2.07830        0.22890       -5.98430
H          1.93470        2.60810       -6.59430
H          3.24610        5.83020       -3.13760
H          2.21930        7.00850       -3.98590
H          1.45120        5.71320       -3.03920
H          2.53110        3.69080       -2.50120
H          2.69220        1.34130       -1.90250
H          2.30890       -3.33330       -3.53090
H          3.39500       -4.98230       -4.98840
H          5.59800       -3.23450       -8.85880
H          7.03740       -3.38820       -7.79860
H          6.63210       -4.67750       -8.95210
H          5.51260       -1.83370       -6.95980
H          4.46020       -0.20570       -5.50320
H         -1.92100       -0.02110        1.05350
H         -1.77200        1.86500        2.60820
H          0.96030        2.81490        6.83820
H          0.58580        1.07850        6.81760
H          1.83280        1.74910        5.71480
H          0.97330       -0.35080        5.02540
H          0.83250       -2.21520        3.47970
H          0.52880       -4.32650       -0.11770
H          0.95760       -6.59150        0.68880
H         -0.45700       -9.24350        4.81140
H         -0.15610       -7.58880        5.38240
H         -1.59670       -7.94930        4.37750
H         -0.95960       -5.64470        4.38890
H         -1.39740       -3.39650        3.58850
H         -3.26020       -5.36020        2.08160
H         -2.36050       -7.48430        1.25950
H         -1.35400       -7.83110       -3.54130
H         -0.03720       -8.92050       -3.05840
H          0.10890       -7.17810       -2.73550
H         -1.81060       -5.75070       -2.60600
H         -2.76210       -3.67980       -1.82440
H         -5.62370       -4.77800        1.31160
H         -7.04700       -4.61200        3.29120
H         -8.82010       -2.90460        3.94700
H         -9.38130       -2.90980        5.63430
H         -8.66930       -4.38420        4.94890
H         -4.75720       -1.27010        4.66470
H         -3.31240       -1.45300        2.67780
H         -5.60270        2.47130       -4.29400
H         -3.57780        3.65380       -4.94990
H         -0.30010        5.10280       -5.39910
H         -1.32540        3.66260       -5.55070
H         -2.06630        5.29860       -5.46890
H         -2.30720        3.75340       -0.86440
H         -4.36760        2.56580       -0.20430
H         -7.23580        4.08880       -2.21050
H         -9.35710        4.64250       -3.34970
H        -11.91870        0.93150       -5.44680
H        -12.24860        1.07310       -3.68600
H        -13.31620        1.86710       -4.87290
H        -10.02090        0.48500       -4.10860
H         -7.94390       -0.06020       -2.95120
H         -8.84080        1.07560       -0.59610
H         -8.09550       -0.06230        5.48850
H         -8.51910       -0.99570        7.57140
H         -9.17650       -0.09330        8.96080
H         -8.21510        0.75500        7.72380
H        -13.71810        2.13220        5.21310
H        -14.35690        1.24830        6.62150
H        -14.12120        0.39950        5.07300
H        -12.52590        1.06650        3.53090
