180

C         -1.49830        6.79690       -2.90270
C         -2.73610        7.30670       -2.62880
C         -3.03910        8.73340       -2.90290
O         -2.35200        9.51280       -3.53270
C         -4.30710        8.99530       -2.19920
C         -4.97950       10.19230       -2.01370
C         -6.15360       10.19360       -1.27370
O         -6.91140       11.28620       -1.02080
C         -6.50340       12.52540       -1.55060
C         -6.64580        8.97980       -0.71600
O         -7.78830        9.09470       -0.00620
C         -8.40030        7.91810        0.47870
C         -5.96530        7.78640       -0.91560
C         -4.79840        7.79680       -1.66360
C         -3.90940        6.70820       -2.04270
C         -4.26810        5.38200       -2.08900
C         -3.47520        4.36320       -2.64510
N         -2.88800        3.49420       -3.11700
C         -5.53960        4.91150       -1.71070
N         -6.56630        4.47470       -1.43590
C         -0.91310        5.66280       -2.30690
C          0.02410        4.75270       -2.81370
N          0.58430        4.76860       -4.06250
C          0.87910        3.54480       -4.69900
C          2.09370        3.38170       -5.36220
C          2.38760        2.18390       -5.97320
C          1.47730        1.12840       -5.93200
S          1.96830       -0.36150       -6.73990
C          0.70890       -1.56630       -6.22750
C          0.25800        1.29870       -5.28990
C         -0.04030        2.50090       -4.67830
C          0.83190        5.96060       -4.75170
C          0.60740        6.03730       -6.12710
C          0.77730        7.23220       -6.78970
C          1.16770        8.37480       -6.09490
S          1.26910        9.89360       -6.98810
C          0.82460       11.10650       -5.70620
C          1.46040        8.28670       -4.74020
C          1.29700        7.08750       -4.07580
C          0.25810        3.70890       -1.88230
S          1.26250        2.30460       -1.89220
C          0.73280        1.89120       -0.27710
C         -0.12780        2.82780        0.26650
N         -0.58760        2.83700        1.56900
C          0.15890        2.24230        2.59300
C         -0.47290        1.51410        3.59580
C          0.26130        0.82360        4.54110
C          1.64800        0.85600        4.50440
S          2.69870       -0.04810        5.59470
C          1.54570       -0.97010        6.64910
C          2.28460        1.64570        3.54790
C          1.55220        2.33430        2.60890
C         -1.81980        3.44790        1.83540
C         -1.96600        4.29930        2.92720
C         -3.14170        4.99850        3.11630
C         -4.19160        4.84760        2.22020
S         -5.69360        5.77490        2.32900
C         -5.16410        7.28620        3.19680
C         -4.08170        3.93210        1.17800
C         -2.90340        3.24660        0.97950
C         -0.40580        3.84900       -0.67500
S         -1.39450        5.26050       -0.65330
C          1.17410        0.65420        0.33090
C          2.49390        0.25330        0.31490
F          3.42890        1.04880       -0.23500
C          2.91200       -0.96150        0.87450
F          4.22180       -1.26190        0.79660
C          2.03750       -1.82190        1.50060
C          0.67540       -1.42390        1.55830
N         -0.22120       -2.23480        2.14400
C         -1.49380       -1.93730        2.10550
C         -2.42290       -2.89260        2.79780
C         -1.85160       -4.30640        2.85450
C         -1.94130       -0.77520        1.40730
N         -1.07700        0.04850        0.86840
C          0.23790       -0.22360        0.94490
C         -3.38880       -0.44170        1.20600
C         -4.03890        0.14480        2.46080
C          2.44460       -3.15270        1.96470
C          3.17250       -3.95130        1.09300
C          3.45880       -5.25080        1.47590
N          4.10310       -6.23400        0.77400
C          4.69160       -6.08140       -0.53080
C          6.09850       -5.49470       -0.44220
C          4.11010       -7.37490        1.53430
C          3.45120       -7.12510        2.76760
C          3.03570       -5.75750        2.73140
C          2.33890       -4.92870        3.60690
C          2.04570       -3.64120        3.21700
C          3.33500       -8.15120        3.70340
C          3.83410       -9.39300        3.39280
C          4.43940       -9.65670        2.14440
C          4.61840       -8.62240        1.22640
C          4.87270      -11.00010        1.86600
C          4.88490      -11.64050        0.66730
C          4.19200      -11.21180       -0.58180
O          3.68740      -10.13990       -0.84500
C          4.18500      -12.40070       -1.44740
C          3.59280      -12.54410       -2.69180
C          3.70880      -13.75790       -3.35110
O          3.18190      -14.04150       -4.56120
C          2.42540      -13.05020       -5.21480
C          4.43540      -14.82470       -2.74640
O          4.49470      -15.95500       -3.47970
C          5.22040      -17.05450       -2.97710
C          5.01600      -14.66540       -1.49650
C          4.88710      -13.44730       -0.83870
C          5.37210      -12.99880        0.45550
C          6.19610      -13.70750        1.29070
C          6.64910      -15.01460        1.01720
N          7.04050      -16.08030        0.84290
C          6.73050      -13.23630        2.50830
N          7.22460      -12.92890        3.49860
H         -0.89760        7.38710       -3.58520
H         -4.58130       11.09260       -2.45240
H         -7.26270       13.24040       -1.23890
H         -6.45690       12.49890       -2.64390
H         -5.53080       12.83230       -1.15260
H         -7.77160        7.40310        1.21080
H         -9.32050        8.24600        0.95760
H         -8.63730        7.22700       -0.33500
H         -6.32410        6.87140       -0.47710
H          2.80380        4.19490       -5.38620
H          3.32960        2.04630       -6.48110
H          1.05430       -2.52670       -6.59780
H         -0.24960       -1.32370       -6.67700
H          0.64490       -1.58820       -5.14400
H         -0.47510        0.50890       -5.26490
H         -0.99440        2.63630       -4.19140
H          0.26940        5.16230       -6.66090
H          0.58020        7.30260       -7.84790
H         -0.01160       10.72320       -5.12850
H          0.53160       12.00620       -6.23790
H          1.67970       11.32010       -5.07080
H          1.80950        9.14840       -4.19440
H          1.52290        7.02030       -3.02130
H         -1.55080        1.46810        3.62130
H         -0.26390        0.25300        5.29040
H          0.92780       -1.62440        6.04120
H          0.93940       -0.28170        7.23050
H          2.16910       -1.56250        7.31190
H          3.36220        1.70390        3.54890
H          2.05750        2.94200        1.87370
H         -1.14300        4.43060        3.61430
H         -3.22410        5.66930        3.95680
H         -5.04650        7.09070        4.25830
H         -5.95460        8.01510        3.04460
H         -4.23770        7.64370        2.75730
H         -4.92370        3.77560        0.52270
H         -2.80300        2.55950        0.15320
H         -2.58600       -2.52940        3.81790
H         -3.39060       -2.89990        2.29510
H         -2.53130       -4.96540        3.38950
H         -1.70900       -4.69430        1.84890
H         -0.88680       -4.30630        3.35120
H         -3.45320        0.29070        0.39970
H         -3.93140       -1.33960        0.89910
H         -3.57060        1.09130        2.71790
H         -5.09260        0.33090        2.27430
H         -3.95240       -0.53530        3.30540
H          3.47230       -3.57360        0.12810
H          4.04980       -5.42660       -1.12670
H          4.71400       -7.06160       -1.01140
H          6.06980       -4.51710        0.03230
H          6.52310       -5.38670       -1.43700
H          6.74240       -6.14460        0.14460
H          2.02520       -5.29800        4.57170
H          1.50340       -2.98210        3.87480
H          2.85770       -7.97090        4.65460
H          3.73860      -10.20350        4.10020
H          5.15920       -8.79720        0.31250
H          5.16280      -11.57290        2.73970
H          3.06100      -11.70820       -3.11630
H          1.55920      -12.74760       -4.61830
H          2.08360      -13.50680       -6.14200
H          3.03220      -12.16980       -5.44710
H          6.27190      -16.80120       -2.81510
H          4.79020      -17.42780       -2.04330
H          5.14660      -17.82470       -3.74220
H          5.55190      -15.47930       -1.04140
