
  xtb     02052213503D
 energy: -351.114896240614 gnorm: 0.000378625536 xtb: 6.4.1 (unknown)
205221  0     0  0            999 V2000
    2.2498    0.4695    9.4600 C   0  0  0  0  0  0  0  0  0  0  0  0
    3.4536   -0.1760    9.5709 C   0  0  0  0  0  0  0  0  0  0  0  0
    4.1567   -0.8529    8.4737 C   0  0  0  0  0  0  0  0  0  0  0  0
    3.7257   -1.1116    7.3607 O   0  0  0  0  0  0  0  0  0  0  0  0
    5.5010   -1.1490    8.9707 C   0  0  0  0  0  0  0  0  0  0  0  0
    6.5680   -1.6986    8.2805 C   0  0  0  0  0  0  0  0  0  0  0  0
    7.7736   -1.8655    8.9457 C   0  0  0  0  0  0  0  0  0  0  0  0
    8.8978   -2.3640    8.3943 O   0  0  0  0  0  0  0  0  0  0  0  0
    8.8641   -2.7549    7.0387 C   0  0  0  0  0  0  0  0  0  0  0  0
    7.8802   -1.4916   10.3176 C   0  0  0  0  0  0  0  0  0  0  0  0
    9.0917   -1.7077   10.8692 O   0  0  0  0  0  0  0  0  0  0  0  0
    9.2920   -1.3800   12.2261 C   0  0  0  0  0  0  0  0  0  0  0  0
    6.7956   -0.9454   10.9925 C   0  0  0  0  0  0  0  0  0  0  0  0
    5.5967   -0.7641   10.3144 C   0  0  0  0  0  0  0  0  0  0  0  0
    4.3217   -0.1964   10.7352 C   0  0  0  0  0  0  0  0  0  0  0  0
    4.0124    0.2162   12.0070 C   0  0  0  0  0  0  0  0  0  0  0  0
    2.7691    0.7378   12.4173 C   0  0  0  0  0  0  0  0  0  0  0  0
    1.7867    1.1680   12.8299 N   0  0  0  0  0  0  0  0  0  0  0  0
    4.9116    0.1489   13.0900 C   0  0  0  0  0  0  0  0  0  0  0  0
    5.6056    0.1188   14.0049 N   0  0  0  0  0  0  0  0  0  0  0  0
    1.4196    0.6067    8.3340 C   0  0  0  0  0  0  0  0  0  0  0  0
    0.3367    1.4809    8.2868 C   0  0  0  0  0  0  0  0  0  0  0  0
   -0.2886    1.5372    7.0500 C   0  0  0  0  0  0  0  0  0  0  0  0
   -1.5005    2.7058    6.7046 Cl  0  0  0  0  0  0  0  0  0  0  0  0
    0.2540    0.6610    6.1153 C   0  0  0  0  0  0  0  0  0  0  0  0
    1.6050   -0.1949    6.7967 S   0  0  0  0  0  0  0  0  0  0  0  0
    0.0278    0.4757    4.7297 C   0  0  0  0  0  0  0  0  0  0  0  0
   -1.0391    0.7761    3.8858 C   0  0  0  0  0  0  0  0  0  0  0  0
   -2.3277    1.1129    4.2675 N   0  0  0  0  0  0  0  0  0  0  0  0
   -2.9707    0.3841    5.2792 C   0  0  0  0  0  0  0  0  0  0  0  0
   -4.0089    0.9620    6.0067 C   0  0  0  0  0  0  0  0  0  0  0  0
   -4.6561    0.2571    7.0016 C   0  0  0  0  0  0  0  0  0  0  0  0
   -4.2727   -1.0451    7.2955 C   0  0  0  0  0  0  0  0  0  0  0  0
   -5.0294   -2.0491    8.5339 S   0  0  0  0  0  0  0  0  0  0  0  0
   -6.1010   -0.8948    9.4366 C   0  0  0  0  0  0  0  0  0  0  0  0
   -3.2401   -1.6304    6.5666 C   0  0  0  0  0  0  0  0  0  0  0  0
   -2.6001   -0.9294    5.5688 C   0  0  0  0  0  0  0  0  0  0  0  0
   -3.0597    1.9405    3.4048 C   0  0  0  0  0  0  0  0  0  0  0  0
   -4.3813    1.6610    3.0688 C   0  0  0  0  0  0  0  0  0  0  0  0
   -5.0672    2.4595    2.1749 C   0  0  0  0  0  0  0  0  0  0  0  0
   -4.4392    3.5511    1.5907 C   0  0  0  0  0  0  0  0  0  0  0  0
   -5.2135    4.6262    0.4256 S   0  0  0  0  0  0  0  0  0  0  0  0
   -6.7729    3.7929    0.0197 C   0  0  0  0  0  0  0  0  0  0  0  0
   -3.1237    3.8485    1.9392 C   0  0  0  0  0  0  0  0  0  0  0  0
   -2.4436    3.0583    2.8378 C   0  0  0  0  0  0  0  0  0  0  0  0
   -0.6840    0.5468    2.5366 C   0  0  0  0  0  0  0  0  0  0  0  0
   -1.5169    0.7636    1.0466 S   0  0  0  0  0  0  0  0  0  0  0  0
   -0.1910    0.0055    0.1597 C   0  0  0  0  0  0  0  0  0  0  0  0
    0.8391   -0.3995    1.0101 C   0  0  0  0  0  0  0  0  0  0  0  0
    1.9729   -1.1060    0.6428 N   0  0  0  0  0  0  0  0  0  0  0  0
    1.9027   -2.1886   -0.2449 C   0  0  0  0  0  0  0  0  0  0  0  0
    3.0484   -2.5728   -0.9414 C   0  0  0  0  0  0  0  0  0  0  0  0
    3.0306   -3.6786   -1.7640 C   0  0  0  0  0  0  0  0  0  0  0  0
    1.8594   -4.4084   -1.9169 C   0  0  0  0  0  0  0  0  0  0  0  0
    1.7853   -5.8606   -2.9299 S   0  0  0  0  0  0  0  0  0  0  0  0
    3.3490   -6.6820   -2.4857 C   0  0  0  0  0  0  0  0  0  0  0  0
    0.7030   -4.0061   -1.2612 C   0  0  0  0  0  0  0  0  0  0  0  0
    0.7254   -2.9129   -0.4213 C   0  0  0  0  0  0  0  0  0  0  0  0
    3.0935   -0.9991    1.4904 C   0  0  0  0  0  0  0  0  0  0  0  0
    3.5545    0.2584    1.8729 C   0  0  0  0  0  0  0  0  0  0  0  0
    4.5800    0.3808    2.7897 C   0  0  0  0  0  0  0  0  0  0  0  0
    5.1593   -0.7545    3.3383 C   0  0  0  0  0  0  0  0  0  0  0  0
    6.4288   -0.6658    4.5682 S   0  0  0  0  0  0  0  0  0  0  0  0
    5.8661    0.7441    5.5681 C   0  0  0  0  0  0  0  0  0  0  0  0
    4.7441   -2.0121    2.9149 C   0  0  0  0  0  0  0  0  0  0  0  0
    3.7200   -2.1352    2.0019 C   0  0  0  0  0  0  0  0  0  0  0  0
    0.5565   -0.0407    2.3478 C   0  0  0  0  0  0  0  0  0  0  0  0
    1.3790   -0.2477    3.8534 S   0  0  0  0  0  0  0  0  0  0  0  0
   -0.2440    0.0561   -1.2532 C   0  0  0  0  0  0  0  0  0  0  0  0
   -1.3612    0.4097   -2.0156 C   0  0  0  0  0  0  0  0  0  0  0  0
   -2.6753    0.4285   -1.5755 N   0  0  0  0  0  0  0  0  0  0  0  0
   -3.1974   -0.6036   -0.7914 C   0  0  0  0  0  0  0  0  0  0  0  0
   -2.6693   -1.8934   -0.8474 C   0  0  0  0  0  0  0  0  0  0  0  0
   -3.0915   -2.8541    0.0453 C   0  0  0  0  0  0  0  0  0  0  0  0
   -4.0597   -2.5569    1.0022 C   0  0  0  0  0  0  0  0  0  0  0  0
   -4.4650   -3.8243    2.1638 S   0  0  0  0  0  0  0  0  0  0  0  0
   -5.2688   -2.9120    3.5136 C   0  0  0  0  0  0  0  0  0  0  0  0
   -4.6522   -1.3011    1.0006 C   0  0  0  0  0  0  0  0  0  0  0  0
   -4.2218   -0.3348    0.1163 C   0  0  0  0  0  0  0  0  0  0  0  0
   -3.5061    1.4569   -2.0478 C   0  0  0  0  0  0  0  0  0  0  0  0
   -3.0463    2.7700   -2.0485 C   0  0  0  0  0  0  0  0  0  0  0  0
   -3.8389    3.7937   -2.5272 C   0  0  0  0  0  0  0  0  0  0  0  0
   -5.1127    3.5165   -3.0028 C   0  0  0  0  0  0  0  0  0  0  0  0
   -6.2203    4.7472   -3.6162 S   0  0  0  0  0  0  0  0  0  0  0  0
   -5.4520    6.3090   -3.0993 C   0  0  0  0  0  0  0  0  0  0  0  0
   -5.5758    2.2017   -3.0072 C   0  0  0  0  0  0  0  0  0  0  0  0
   -4.7818    1.1798   -2.5371 C   0  0  0  0  0  0  0  0  0  0  0  0
   -0.9886    0.7441   -3.3312 C   0  0  0  0  0  0  0  0  0  0  0  0
   -1.8380    1.4314   -4.6632 S   0  0  0  0  0  0  0  0  0  0  0  0
   -0.3663    1.4281   -5.6415 C   0  0  0  0  0  0  0  0  0  0  0  0
    0.7349    0.9414   -4.9164 C   0  0  0  0  0  0  0  0  0  0  0  0
    2.0179    0.7837   -5.3897 N   0  0  0  0  0  0  0  0  0  0  0  0
    2.6613   -0.4494   -5.1797 C   0  0  0  0  0  0  0  0  0  0  0  0
    4.0339   -0.4904   -4.9443 C   0  0  0  0  0  0  0  0  0  0  0  0
    4.6796   -1.7036   -4.8478 C   0  0  0  0  0  0  0  0  0  0  0  0
    3.9632   -2.8897   -4.9782 C   0  0  0  0  0  0  0  0  0  0  0  0
    4.8784   -4.4034   -4.9329 S   0  0  0  0  0  0  0  0  0  0  0  0
    3.8569   -5.5106   -5.9506 C   0  0  0  0  0  0  0  0  0  0  0  0
    2.5855   -2.8522   -5.1453 C   0  0  0  0  0  0  0  0  0  0  0  0
    1.9386   -1.6378   -5.2521 C   0  0  0  0  0  0  0  0  0  0  0  0
    2.5848    1.7378   -6.2415 C   0  0  0  0  0  0  0  0  0  0  0  0
    3.3554    1.3617   -7.3415 C   0  0  0  0  0  0  0  0  0  0  0  0
    3.7973    2.3150   -8.2334 C   0  0  0  0  0  0  0  0  0  0  0  0
    3.4700    3.6548   -8.0521 C   0  0  0  0  0  0  0  0  0  0  0  0
    3.9447    4.8169   -9.2946 S   0  0  0  0  0  0  0  0  0  0  0  0
    2.4709    5.8838   -9.3447 C   0  0  0  0  0  0  0  0  0  0  0  0
    2.7710    4.0432   -6.9155 C   0  0  0  0  0  0  0  0  0  0  0  0
    2.3400    3.0932   -6.0143 C   0  0  0  0  0  0  0  0  0  0  0  0
    0.3553    0.5526   -3.6153 C   0  0  0  0  0  0  0  0  0  0  0  0
    1.2189   -0.0346   -2.2317 S   0  0  0  0  0  0  0  0  0  0  0  0
   -0.3896    1.9486   -6.9448 C   0  0  0  0  0  0  0  0  0  0  0  0
   -1.4698    2.1757   -7.7529 C   0  0  0  0  0  0  0  0  0  0  0  0
   -1.3894    3.2123   -8.8064 C   0  0  0  0  0  0  0  0  0  0  0  0
   -0.3881    3.7847   -9.1940 O   0  0  0  0  0  0  0  0  0  0  0  0
   -2.7856    3.4549   -9.2071 C   0  0  0  0  0  0  0  0  0  0  0  0
   -3.2879    4.3925  -10.0942 C   0  0  0  0  0  0  0  0  0  0  0  0
   -4.6592    4.4594  -10.2933 C   0  0  0  0  0  0  0  0  0  0  0  0
   -5.2816    5.3174  -11.1341 O   0  0  0  0  0  0  0  0  0  0  0  0
   -4.4947    6.2155  -11.8800 C   0  0  0  0  0  0  0  0  0  0  0  0
   -5.5245    3.5801   -9.5827 C   0  0  0  0  0  0  0  0  0  0  0  0
   -6.8392    3.7461   -9.8386 O   0  0  0  0  0  0  0  0  0  0  0  0
   -7.7680    2.9208   -9.1716 C   0  0  0  0  0  0  0  0  0  0  0  0
   -5.0056    2.6365   -8.7058 C   0  0  0  0  0  0  0  0  0  0  0  0
   -3.6325    2.5709   -8.5226 C   0  0  0  0  0  0  0  0  0  0  0  0
   -2.8180    1.6678   -7.7214 C   0  0  0  0  0  0  0  0  0  0  0  0
   -3.1984    0.4293   -7.2596 C   0  0  0  0  0  0  0  0  0  0  0  0
   -4.5229   -0.0396   -7.2874 C   0  0  0  0  0  0  0  0  0  0  0  0
   -5.5976   -0.4466   -7.2731 N   0  0  0  0  0  0  0  0  0  0  0  0
   -2.2667   -0.5200   -6.7975 C   0  0  0  0  0  0  0  0  0  0  0  0
   -1.5138   -1.3251   -6.4718 N   0  0  0  0  0  0  0  0  0  0  0  0
    1.8904    1.0083   10.3284 H   0  0  0  0  0  0  0  0  0  0  0  0
    6.4396   -1.9733    7.2460 H   0  0  0  0  0  0  0  0  0  0  0  0
    9.8707   -3.0999    6.8109 H   0  0  0  0  0  0  0  0  0  0  0  0
    8.1542   -3.5713    6.8774 H   0  0  0  0  0  0  0  0  0  0  0  0
    8.6064   -1.9192    6.3810 H   0  0  0  0  0  0  0  0  0  0  0  0
   10.3248   -1.6489   12.4397 H   0  0  0  0  0  0  0  0  0  0  0  0
    9.1502   -0.3104   12.4071 H   0  0  0  0  0  0  0  0  0  0  0  0
    8.6249   -1.9492   12.8801 H   0  0  0  0  0  0  0  0  0  0  0  0
    6.8897   -0.6606   12.0256 H   0  0  0  0  0  0  0  0  0  0  0  0
    0.0476    2.0924    9.1230 H   0  0  0  0  0  0  0  0  0  0  0  0
   -4.3061    1.9782    5.7945 H   0  0  0  0  0  0  0  0  0  0  0  0
   -5.4538    0.7391    7.5433 H   0  0  0  0  0  0  0  0  0  0  0  0
   -5.5133   -0.0574    9.8006 H   0  0  0  0  0  0  0  0  0  0  0  0
   -6.4973   -1.4601   10.2744 H   0  0  0  0  0  0  0  0  0  0  0  0
   -6.9163   -0.5612    8.8010 H   0  0  0  0  0  0  0  0  0  0  0  0
   -2.9503   -2.6461    6.7871 H   0  0  0  0  0  0  0  0  0  0  0  0
   -1.8132   -1.4074    5.0055 H   0  0  0  0  0  0  0  0  0  0  0  0
   -4.8735    0.8035    3.5023 H   0  0  0  0  0  0  0  0  0  0  0  0
   -6.0900    2.2133    1.9369 H   0  0  0  0  0  0  0  0  0  0  0  0
   -7.2233    4.3781   -0.7762 H   0  0  0  0  0  0  0  0  0  0  0  0
   -7.4293    3.7839    0.8850 H   0  0  0  0  0  0  0  0  0  0  0  0
   -6.5676    2.7887   -0.3401 H   0  0  0  0  0  0  0  0  0  0  0  0
   -2.6451    4.7087    1.4972 H   0  0  0  0  0  0  0  0  0  0  0  0
   -1.4261    3.2972    3.1090 H   0  0  0  0  0  0  0  0  0  0  0  0
    3.9575   -2.0024   -0.8258 H   0  0  0  0  0  0  0  0  0  0  0  0
    3.9300   -3.9656   -2.2844 H   0  0  0  0  0  0  0  0  0  0  0  0
    3.4484   -6.6847   -1.4050 H   0  0  0  0  0  0  0  0  0  0  0  0
    4.1922   -6.1814   -2.9519 H   0  0  0  0  0  0  0  0  0  0  0  0
    3.2703   -7.6989   -2.8569 H   0  0  0  0  0  0  0  0  0  0  0  0
   -0.2050   -4.5748   -1.3919 H   0  0  0  0  0  0  0  0  0  0  0  0
   -0.1636   -2.6382    0.1257 H   0  0  0  0  0  0  0  0  0  0  0  0
    3.0932    1.1420    1.4568 H   0  0  0  0  0  0  0  0  0  0  0  0
    4.9166    1.3646    3.0766 H   0  0  0  0  0  0  0  0  0  0  0  0
    6.0419    1.6789    5.0444 H   0  0  0  0  0  0  0  0  0  0  0  0
    6.4505    0.7220    6.4830 H   0  0  0  0  0  0  0  0  0  0  0  0
    4.8132    0.6054    5.7939 H   0  0  0  0  0  0  0  0  0  0  0  0
    5.2104   -2.8906    3.3326 H   0  0  0  0  0  0  0  0  0  0  0  0
    3.3752   -3.1148    1.7072 H   0  0  0  0  0  0  0  0  0  0  0  0
   -1.9155   -2.1318   -1.5828 H   0  0  0  0  0  0  0  0  0  0  0  0
   -2.6686   -3.8468    0.0190 H   0  0  0  0  0  0  0  0  0  0  0  0
   -6.2606   -2.5857    3.2136 H   0  0  0  0  0  0  0  0  0  0  0  0
   -4.6462   -2.0721    3.8094 H   0  0  0  0  0  0  0  0  0  0  0  0
   -5.3502   -3.6147    4.3371 H   0  0  0  0  0  0  0  0  0  0  0  0
   -5.4376   -1.0579    1.6976 H   0  0  0  0  0  0  0  0  0  0  0  0
   -4.6490    0.6555    0.1539 H   0  0  0  0  0  0  0  0  0  0  0  0
   -2.0613    2.9865   -1.6618 H   0  0  0  0  0  0  0  0  0  0  0  0
   -3.4557    4.8004   -2.5133 H   0  0  0  0  0  0  0  0  0  0  0  0
   -6.1857    7.0808   -3.3103 H   0  0  0  0  0  0  0  0  0  0  0  0
   -5.2412    6.2748   -2.0342 H   0  0  0  0  0  0  0  0  0  0  0  0
   -4.5507    6.4922   -3.6771 H   0  0  0  0  0  0  0  0  0  0  0  0
   -6.5629    1.9929   -3.3908 H   0  0  0  0  0  0  0  0  0  0  0  0
   -5.1396    0.1612   -2.5503 H   0  0  0  0  0  0  0  0  0  0  0  0
    4.5902    0.4316   -4.8657 H   0  0  0  0  0  0  0  0  0  0  0  0
    5.7461   -1.7445   -4.6878 H   0  0  0  0  0  0  0  0  0  0  0  0
    2.9766   -5.8312   -5.4012 H   0  0  0  0  0  0  0  0  0  0  0  0
    3.5813   -4.9946   -6.8649 H   0  0  0  0  0  0  0  0  0  0  0  0
    4.4836   -6.3674   -6.1783 H   0  0  0  0  0  0  0  0  0  0  0  0
    2.0091   -3.7606   -5.2114 H   0  0  0  0  0  0  0  0  0  0  0  0
    0.8737   -1.6135   -5.4304 H   0  0  0  0  0  0  0  0  0  0  0  0
    3.5663    0.3176   -7.5154 H   0  0  0  0  0  0  0  0  0  0  0  0
    4.3658    2.0254   -9.1032 H   0  0  0  0  0  0  0  0  0  0  0  0
    2.4966    6.6070   -8.5345 H   0  0  0  0  0  0  0  0  0  0  0  0
    2.5102    6.4019  -10.2976 H   0  0  0  0  0  0  0  0  0  0  0  0
    1.5826    5.2605   -9.2914 H   0  0  0  0  0  0  0  0  0  0  0  0
    2.5525    5.0837   -6.7359 H   0  0  0  0  0  0  0  0  0  0  0  0
    1.7798    3.3912   -5.1398 H   0  0  0  0  0  0  0  0  0  0  0  0
    0.5481    2.3152   -7.3449 H   0  0  0  0  0  0  0  0  0  0  0  0
   -2.6028    5.0428  -10.6134 H   0  0  0  0  0  0  0  0  0  0  0  0
   -5.1970    6.7873  -12.4838 H   0  0  0  0  0  0  0  0  0  0  0  0
   -3.9367    6.8966  -11.2297 H   0  0  0  0  0  0  0  0  0  0  0  0
   -3.7970    5.6875  -12.5375 H   0  0  0  0  0  0  0  0  0  0  0  0
   -7.7271    3.0668   -8.0879 H   0  0  0  0  0  0  0  0  0  0  0  0
   -7.6057    1.8637   -9.4017 H   0  0  0  0  0  0  0  0  0  0  0  0
   -8.7451    3.2263   -9.5413 H   0  0  0  0  0  0  0  0  0  0  0  0
   -5.6577    1.9726   -8.1648 H   0  0  0  0  0  0  0  0  0  0  0  0
  1  2  2  0  0  0  0
  2  3  1  0  0  0  0
  3  4  2  0  0  0  0
  3  5  1  0  0  0  0
  5  6  2  0  0  0  0
  6  7  1  0  0  0  0
  7  8  1  0  0  0  0
  8  9  1  0  0  0  0
  7 10  2  0  0  0  0
 10 11  1  0  0  0  0
 11 12  1  0  0  0  0
 10 13  1  0  0  0  0
 13 14  2  0  0  0  0
 14 15  1  0  0  0  0
 15 16  2  0  0  0  0
 16 17  1  0  0  0  0
 17 18  3  0  0  0  0
 16 19  1  0  0  0  0
 19 20  3  0  0  0  0
  1 21  1  0  0  0  0
 21 22  2  0  0  0  0
 22 23  1  0  0  0  0
 23 24  1  0  0  0  0
 23 25  2  0  0  0  0
 25 26  1  0  0  0  0
 25 27  1  0  0  0  0
 27 28  2  0  0  0  0
 28 29  1  0  0  0  0
 29 30  1  0  0  0  0
 30 31  2  0  0  0  0
 31 32  1  0  0  0  0
 32 33  2  0  0  0  0
 33 34  1  0  0  0  0
 34 35  1  0  0  0  0
 33 36  1  0  0  0  0
 36 37  2  0  0  0  0
 29 38  1  0  0  0  0
 38 39  2  0  0  0  0
 39 40  1  0  0  0  0
 40 41  2  0  0  0  0
 41 42  1  0  0  0  0
 42 43  1  0  0  0  0
 41 44  1  0  0  0  0
 44 45  2  0  0  0  0
 28 46  1  0  0  0  0
 46 47  1  0  0  0  0
 47 48  1  0  0  0  0
 48 49  2  0  0  0  0
 49 50  1  0  0  0  0
 50 51  1  0  0  0  0
 51 52  2  0  0  0  0
 52 53  1  0  0  0  0
 53 54  2  0  0  0  0
 54 55  1  0  0  0  0
 55 56  1  0  0  0  0
 54 57  1  0  0  0  0
 57 58  2  0  0  0  0
 50 59  1  0  0  0  0
 59 60  2  0  0  0  0
 60 61  1  0  0  0  0
 61 62  2  0  0  0  0
 62 63  1  0  0  0  0
 63 64  1  0  0  0  0
 62 65  1  0  0  0  0
 65 66  2  0  0  0  0
 49 67  1  0  0  0  0
 67 68  1  0  0  0  0
 48 69  1  0  0  0  0
 69 70  2  0  0  0  0
 70 71  1  0  0  0  0
 71 72  1  0  0  0  0
 72 73  2  0  0  0  0
 73 74  1  0  0  0  0
 74 75  2  0  0  0  0
 75 76  1  0  0  0  0
 76 77  1  0  0  0  0
 75 78  1  0  0  0  0
 78 79  2  0  0  0  0
 71 80  1  0  0  0  0
 80 81  2  0  0  0  0
 81 82  1  0  0  0  0
 82 83  2  0  0  0  0
 83 84  1  0  0  0  0
 84 85  1  0  0  0  0
 83 86  1  0  0  0  0
 86 87  2  0  0  0  0
 70 88  1  0  0  0  0
 88 89  1  0  0  0  0
 89 90  1  0  0  0  0
 90 91  2  0  0  0  0
 91 92  1  0  0  0  0
 92 93  1  0  0  0  0
 93 94  2  0  0  0  0
 94 95  1  0  0  0  0
 95 96  2  0  0  0  0
 96 97  1  0  0  0  0
 97 98  1  0  0  0  0
 96 99  1  0  0  0  0
 99100  2  0  0  0  0
 92101  1  0  0  0  0
101102  2  0  0  0  0
102103  1  0  0  0  0
103104  2  0  0  0  0
104105  1  0  0  0  0
105106  1  0  0  0  0
104107  1  0  0  0  0
107108  2  0  0  0  0
 91109  1  0  0  0  0
109110  1  0  0  0  0
 90111  1  0  0  0  0
111112  2  0  0  0  0
112113  1  0  0  0  0
113114  2  0  0  0  0
113115  1  0  0  0  0
115116  2  0  0  0  0
116117  1  0  0  0  0
117118  1  0  0  0  0
118119  1  0  0  0  0
117120  2  0  0  0  0
120121  1  0  0  0  0
121122  1  0  0  0  0
120123  1  0  0  0  0
123124  2  0  0  0  0
124125  1  0  0  0  0
125126  2  0  0  0  0
126127  1  0  0  0  0
127128  3  0  0  0  0
126129  1  0  0  0  0
129130  3  0  0  0  0
 15  2  1  0  0  0  0
 26 21  1  0  0  0  0
 68 27  1  0  0  0  0
110 69  1  0  0  0  0
125112  1  0  0  0  0
 14  5  1  0  0  0  0
 37 30  1  0  0  0  0
 45 38  1  0  0  0  0
 67 46  2  0  0  0  0
 79 72  1  0  0  0  0
 87 80  1  0  0  0  0
109 88  2  0  0  0  0
124115  1  0  0  0  0
 58 51  1  0  0  0  0
 66 59  1  0  0  0  0
100 93  1  0  0  0  0
108101  1  0  0  0  0
  1131  1  0  0  0  0
  6132  1  0  0  0  0
  9133  1  0  0  0  0
  9134  1  0  0  0  0
  9135  1  0  0  0  0
 12136  1  0  0  0  0
 12137  1  0  0  0  0
 12138  1  0  0  0  0
 13139  1  0  0  0  0
 22140  1  0  0  0  0
 31141  1  0  0  0  0
 32142  1  0  0  0  0
 35143  1  0  0  0  0
 35144  1  0  0  0  0
 35145  1  0  0  0  0
 36146  1  0  0  0  0
 37147  1  0  0  0  0
 39148  1  0  0  0  0
 40149  1  0  0  0  0
 43150  1  0  0  0  0
 43151  1  0  0  0  0
 43152  1  0  0  0  0
 44153  1  0  0  0  0
 45154  1  0  0  0  0
 52155  1  0  0  0  0
 53156  1  0  0  0  0
 56157  1  0  0  0  0
 56158  1  0  0  0  0
 56159  1  0  0  0  0
 57160  1  0  0  0  0
 58161  1  0  0  0  0
 60162  1  0  0  0  0
 61163  1  0  0  0  0
 64164  1  0  0  0  0
 64165  1  0  0  0  0
 64166  1  0  0  0  0
 65167  1  0  0  0  0
 66168  1  0  0  0  0
 73169  1  0  0  0  0
 74170  1  0  0  0  0
 77171  1  0  0  0  0
 77172  1  0  0  0  0
 77173  1  0  0  0  0
 78174  1  0  0  0  0
 79175  1  0  0  0  0
 81176  1  0  0  0  0
 82177  1  0  0  0  0
 85178  1  0  0  0  0
 85179  1  0  0  0  0
 85180  1  0  0  0  0
 86181  1  0  0  0  0
 87182  1  0  0  0  0
 94183  1  0  0  0  0
 95184  1  0  0  0  0
 98185  1  0  0  0  0
 98186  1  0  0  0  0
 98187  1  0  0  0  0
 99188  1  0  0  0  0
100189  1  0  0  0  0
102190  1  0  0  0  0
103191  1  0  0  0  0
106192  1  0  0  0  0
106193  1  0  0  0  0
106194  1  0  0  0  0
107195  1  0  0  0  0
108196  1  0  0  0  0
111197  1  0  0  0  0
116198  1  0  0  0  0
119199  1  0  0  0  0
119200  1  0  0  0  0
119201  1  0  0  0  0
122202  1  0  0  0  0
122203  1  0  0  0  0
122204  1  0  0  0  0
123205  1  0  0  0  0
M  END
