212

C         -8.82740       -0.31510       -3.56930
C         -8.72460        0.65880       -4.51890
C         -9.89110        1.55080       -4.76680
O        -11.04790        1.33660       -4.48060
C         -9.31180        2.76880       -5.36220
C         -9.93820        3.96200       -5.68020
C         -9.18090        4.99410       -6.21570
O         -9.65980        6.20480       -6.57390
C        -11.03180        6.46710       -6.39040
C         -7.78360        4.81390       -6.42770
O         -7.14610        5.88530       -6.94570
C         -5.76280        5.79380       -7.19960
C         -7.17200        3.60880       -6.11320
C         -7.93930        2.58230       -5.57950
C         -7.59330        1.21390       -5.22560
C         -6.51770        0.51260       -5.71810
C         -5.42280        1.11230       -6.35960
N         -4.48960        1.57520       -6.84650
C         -6.47380       -0.89360       -5.72110
N         -6.45720       -2.03660       -5.83350
C         -7.82650       -0.93880       -2.79740
C         -8.05180       -1.81140       -1.74450
C         -6.90750       -2.14230       -1.02320
S         -6.96430       -3.04440        0.50170
C         -7.33770       -1.65160        1.63770
C         -6.12900       -0.78310        1.92190
C         -5.75290       -1.55800       -1.52800
S         -6.12740       -0.53580       -2.87900
C         -4.41030       -1.65040       -1.08790
C         -3.73420       -2.72720       -0.51270
N         -4.18640       -4.02100       -0.49550
C         -3.81030       -4.88320        0.54270
C         -3.77170       -4.42960        1.85630
C         -3.45500       -5.29110        2.88740
C         -3.15030       -6.61720        2.61820
S         -2.73820       -7.80620        3.85580
C         -2.83760       -6.86850        5.40770
C         -3.16990       -7.07150        1.29980
C         -3.50100       -6.21730        0.27350
C         -5.01970       -4.49620       -1.52600
C         -6.05590       -5.38490       -1.24240
C         -6.90100       -5.80430       -2.24510
C         -6.73490       -5.34810       -3.55180
S         -7.90900       -5.90800       -4.73690
C         -7.35270       -5.16230       -6.29460
C         -5.67700       -4.49620       -3.84620
C         -4.82760       -4.08170       -2.84090
C         -2.42430       -2.33310       -0.12650
S         -1.09150       -3.10940        0.65520
C         -0.08420       -1.68920        0.41000
C         -0.74890       -0.68750       -0.25270
N         -0.15050        0.47530       -0.77680
C         -0.08750        1.64680       -0.02880
C          0.78880        2.66620       -0.39940
C          0.90700        3.81170        0.36180
C          0.14970        3.96020        1.51510
S          0.24410        5.35210        2.59970
C          1.52690        6.40240        1.86280
C         -0.74650        2.95940        1.87450
C         -0.86460        1.81510        1.11650
C         -0.15060        0.49350       -2.18790
C         -0.67420        1.55920       -2.91260
C         -0.72510        1.51620       -4.29310
C         -0.26300        0.39780       -4.97420
S         -0.27060        0.23010       -6.73200
C         -1.22760        1.65430       -7.31820
C          0.26460       -0.67160       -4.25090
C          0.32300       -0.62430       -2.87630
C         -2.08780       -1.05110       -0.52270
S         -3.38080       -0.23840       -1.31770
C          1.31350       -1.66320        0.77980
C          1.90300       -1.01090        1.83940
N          1.23750       -0.27610        2.81700
C          1.80200        0.95740        3.18040
C          2.51150        1.69670        2.23460
C          3.12140        2.88040        2.58140
C          3.02040        3.36200        3.87950
S          3.84520        4.88270        4.25830
C          2.77440        5.59680        5.54200
C          2.31590        2.63630        4.82870
C          1.71800        1.44040        4.48340
C          0.08280       -0.78680        3.40220
C         -0.92670        0.05650        3.87030
C         -2.08840       -0.46840        4.39620
C         -2.25630       -1.84190        4.48220
S         -3.77380       -2.50580        5.14960
C         -3.15470       -3.01320        6.78560
C         -1.24930       -2.68970        4.04910
C         -0.08840       -2.16790        3.51960
C          3.31570       -1.12790        1.78720
S          4.59100       -0.54550        2.77820
C          5.79150       -1.20040        1.67070
C          5.19840       -1.91250        0.61560
N          5.84750       -2.49410       -0.44290
C          7.05590       -3.18240       -0.27960
C          7.26640       -3.97940        0.84370
C          8.45340       -4.66250        1.00960
C          9.45820       -4.55040        0.05520
S         11.01230       -5.36400        0.17610
C         11.10050       -5.83540        1.92650
C          9.24210       -3.76880       -1.07980
C          8.05550       -3.09280       -1.24910
C          5.26940       -2.39260       -1.72200
C          4.69700       -1.19230       -2.13590
C          4.11560       -1.08270       -3.38290
C          4.11140       -2.17220       -4.24480
S          3.39800       -2.14040       -5.85650
C          3.25540       -0.36960       -6.22450
C          4.68730       -3.37390       -3.83310
C          5.25870       -3.48660       -2.58560
C          3.78650       -1.83440        0.69410
S          2.48510       -2.44610       -0.26980
C          7.15630       -0.94610        1.92190
C          7.62480        0.20840        2.49740
C          6.89680        1.50170        2.50360
O          5.82670        1.75400        1.98340
C          7.81330        2.46820        3.12150
C          7.58280        3.80070        3.41520
C          8.60330        4.53900        3.99720
O          8.51420        5.83710        4.35690
C          7.30190        6.51610        4.11960
C          9.86090        3.92350        4.25870
O         10.78490        4.73750        4.81420
C         12.05820        4.21350        5.11630
C         10.07350        2.58600        3.95340
C          9.04120        1.84930        3.38640
C          8.95270        0.44430        3.01210
C          9.93260       -0.50030        3.21290
C          9.77990       -1.88300        3.02060
N          9.73580       -3.03020        2.94840
C         11.21950       -0.20320        3.70110
N         12.28670       -0.01880        4.08540
H         -9.84370       -0.54830       -3.26570
H        -10.99820        4.05790       -5.51120
H        -11.65250        5.78360       -6.97780
H        -11.18360        7.48580       -6.74260
H        -11.31510        6.40100       -5.33550
H         -5.48170        6.75530       -7.62530
H         -5.19650        5.62470       -6.27860
H         -5.53630        4.99810       -7.91580
H         -6.11530        3.47340       -6.26790
H         -9.02940       -2.18070       -1.49040
H         -7.68850       -2.13910        2.54620
H         -8.15280       -1.07850        1.19610
H         -5.75080       -0.33010        1.00740
H         -5.33490       -1.37190        2.37630
H         -6.40380        0.01220        2.61200
H         -4.02210       -3.40410        2.08220
H         -3.48090       -4.91230        3.89480
H         -2.08880       -6.08180        5.41290
H         -3.83750       -6.46460        5.53600
H         -2.62340       -7.58340        6.19600
H         -2.92740       -8.10300        1.09530
H         -3.52470       -6.57470       -0.74480
H         -6.20260       -5.72930       -0.23080
H         -7.71270       -6.47970       -2.02370
H         -8.09450       -5.44720       -7.03440
H         -6.38310       -5.56840       -6.56860
H         -7.31630       -4.08190       -6.19770
H         -5.50830       -4.13740       -4.84710
H         -4.00580       -3.42390       -3.08520
H          1.39020        2.55070       -1.28910
H          1.60190        4.57400        0.04910
H          1.60670        7.26750        2.51390
H          1.22270        6.71720        0.86890
H          2.47260        5.86920        1.84330
H         -1.35960        3.10120        2.75240
H         -1.56610        1.04580        1.40400
H         -1.06110        2.42180       -2.39020
H         -1.14880        2.35280       -4.82500
H         -1.27770        1.54010       -8.39680
H         -2.23040        1.62680       -6.90180
H         -0.71220        2.57840       -7.07200
H          0.62030       -1.54280       -4.78000
H          0.73230       -1.46020       -2.32840
H          2.58220        1.34610        1.21750
H          3.68760        3.42900        1.84670
H          1.73860        5.48290        5.23640
H          3.03480        6.64890        5.60320
H          2.95890        5.11810        6.49940
H          2.24290        2.98390        5.84740
H          1.20000        0.86820        5.23860
H         -0.79790        1.12430        3.80770
H         -2.87630        0.18700        4.73530
H         -2.31390       -3.69000        6.66530
H         -2.85490       -2.13130        7.34410
H         -3.97420       -3.51510        7.28910
H         -1.37120       -3.75970        4.11310
H          0.69360       -2.83530        3.18970
H          6.48760       -4.06630        1.58730
H          8.58320       -5.27870        1.88250
H         12.13590       -6.10600        2.10820
H         10.45800       -6.69020        2.11800
H         10.82140       -4.97940        2.53360
H         10.02400       -3.69150       -1.81940
H          7.89740       -2.47910       -2.12320
H          4.71290       -0.33720       -1.47540
H          3.66910       -0.14510       -3.67150
H          2.92750       -0.31350       -7.25750
H          2.50900        0.09100       -5.58520
H          4.22650        0.10280       -6.11030
H          4.67520       -4.21760       -4.50520
H          5.70110       -4.41940       -2.27030
H          7.86790       -1.70680        1.62220
H          6.61350        4.22460        3.20730
H          7.07170        6.56110        3.05100
H          7.45390        7.52440        4.50040
H          6.46550        6.04680        4.64540
H         12.57410        3.86540        4.21650
H         12.61470        5.03930        5.55580
H         11.99570        3.39270        5.83700
H         11.02730        2.12960        4.15230
