
  xtb     02042208293D
 energy: -279.763018921209 gnorm: 0.000938657135 xtb: 6.4.1 (unknown)
145159  0     0  0            999 V2000
   -4.9156    2.6180    4.4213 C   0  0  0  0  0  0  0  0  0  0  0  0
   -5.1193    2.3646    5.7475 C   0  0  0  0  0  0  0  0  0  0  0  0
   -4.1736    1.6979    6.6714 C   0  0  0  0  0  0  0  0  0  0  0  0
   -3.0402    1.3296    6.4503 O   0  0  0  0  0  0  0  0  0  0  0  0
   -4.8542    1.6869    7.9874 C   0  0  0  0  0  0  0  0  0  0  0  0
   -4.4216    1.1394    9.1772 C   0  0  0  0  0  0  0  0  0  0  0  0
   -5.2342    1.2633   10.2971 C   0  0  0  0  0  0  0  0  0  0  0  0
   -4.7288    0.5859   11.7927 Cl  0  0  0  0  0  0  0  0  0  0  0  0
   -6.4571    1.9353   10.2095 C   0  0  0  0  0  0  0  0  0  0  0  0
   -7.4516    2.0851   11.6021 Cl  0  0  0  0  0  0  0  0  0  0  0  0
   -6.8880    2.4903    9.0096 C   0  0  0  0  0  0  0  0  0  0  0  0
   -6.0813    2.3649    7.8900 C   0  0  0  0  0  0  0  0  0  0  0  0
   -6.2571    2.8309    6.5166 C   0  0  0  0  0  0  0  0  0  0  0  0
   -7.3246    3.5615    6.0600 C   0  0  0  0  0  0  0  0  0  0  0  0
   -8.4049    3.9727    6.8697 C   0  0  0  0  0  0  0  0  0  0  0  0
   -9.3127    4.3428    7.4671 N   0  0  0  0  0  0  0  0  0  0  0  0
   -7.5104    4.0344    4.7442 C   0  0  0  0  0  0  0  0  0  0  0  0
   -7.7575    4.4739    3.7114 N   0  0  0  0  0  0  0  0  0  0  0  0
   -3.9232    2.0950    3.5501 C   0  0  0  0  0  0  0  0  0  0  0  0
   -3.3227    0.8330    3.6279 C   0  0  0  0  0  0  0  0  0  0  0  0
   -3.7990   -0.0691    4.4992 F   0  0  0  0  0  0  0  0  0  0  0  0
   -2.3329    0.3992    2.7700 C   0  0  0  0  0  0  0  0  0  0  0  0
   -1.8644    1.2140    1.7365 C   0  0  0  0  0  0  0  0  0  0  0  0
   -2.5656    2.4366    1.5139 C   0  0  0  0  0  0  0  0  0  0  0  0
   -2.2544    3.1684    0.4303 N   0  0  0  0  0  0  0  0  0  0  0  0
   -2.9092    4.2664    0.1921 C   0  0  0  0  0  0  0  0  0  0  0  0
   -3.9406    4.6975    1.0741 C   0  0  0  0  0  0  0  0  0  0  0  0
   -4.6023    5.8027    0.7751 O   0  0  0  0  0  0  0  0  0  0  0  0
   -5.6349    6.2013    1.6825 C   0  0  0  0  0  0  0  0  0  0  0  0
   -6.3151    7.4313    1.1134 C   0  0  0  0  0  0  0  0  0  0  0  0
   -4.2418    4.0144    2.1575 N   0  0  0  0  0  0  0  0  0  0  0  0
   -3.5794    2.8689    2.3973 C   0  0  0  0  0  0  0  0  0  0  0  0
   -0.8209    0.8484    0.8494 C   0  0  0  0  0  0  0  0  0  0  0  0
    0.1209   -0.1822    0.9788 C   0  0  0  0  0  0  0  0  0  0  0  0
    0.3760   -0.9386    2.1020 N   0  0  0  0  0  0  0  0  0  0  0  0
    0.8636   -2.2393    1.8649 C   0  0  0  0  0  0  0  0  0  0  0  0
    2.0460   -2.6953    2.4381 C   0  0  0  0  0  0  0  0  0  0  0  0
    2.5985   -3.8956    2.0345 C   0  0  0  0  0  0  0  0  0  0  0  0
    1.9755   -4.6570    1.0519 C   0  0  0  0  0  0  0  0  0  0  0  0
    2.6470   -6.1113    0.3271 S   0  0  0  0  0  0  0  0  0  0  0  0
    4.2012   -6.3941    1.2201 C   0  0  0  0  0  0  0  0  0  0  0  0
    0.7411   -4.2449    0.5464 C   0  0  0  0  0  0  0  0  0  0  0  0
    0.1896   -3.0530    0.9507 C   0  0  0  0  0  0  0  0  0  0  0  0
    0.4317   -0.3689    3.3798 C   0  0  0  0  0  0  0  0  0  0  0  0
    0.7671    0.9738    3.5550 C   0  0  0  0  0  0  0  0  0  0  0  0
    0.7832    1.5246    4.8154 C   0  0  0  0  0  0  0  0  0  0  0  0
    0.4605    0.7530    5.9299 C   0  0  0  0  0  0  0  0  0  0  0  0
    0.5146    1.5472    7.4985 S   0  0  0  0  0  0  0  0  0  0  0  0
   -0.5877    0.5116    8.5025 C   0  0  0  0  0  0  0  0  0  0  0  0
    0.1504   -0.5914    5.7617 C   0  0  0  0  0  0  0  0  0  0  0  0
    0.1371   -1.1456    4.4988 C   0  0  0  0  0  0  0  0  0  0  0  0
    0.8412   -0.3588   -0.2212 C   0  0  0  0  0  0  0  0  0  0  0  0
    2.1286   -1.4241   -0.6709 S   0  0  0  0  0  0  0  0  0  0  0  0
    2.0924   -0.7874   -2.3093 C   0  0  0  0  0  0  0  0  0  0  0  0
    1.2622    0.3529   -2.4147 C   0  0  0  0  0  0  0  0  0  0  0  0
    1.2155    1.2396   -3.4541 N   0  0  0  0  0  0  0  0  0  0  0  0
    0.0479    2.0194   -3.5823 C   0  0  0  0  0  0  0  0  0  0  0  0
   -1.1982    1.4013   -3.6048 C   0  0  0  0  0  0  0  0  0  0  0  0
   -2.3538    2.1565   -3.6082 C   0  0  0  0  0  0  0  0  0  0  0  0
   -2.2735    3.5430   -3.5809 C   0  0  0  0  0  0  0  0  0  0  0  0
   -3.6826    4.5965   -3.4792 S   0  0  0  0  0  0  0  0  0  0  0  0
   -4.9722    3.4971   -2.8267 C   0  0  0  0  0  0  0  0  0  0  0  0
   -1.0254    4.1630   -3.6300 C   0  0  0  0  0  0  0  0  0  0  0  0
    0.1265    3.4102   -3.6331 C   0  0  0  0  0  0  0  0  0  0  0  0
    2.2968    1.4956   -4.2954 C   0  0  0  0  0  0  0  0  0  0  0  0
    2.0672    1.9571   -5.5924 C   0  0  0  0  0  0  0  0  0  0  0  0
    3.1146    2.1920   -6.4577 C   0  0  0  0  0  0  0  0  0  0  0  0
    4.4243    1.9809   -6.0405 C   0  0  0  0  0  0  0  0  0  0  0  0
    5.8419    2.2151   -7.0532 S   0  0  0  0  0  0  0  0  0  0  0  0
    5.1601    2.6881   -8.6674 C   0  0  0  0  0  0  0  0  0  0  0  0
    4.6608    1.5620   -4.7298 C   0  0  0  0  0  0  0  0  0  0  0  0
    3.6162    1.3290   -3.8668 C   0  0  0  0  0  0  0  0  0  0  0  0
    0.5144    0.5355   -1.2263 C   0  0  0  0  0  0  0  0  0  0  0  0
   -0.6848    1.6843   -0.6905 S   0  0  0  0  0  0  0  0  0  0  0  0
    2.7482   -1.5671   -3.2822 C   0  0  0  0  0  0  0  0  0  0  0  0
    2.4851   -1.5811   -4.6726 C   0  0  0  0  0  0  0  0  0  0  0  0
    3.1077   -2.5393   -5.5638 C   0  0  0  0  0  0  0  0  0  0  0  0
    2.6771   -2.3972   -6.8137 N   0  0  0  0  0  0  0  0  0  0  0  0
    1.5886   -1.2156   -6.8711 S   0  0  0  0  0  4  0  0  0  0  0  0
    1.6076   -0.8107   -5.3142 N   0  0  0  0  0  0  0  0  0  0  0  0
    3.9783   -3.5726   -5.1282 C   0  0  0  0  0  0  0  0  0  0  0  0
    4.2821   -3.5231   -3.7488 C   0  0  0  0  0  0  0  0  0  0  0  0
    5.1337   -4.3133   -3.0924 N   0  0  0  0  0  0  0  0  0  0  0  0
    5.1292   -3.9242   -1.5306 S   0  0  0  0  0  0  0  0  0  0  0  0
    4.0759   -2.7129   -1.6081 N   0  0  0  0  0  0  0  0  0  0  0  0
    3.6705   -2.5616   -2.8656 C   0  0  0  0  0  0  0  0  0  0  0  0
    4.4559   -4.5181   -6.0570 C   0  0  0  0  0  0  0  0  0  0  0  0
    5.0238   -5.7522   -5.8669 C   0  0  0  0  0  0  0  0  0  0  0  0
    5.8303   -6.3388   -6.9652 C   0  0  0  0  0  0  0  0  0  0  0  0
    5.9053   -5.9548   -8.1102 O   0  0  0  0  0  0  0  0  0  0  0  0
    6.5646   -7.4679   -6.3447 C   0  0  0  0  0  0  0  0  0  0  0  0
    7.5226   -8.2890   -6.9002 C   0  0  0  0  0  0  0  0  0  0  0  0
    8.0913   -9.2735   -6.0999 C   0  0  0  0  0  0  0  0  0  0  0  0
    9.2913  -10.3156   -6.7552 Cl  0  0  0  0  0  0  0  0  0  0  0  0
    7.6922   -9.4165   -4.7689 C   0  0  0  0  0  0  0  0  0  0  0  0
    8.4122  -10.6298   -3.7868 Cl  0  0  0  0  0  0  0  0  0  0  0  0
    6.7169   -8.5935   -4.2150 C   0  0  0  0  0  0  0  0  0  0  0  0
    6.1498   -7.6122   -5.0089 C   0  0  0  0  0  0  0  0  0  0  0  0
    5.0968   -6.6339   -4.7353 C   0  0  0  0  0  0  0  0  0  0  0  0
    4.2216   -6.6969   -3.6753 C   0  0  0  0  0  0  0  0  0  0  0  0
    4.4044   -7.5283   -2.5566 C   0  0  0  0  0  0  0  0  0  0  0  0
    4.5389   -8.1381   -1.5915 N   0  0  0  0  0  0  0  0  0  0  0  0
    3.0196   -5.9673   -3.6065 C   0  0  0  0  0  0  0  0  0  0  0  0
    2.0169   -5.4135   -3.5194 N   0  0  0  0  0  0  0  0  0  0  0  0
   -5.5502    3.3504    3.9390 H   0  0  0  0  0  0  0  0  0  0  0  0
   -3.4785    0.6210    9.2393 H   0  0  0  0  0  0  0  0  0  0  0  0
   -7.8353    3.0029    8.9807 H   0  0  0  0  0  0  0  0  0  0  0  0
   -1.9727   -0.6077    2.8896 H   0  0  0  0  0  0  0  0  0  0  0  0
   -2.6535    4.8351   -0.6890 H   0  0  0  0  0  0  0  0  0  0  0  0
   -6.3439    5.3769    1.8097 H   0  0  0  0  0  0  0  0  0  0  0  0
   -5.1840    6.4108    2.6588 H   0  0  0  0  0  0  0  0  0  0  0  0
   -6.7397    7.2078    0.1386 H   0  0  0  0  0  0  0  0  0  0  0  0
   -5.6006    8.2426    1.0030 H   0  0  0  0  0  0  0  0  0  0  0  0
   -7.1105    7.7431    1.7831 H   0  0  0  0  0  0  0  0  0  0  0  0
    2.5556   -2.0845    3.1684 H   0  0  0  0  0  0  0  0  0  0  0  0
    3.5332   -4.2107    2.4689 H   0  0  0  0  0  0  0  0  0  0  0  0
    4.6380   -7.2658    0.7412 H   0  0  0  0  0  0  0  0  0  0  0  0
    4.8607   -5.5387    1.1055 H   0  0  0  0  0  0  0  0  0  0  0  0
    3.9959   -6.6020    2.2658 H   0  0  0  0  0  0  0  0  0  0  0  0
    0.2453   -4.8598   -0.1881 H   0  0  0  0  0  0  0  0  0  0  0  0
   -0.7495   -2.7181    0.5349 H   0  0  0  0  0  0  0  0  0  0  0  0
    1.0179    1.5813    2.6987 H   0  0  0  0  0  0  0  0  0  0  0  0
    1.0439    2.5626    4.9529 H   0  0  0  0  0  0  0  0  0  0  0  0
   -0.0980   -0.4192    8.7757 H   0  0  0  0  0  0  0  0  0  0  0  0
   -1.4943    0.3416    7.9285 H   0  0  0  0  0  0  0  0  0  0  0  0
   -0.8022    1.0890    9.3966 H   0  0  0  0  0  0  0  0  0  0  0  0
   -0.0874   -1.2146    6.6079 H   0  0  0  0  0  0  0  0  0  0  0  0
   -0.1127   -2.1890    4.3708 H   0  0  0  0  0  0  0  0  0  0  0  0
   -1.2524    0.3232   -3.6101 H   0  0  0  0  0  0  0  0  0  0  0  0
   -3.3082    1.6562   -3.6241 H   0  0  0  0  0  0  0  0  0  0  0  0
   -4.5724    2.9357   -1.9875 H   0  0  0  0  0  0  0  0  0  0  0  0
   -5.3389    2.8363   -3.6069 H   0  0  0  0  0  0  0  0  0  0  0  0
   -5.7735    4.1483   -2.4920 H   0  0  0  0  0  0  0  0  0  0  0  0
   -0.9745    5.2407   -3.6373 H   0  0  0  0  0  0  0  0  0  0  0  0
    1.0932    3.8909   -3.6374 H   0  0  0  0  0  0  0  0  0  0  0  0
    1.0528    2.0967   -5.9323 H   0  0  0  0  0  0  0  0  0  0  0  0
    2.8967    2.5299   -7.4575 H   0  0  0  0  0  0  0  0  0  0  0  0
    4.6204    3.6268   -8.5843 H   0  0  0  0  0  0  0  0  0  0  0  0
    6.0190    2.8147   -9.3192 H   0  0  0  0  0  0  0  0  0  0  0  0
    4.5235    1.8947   -9.0477 H   0  0  0  0  0  0  0  0  0  0  0  0
    5.6795    1.4274   -4.3998 H   0  0  0  0  0  0  0  0  0  0  0  0
    3.8214    1.0230   -2.8527 H   0  0  0  0  0  0  0  0  0  0  0  0
    4.4035   -4.1977   -7.0933 H   0  0  0  0  0  0  0  0  0  0  0  0
    7.8217   -8.1698   -7.9296 H   0  0  0  0  0  0  0  0  0  0  0  0
    6.4339   -8.7315   -3.1844 H   0  0  0  0  0  0  0  0  0  0  0  0
  1  2  2  0  0  0  0
  2  3  1  0  0  0  0
  3  4  2  0  0  0  0
  3  5  1  0  0  0  0
  5  6  2  0  0  0  0
  6  7  1  0  0  0  0
  7  8  1  0  0  0  0
  7  9  2  0  0  0  0
  9 10  1  0  0  0  0
  9 11  1  0  0  0  0
 11 12  2  0  0  0  0
 12 13  1  0  0  0  0
 13 14  2  0  0  0  0
 14 15  1  0  0  0  0
 15 16  3  0  0  0  0
 14 17  1  0  0  0  0
 17 18  3  0  0  0  0
  1 19  1  0  0  0  0
 19 20  2  0  0  0  0
 20 21  1  0  0  0  0
 20 22  1  0  0  0  0
 22 23  2  0  0  0  0
 23 24  1  0  0  0  0
 24 25  2  0  0  0  0
 25 26  1  0  0  0  0
 26 27  2  0  0  0  0
 27 28  1  0  0  0  0
 28 29  1  0  0  0  0
 29 30  1  0  0  0  0
 27 31  1  0  0  0  0
 31 32  2  0  0  0  0
 23 33  1  0  0  0  0
 33 34  2  0  0  0  0
 34 35  1  0  0  0  0
 35 36  1  0  0  0  0
 36 37  2  0  0  0  0
 37 38  1  0  0  0  0
 38 39  2  0  0  0  0
 39 40  1  0  0  0  0
 40 41  1  0  0  0  0
 39 42  1  0  0  0  0
 42 43  2  0  0  0  0
 35 44  1  0  0  0  0
 44 45  2  0  0  0  0
 45 46  1  0  0  0  0
 46 47  2  0  0  0  0
 47 48  1  0  0  0  0
 48 49  1  0  0  0  0
 47 50  1  0  0  0  0
 50 51  2  0  0  0  0
 34 52  1  0  0  0  0
 52 53  1  0  0  0  0
 53 54  1  0  0  0  0
 54 55  2  0  0  0  0
 55 56  1  0  0  0  0
 56 57  1  0  0  0  0
 57 58  2  0  0  0  0
 58 59  1  0  0  0  0
 59 60  2  0  0  0  0
 60 61  1  0  0  0  0
 61 62  1  0  0  0  0
 60 63  1  0  0  0  0
 63 64  2  0  0  0  0
 56 65  1  0  0  0  0
 65 66  2  0  0  0  0
 66 67  1  0  0  0  0
 67 68  2  0  0  0  0
 68 69  1  0  0  0  0
 69 70  1  0  0  0  0
 68 71  1  0  0  0  0
 71 72  2  0  0  0  0
 55 73  1  0  0  0  0
 73 74  1  0  0  0  0
 54 75  1  0  0  0  0
 75 76  2  0  0  0  0
 76 77  1  0  0  0  0
 77 78  1  0  0  0  0
 78 79  2  0  0  0  0
 79 80  2  0  0  0  0
 77 81  2  0  0  0  0
 81 82  1  0  0  0  0
 82 83  2  0  0  0  0
 83 84  1  0  0  0  0
 84 85  1  0  0  0  0
 85 86  2  0  0  0  0
 81 87  1  0  0  0  0
 87 88  2  0  0  0  0
 88 89  1  0  0  0  0
 89 90  2  0  0  0  0
 89 91  1  0  0  0  0
 91 92  2  0  0  0  0
 92 93  1  0  0  0  0
 93 94  1  0  0  0  0
 93 95  2  0  0  0  0
 95 96  1  0  0  0  0
 95 97  1  0  0  0  0
 97 98  2  0  0  0  0
 98 99  1  0  0  0  0
 99100  2  0  0  0  0
100101  1  0  0  0  0
101102  3  0  0  0  0
100103  1  0  0  0  0
103104  3  0  0  0  0
 13  2  1  0  0  0  0
 32 19  1  0  0  0  0
 74 33  1  0  0  0  0
 86 75  1  0  0  0  0
 99 88  1  0  0  0  0
 12  5  1  0  0  0  0
 32 24  1  0  0  0  0
 43 36  1  0  0  0  0
 51 44  1  0  0  0  0
 73 52  2  0  0  0  0
 80 76  1  0  0  0  0
 86 82  1  0  0  0  0
 98 91  1  0  0  0  0
 64 57  1  0  0  0  0
 72 65  1  0  0  0  0
  1105  1  0  0  0  0
  6106  1  0  0  0  0
 11107  1  0  0  0  0
 22108  1  0  0  0  0
 26109  1  0  0  0  0
 29110  1  0  0  0  0
 29111  1  0  0  0  0
 30112  1  0  0  0  0
 30113  1  0  0  0  0
 30114  1  0  0  0  0
 37115  1  0  0  0  0
 38116  1  0  0  0  0
 41117  1  0  0  0  0
 41118  1  0  0  0  0
 41119  1  0  0  0  0
 42120  1  0  0  0  0
 43121  1  0  0  0  0
 45122  1  0  0  0  0
 46123  1  0  0  0  0
 49124  1  0  0  0  0
 49125  1  0  0  0  0
 49126  1  0  0  0  0
 50127  1  0  0  0  0
 51128  1  0  0  0  0
 58129  1  0  0  0  0
 59130  1  0  0  0  0
 62131  1  0  0  0  0
 62132  1  0  0  0  0
 62133  1  0  0  0  0
 63134  1  0  0  0  0
 64135  1  0  0  0  0
 66136  1  0  0  0  0
 67137  1  0  0  0  0
 70138  1  0  0  0  0
 70139  1  0  0  0  0
 70140  1  0  0  0  0
 71141  1  0  0  0  0
 72142  1  0  0  0  0
 87143  1  0  0  0  0
 92144  1  0  0  0  0
 97145  1  0  0  0  0
M  END
