
  xtb     02112213293D
 energy: -330.033052469464 gnorm: 0.000423317135 xtb: 6.4.1 (unknown)
193209  0     0  0            999 V2000
   -1.2728   -2.2784   -6.9381 C   0  0  0  0  0  0  0  0  0  0  0  0
   -1.6629   -3.4860   -7.4684 C   0  0  0  0  0  0  0  0  0  0  0  0
   -1.0431   -3.9745   -8.7145 C   0  0  0  0  0  0  0  0  0  0  0  0
   -0.3777   -3.3426   -9.5068 O   0  0  0  0  0  0  0  0  0  0  0  0
   -1.3483   -5.4272   -8.7477 C   0  0  0  0  0  0  0  0  0  0  0  0
   -0.9170   -6.3869   -9.6388 C   0  0  0  0  0  0  0  0  0  0  0  0
   -1.3102   -7.7047   -9.4313 C   0  0  0  0  0  0  0  0  0  0  0  0
   -0.7865   -8.9291  -10.5189 Cl  0  0  0  0  0  0  0  0  0  0  0  0
   -2.1249   -8.0365   -8.3457 C   0  0  0  0  0  0  0  0  0  0  0  0
   -2.5872   -9.6722   -8.0896 Cl  0  0  0  0  0  0  0  0  0  0  0  0
   -2.5741   -7.0634   -7.4587 C   0  0  0  0  0  0  0  0  0  0  0  0
   -2.1802   -5.7538   -7.6614 C   0  0  0  0  0  0  0  0  0  0  0  0
   -2.5017   -4.5261   -6.9361 C   0  0  0  0  0  0  0  0  0  0  0  0
   -3.5884   -4.3526   -6.1108 C   0  0  0  0  0  0  0  0  0  0  0  0
   -4.3885   -5.4035   -5.6318 C   0  0  0  0  0  0  0  0  0  0  0  0
   -5.0511   -6.2336   -5.1936 N   0  0  0  0  0  0  0  0  0  0  0  0
   -4.0524   -3.0766   -5.7347 C   0  0  0  0  0  0  0  0  0  0  0  0
   -4.4881   -2.0463   -5.4729 N   0  0  0  0  0  0  0  0  0  0  0  0
   -1.2600   -1.9036   -5.5935 C   0  0  0  0  0  0  0  0  0  0  0  0
   -0.7744   -0.6837   -5.0726 C   0  0  0  0  0  0  0  0  0  0  0  0
   -0.6138    0.4508   -5.8014 N   0  0  0  0  0  0  0  0  0  0  0  0
    0.2731    1.4586   -5.3662 C   0  0  0  0  0  0  0  0  0  0  0  0
    1.5887    1.1385   -5.0538 C   0  0  0  0  0  0  0  0  0  0  0  0
    2.4680    2.1289   -4.6576 C   0  0  0  0  0  0  0  0  0  0  0  0
    2.0590    3.4533   -4.5788 C   0  0  0  0  0  0  0  0  0  0  0  0
    3.0138    4.5397   -4.1959 C   0  0  0  0  0  0  0  0  0  0  0  0
    0.7398    3.7618   -4.8984 C   0  0  0  0  0  0  0  0  0  0  0  0
   -0.1491    2.7819   -5.2887 C   0  0  0  0  0  0  0  0  0  0  0  0
   -1.4033    0.7324   -6.9406 C   0  0  0  0  0  0  0  0  0  0  0  0
   -2.7630    0.4382   -6.9627 C   0  0  0  0  0  0  0  0  0  0  0  0
   -3.5109    0.7436   -8.0815 C   0  0  0  0  0  0  0  0  0  0  0  0
   -2.9352    1.3548   -9.1904 C   0  0  0  0  0  0  0  0  0  0  0  0
   -3.7501    1.6577  -10.4086 C   0  0  0  0  0  0  0  0  0  0  0  0
   -1.5801    1.6595   -9.1476 C   0  0  0  0  0  0  0  0  0  0  0  0
   -0.8169    1.3546   -8.0374 C   0  0  0  0  0  0  0  0  0  0  0  0
   -0.5448   -0.7934   -3.6809 C   0  0  0  0  0  0  0  0  0  0  0  0
    0.0888    0.2546   -2.4647 S   0  0  0  0  0  0  0  0  0  0  0  0
   -0.2153   -0.9578   -1.2114 C   0  0  0  0  0  0  0  0  0  0  0  0
   -0.8614   -2.0779   -1.7154 C   0  0  0  0  0  0  0  0  0  0  0  0
   -1.3402   -3.1461   -0.9928 N   0  0  0  0  0  0  0  0  0  0  0  0
   -2.0232   -2.9632    0.2258 C   0  0  0  0  0  0  0  0  0  0  0  0
   -1.8981   -3.9428    1.2068 C   0  0  0  0  0  0  0  0  0  0  0  0
   -2.6476   -3.8632    2.3606 C   0  0  0  0  0  0  0  0  0  0  0  0
   -3.5407   -2.8156    2.5639 C   0  0  0  0  0  0  0  0  0  0  0  0
   -4.3863   -2.7866    3.7993 C   0  0  0  0  0  0  0  0  0  0  0  0
   -3.6370   -1.8274    1.5945 C   0  0  0  0  0  0  0  0  0  0  0  0
   -2.8884   -1.8940    0.4330 C   0  0  0  0  0  0  0  0  0  0  0  0
   -1.5984   -4.3661   -1.6648 C   0  0  0  0  0  0  0  0  0  0  0  0
   -0.5843   -5.0012   -2.3716 C   0  0  0  0  0  0  0  0  0  0  0  0
   -0.8364   -6.1802   -3.0476 C   0  0  0  0  0  0  0  0  0  0  0  0
   -2.1008   -6.7530   -3.0348 C   0  0  0  0  0  0  0  0  0  0  0  0
   -2.3808   -8.0338   -3.7569 C   0  0  0  0  0  0  0  0  0  0  0  0
   -3.1074   -6.1166   -2.3152 C   0  0  0  0  0  0  0  0  0  0  0  0
   -2.8668   -4.9397   -1.6359 C   0  0  0  0  0  0  0  0  0  0  0  0
   -0.9659   -1.9924   -3.1278 C   0  0  0  0  0  0  0  0  0  0  0  0
   -1.5575   -3.0879   -4.3176 S   0  0  0  0  0  0  0  0  0  0  0  0
    0.3307   -0.6270    0.0759 C   0  0  0  0  0  0  0  0  0  0  0  0
    1.6358   -0.1795    0.2236 C   0  0  0  0  0  0  0  0  0  0  0  0
    2.6060   -0.2438   -0.7701 N   0  0  0  0  0  0  0  0  0  0  0  0
    3.4124    0.8730   -1.0016 C   0  0  0  0  0  0  0  0  0  0  0  0
    4.7307    0.7239   -1.4347 C   0  0  0  0  0  0  0  0  0  0  0  0
    5.5212    1.8313   -1.6417 C   0  0  0  0  0  0  0  0  0  0  0  0
    5.0235    3.1118   -1.4071 C   0  0  0  0  0  0  0  0  0  0  0  0
    6.1260    4.4581   -1.7214 S   0  0  0  0  0  0  0  0  0  0  0  0
    5.2897    5.8832   -0.9700 C   0  0  0  0  0  0  0  0  0  0  0  0
    3.7135    3.2650   -0.9763 C   0  0  0  0  0  0  0  0  0  0  0  0
    2.9156    2.1552   -0.7831 C   0  0  0  0  0  0  0  0  0  0  0  0
    2.7066   -1.3987   -1.5534 C   0  0  0  0  0  0  0  0  0  0  0  0
    2.9634   -1.3065   -2.9191 C   0  0  0  0  0  0  0  0  0  0  0  0
    2.9701   -2.4345   -3.7128 C   0  0  0  0  0  0  0  0  0  0  0  0
    2.7479   -3.6831   -3.1485 C   0  0  0  0  0  0  0  0  0  0  0  0
    2.6760   -5.1655   -4.1173 S   0  0  0  0  0  0  0  0  0  0  0  0
    1.9066   -4.5729   -5.6552 C   0  0  0  0  0  0  0  0  0  0  0  0
    2.5704   -3.7890   -1.7712 C   0  0  0  0  0  0  0  0  0  0  0  0
    2.5315   -2.6588   -0.9832 C   0  0  0  0  0  0  0  0  0  0  0  0
    1.8706    0.3199    1.5212 C   0  0  0  0  0  0  0  0  0  0  0  0
    3.2430    1.0009    2.3078 S   0  0  0  0  0  0  0  0  0  0  0  0
    2.3026    1.2485    3.7862 C   0  0  0  0  0  0  0  0  0  0  0  0
    0.9988    0.7583    3.6670 C   0  0  0  0  0  0  0  0  0  0  0  0
    0.0158    0.7360    4.6384 N   0  0  0  0  0  0  0  0  0  0  0  0
    0.3089    0.5391    5.9911 C   0  0  0  0  0  0  0  0  0  0  0  0
    1.3722   -0.2726    6.3823 C   0  0  0  0  0  0  0  0  0  0  0  0
    1.7545   -0.3481    7.7081 C   0  0  0  0  0  0  0  0  0  0  0  0
    1.0573    0.3664    8.6728 C   0  0  0  0  0  0  0  0  0  0  0  0
    1.5227    0.4660   10.3721 S   0  0  0  0  0  0  0  0  0  0  0  0
    3.1146   -0.4012   10.4441 C   0  0  0  0  0  0  0  0  0  0  0  0
   -0.0714    1.0949    8.2995 C   0  0  0  0  0  0  0  0  0  0  0  0
   -0.4361    1.1917    6.9786 C   0  0  0  0  0  0  0  0  0  0  0  0
   -1.3137    0.9592    4.2425 C   0  0  0  0  0  0  0  0  0  0  0  0
   -2.3585    0.2763    4.8575 C   0  0  0  0  0  0  0  0  0  0  0  0
   -3.6677    0.5129    4.4908 C   0  0  0  0  0  0  0  0  0  0  0  0
   -3.9544    1.4145    3.4747 C   0  0  0  0  0  0  0  0  0  0  0  0
   -5.5847    1.7503    2.8882 S   0  0  0  0  0  0  0  0  0  0  0  0
   -6.6593    1.0637    4.1815 C   0  0  0  0  0  0  0  0  0  0  0  0
   -2.9117    2.0938    2.8490 C   0  0  0  0  0  0  0  0  0  0  0  0
   -1.6087    1.8816    3.2380 C   0  0  0  0  0  0  0  0  0  0  0  0
    0.7738    0.2464    2.3618 C   0  0  0  0  0  0  0  0  0  0  0  0
   -0.5793   -0.5033    1.5748 S   0  0  0  0  0  0  0  0  0  0  0  0
    2.9759    1.8822    4.8605 C   0  0  0  0  0  0  0  0  0  0  0  0
    4.3575    1.9555    4.9916 C   0  0  0  0  0  0  0  0  0  0  0  0
    4.7757    2.5475    6.1768 C   0  0  0  0  0  0  0  0  0  0  0  0
    6.1886    2.7359    6.5730 C   0  0  0  0  0  0  0  0  0  0  0  0
    6.5231    3.5655    7.3888 O   0  0  0  0  0  0  0  0  0  0  0  0
    7.1863    1.8322    5.8801 C   0  0  0  0  0  0  0  0  0  0  0  0
    8.5657    1.9344    6.5165 C   0  0  0  0  0  0  0  0  0  0  0  0
    3.6922    2.9475    6.9911 C   0  0  0  0  0  0  0  0  0  0  0  0
    2.1758    2.6866    6.1723 S   0  0  0  0  0  0  0  0  0  0  0  0
    3.8168    3.2581    8.3478 C   0  0  0  0  0  0  0  0  0  0  0  0
    2.8355    3.5307    9.2710 C   0  0  0  0  0  0  0  0  0  0  0  0
    1.4490    3.8888    8.9630 C   0  0  0  0  0  0  0  0  0  0  0  0
    0.9203    3.9167    7.8667 O   0  0  0  0  0  0  0  0  0  0  0  0
    0.8366    4.2571   10.2557 C   0  0  0  0  0  0  0  0  0  0  0  0
   -0.4434    4.6815   10.5582 C   0  0  0  0  0  0  0  0  0  0  0  0
   -1.3761    4.7953    9.6040 F   0  0  0  0  0  0  0  0  0  0  0  0
   -0.7834    4.9872   11.8703 C   0  0  0  0  0  0  0  0  0  0  0  0
    0.1670    4.8646   12.8684 C   0  0  0  0  0  0  0  0  0  0  0  0
    1.4569    4.4261   12.5922 C   0  0  0  0  0  0  0  0  0  0  0  0
    1.7879    4.1182   11.2844 C   0  0  0  0  0  0  0  0  0  0  0  0
    3.0253    3.6011   10.6993 C   0  0  0  0  0  0  0  0  0  0  0  0
    4.1074    3.1339   11.4011 C   0  0  0  0  0  0  0  0  0  0  0  0
    5.1814    2.4191   10.8303 C   0  0  0  0  0  0  0  0  0  0  0  0
    6.0419    1.7575   10.4533 N   0  0  0  0  0  0  0  0  0  0  0  0
    4.2377    3.2102   12.8021 C   0  0  0  0  0  0  0  0  0  0  0  0
    4.4068    3.2456   13.9374 N   0  0  0  0  0  0  0  0  0  0  0  0
   -0.7754   -1.6108   -7.6334 H   0  0  0  0  0  0  0  0  0  0  0  0
   -0.2905   -6.1214  -10.4755 H   0  0  0  0  0  0  0  0  0  0  0  0
   -3.2052   -7.3475   -6.6332 H   0  0  0  0  0  0  0  0  0  0  0  0
    1.9123    0.1130   -5.1496 H   0  0  0  0  0  0  0  0  0  0  0  0
    3.4919    1.8759   -4.4211 H   0  0  0  0  0  0  0  0  0  0  0  0
    3.9415    4.1265   -3.8105 H   0  0  0  0  0  0  0  0  0  0  0  0
    2.5693    5.1874   -3.4423 H   0  0  0  0  0  0  0  0  0  0  0  0
    3.2466    5.1550   -5.0652 H   0  0  0  0  0  0  0  0  0  0  0  0
    0.4066    4.7878   -4.8412 H   0  0  0  0  0  0  0  0  0  0  0  0
   -1.1702    3.0308   -5.5362 H   0  0  0  0  0  0  0  0  0  0  0  0
   -3.2339   -0.0324   -6.1132 H   0  0  0  0  0  0  0  0  0  0  0  0
   -4.5646    0.5082   -8.0864 H   0  0  0  0  0  0  0  0  0  0  0  0
   -4.7922    1.8249  -10.1471 H   0  0  0  0  0  0  0  0  0  0  0  0
   -3.3674    2.5349  -10.9250 H   0  0  0  0  0  0  0  0  0  0  0  0
   -3.7072    0.8152  -11.0997 H   0  0  0  0  0  0  0  0  0  0  0  0
   -1.1126    2.1365   -9.9963 H   0  0  0  0  0  0  0  0  0  0  0  0
    0.2369    1.5914   -8.0175 H   0  0  0  0  0  0  0  0  0  0  0  0
   -1.2279   -4.7730    1.0397 H   0  0  0  0  0  0  0  0  0  0  0  0
   -2.5536   -4.6342    3.1116 H   0  0  0  0  0  0  0  0  0  0  0  0
   -4.8110   -3.7701    3.9925 H   0  0  0  0  0  0  0  0  0  0  0  0
   -5.1973   -2.0717    3.6920 H   0  0  0  0  0  0  0  0  0  0  0  0
   -3.7841   -2.5069    4.6632 H   0  0  0  0  0  0  0  0  0  0  0  0
   -4.3196   -1.0020    1.7317 H   0  0  0  0  0  0  0  0  0  0  0  0
   -2.9984   -1.1352   -0.3280 H   0  0  0  0  0  0  0  0  0  0  0  0
    0.3975   -4.5582   -2.3908 H   0  0  0  0  0  0  0  0  0  0  0  0
   -0.0329   -6.6558   -3.5909 H   0  0  0  0  0  0  0  0  0  0  0  0
   -1.6752   -8.1853   -4.5708 H   0  0  0  0  0  0  0  0  0  0  0  0
   -3.3948   -8.0318   -4.1510 H   0  0  0  0  0  0  0  0  0  0  0  0
   -2.2906   -8.8762   -3.0702 H   0  0  0  0  0  0  0  0  0  0  0  0
   -4.0998   -6.5416   -2.3039 H   0  0  0  0  0  0  0  0  0  0  0  0
   -3.6634   -4.4518   -1.0939 H   0  0  0  0  0  0  0  0  0  0  0  0
    5.1316   -0.2651   -1.5977 H   0  0  0  0  0  0  0  0  0  0  0  0
    6.5411    1.7183   -1.9762 H   0  0  0  0  0  0  0  0  0  0  0  0
    5.0378    5.6564    0.0616 H   0  0  0  0  0  0  0  0  0  0  0  0
    4.4070    6.1491   -1.5443 H   0  0  0  0  0  0  0  0  0  0  0  0
    6.0080    6.6962   -1.0061 H   0  0  0  0  0  0  0  0  0  0  0  0
    3.2959    4.2424   -0.7979 H   0  0  0  0  0  0  0  0  0  0  0  0
    1.8899    2.2848   -0.4714 H   0  0  0  0  0  0  0  0  0  0  0  0
    3.1412   -0.3350   -3.3506 H   0  0  0  0  0  0  0  0  0  0  0  0
    3.1484   -2.3377   -4.7727 H   0  0  0  0  0  0  0  0  0  0  0  0
    1.0597   -3.9385   -5.4110 H   0  0  0  0  0  0  0  0  0  0  0  0
    1.5639   -5.4590   -6.1804 H   0  0  0  0  0  0  0  0  0  0  0  0
    2.6288   -4.0441   -6.2700 H   0  0  0  0  0  0  0  0  0  0  0  0
    2.4581   -4.7660   -1.3258 H   0  0  0  0  0  0  0  0  0  0  0  0
    2.3591   -2.7468    0.0791 H   0  0  0  0  0  0  0  0  0  0  0  0
    1.9284   -0.8225    5.6375 H   0  0  0  0  0  0  0  0  0  0  0  0
    2.6040   -0.9574    7.9712 H   0  0  0  0  0  0  0  0  0  0  0  0
    3.4652   -0.2886   11.4657 H   0  0  0  0  0  0  0  0  0  0  0  0
    3.8217    0.0618    9.7615 H   0  0  0  0  0  0  0  0  0  0  0  0
    2.9757   -1.4548   10.2202 H   0  0  0  0  0  0  0  0  0  0  0  0
   -0.6327    1.6206    9.0562 H   0  0  0  0  0  0  0  0  0  0  0  0
   -1.2667    1.8198    6.7000 H   0  0  0  0  0  0  0  0  0  0  0  0
   -2.1411   -0.4421    5.6339 H   0  0  0  0  0  0  0  0  0  0  0  0
   -4.4551   -0.0172    5.0002 H   0  0  0  0  0  0  0  0  0  0  0  0
   -6.3608    1.4544    5.1494 H   0  0  0  0  0  0  0  0  0  0  0  0
   -6.6289   -0.0222    4.1676 H   0  0  0  0  0  0  0  0  0  0  0  0
   -7.6617    1.4020    3.9382 H   0  0  0  0  0  0  0  0  0  0  0  0
   -3.1394    2.8020    2.0675 H   0  0  0  0  0  0  0  0  0  0  0  0
   -0.8108    2.4414    2.7735 H   0  0  0  0  0  0  0  0  0  0  0  0
    5.0204    1.5587    4.2430 H   0  0  0  0  0  0  0  0  0  0  0  0
    7.2345    2.1297    4.8290 H   0  0  0  0  0  0  0  0  0  0  0  0
    6.8168    0.8053    5.9185 H   0  0  0  0  0  0  0  0  0  0  0  0
    8.5178    1.6391    7.5615 H   0  0  0  0  0  0  0  0  0  0  0  0
    9.2725    1.2914    5.9984 H   0  0  0  0  0  0  0  0  0  0  0  0
    8.9225    2.9601    6.4732 H   0  0  0  0  0  0  0  0  0  0  0  0
    4.8387    3.2432    8.7080 H   0  0  0  0  0  0  0  0  0  0  0  0
   -1.7865    5.3170   12.0905 H   0  0  0  0  0  0  0  0  0  0  0  0
   -0.1004    5.1103   13.8846 H   0  0  0  0  0  0  0  0  0  0  0  0
    2.1756    4.3363   13.3897 H   0  0  0  0  0  0  0  0  0  0  0  0
  1  2  2  0  0  0  0
  2  3  1  0  0  0  0
  3  4  2  0  0  0  0
  3  5  1  0  0  0  0
  5  6  2  0  0  0  0
  6  7  1  0  0  0  0
  7  8  1  0  0  0  0
  7  9  2  0  0  0  0
  9 10  1  0  0  0  0
  9 11  1  0  0  0  0
 11 12  2  0  0  0  0
 12 13  1  0  0  0  0
 13 14  2  0  0  0  0
 14 15  1  0  0  0  0
 15 16  3  0  0  0  0
 14 17  1  0  0  0  0
 17 18  3  0  0  0  0
  1 19  1  0  0  0  0
 19 20  2  0  0  0  0
 20 21  1  0  0  0  0
 21 22  1  0  0  0  0
 22 23  2  0  0  0  0
 23 24  1  0  0  0  0
 24 25  2  0  0  0  0
 25 26  1  0  0  0  0
 25 27  1  0  0  0  0
 27 28  2  0  0  0  0
 21 29  1  0  0  0  0
 29 30  2  0  0  0  0
 30 31  1  0  0  0  0
 31 32  2  0  0  0  0
 32 33  1  0  0  0  0
 32 34  1  0  0  0  0
 34 35  2  0  0  0  0
 20 36  1  0  0  0  0
 36 37  1  0  0  0  0
 37 38  1  0  0  0  0
 38 39  2  0  0  0  0
 39 40  1  0  0  0  0
 40 41  1  0  0  0  0
 41 42  2  0  0  0  0
 42 43  1  0  0  0  0
 43 44  2  0  0  0  0
 44 45  1  0  0  0  0
 44 46  1  0  0  0  0
 46 47  2  0  0  0  0
 40 48  1  0  0  0  0
 48 49  2  0  0  0  0
 49 50  1  0  0  0  0
 50 51  2  0  0  0  0
 51 52  1  0  0  0  0
 51 53  1  0  0  0  0
 53 54  2  0  0  0  0
 39 55  1  0  0  0  0
 55 56  1  0  0  0  0
 38 57  1  0  0  0  0
 57 58  2  0  0  0  0
 58 59  1  0  0  0  0
 59 60  1  0  0  0  0
 60 61  2  0  0  0  0
 61 62  1  0  0  0  0
 62 63  2  0  0  0  0
 63 64  1  0  0  0  0
 64 65  1  0  0  0  0
 63 66  1  0  0  0  0
 66 67  2  0  0  0  0
 59 68  1  0  0  0  0
 68 69  2  0  0  0  0
 69 70  1  0  0  0  0
 70 71  2  0  0  0  0
 71 72  1  0  0  0  0
 72 73  1  0  0  0  0
 71 74  1  0  0  0  0
 74 75  2  0  0  0  0
 58 76  1  0  0  0  0
 76 77  1  0  0  0  0
 77 78  1  0  0  0  0
 78 79  2  0  0  0  0
 79 80  1  0  0  0  0
 80 81  1  0  0  0  0
 81 82  2  0  0  0  0
 82 83  1  0  0  0  0
 83 84  2  0  0  0  0
 84 85  1  0  0  0  0
 85 86  1  0  0  0  0
 84 87  1  0  0  0  0
 87 88  2  0  0  0  0
 80 89  1  0  0  0  0
 89 90  2  0  0  0  0
 90 91  1  0  0  0  0
 91 92  2  0  0  0  0
 92 93  1  0  0  0  0
 93 94  1  0  0  0  0
 92 95  1  0  0  0  0
 95 96  2  0  0  0  0
 79 97  1  0  0  0  0
 97 98  1  0  0  0  0
 78 99  1  0  0  0  0
 99100  2  0  0  0  0
100101  1  0  0  0  0
101102  1  0  0  0  0
102103  2  0  0  0  0
102104  1  0  0  0  0
104105  1  0  0  0  0
101106  2  0  0  0  0
106107  1  0  0  0  0
106108  1  0  0  0  0
108109  2  0  0  0  0
109110  1  0  0  0  0
110111  2  0  0  0  0
110112  1  0  0  0  0
112113  2  0  0  0  0
113114  1  0  0  0  0
113115  1  0  0  0  0
115116  2  0  0  0  0
116117  1  0  0  0  0
117118  2  0  0  0  0
118119  1  0  0  0  0
119120  2  0  0  0  0
120121  1  0  0  0  0
121122  3  0  0  0  0
120123  1  0  0  0  0
123124  3  0  0  0  0
 13  2  1  0  0  0  0
 56 19  1  0  0  0  0
 98 57  1  0  0  0  0
107 99  1  0  0  0  0
119109  1  0  0  0  0
 12  5  1  0  0  0  0
 28 22  1  0  0  0  0
 35 29  1  0  0  0  0
 55 36  2  0  0  0  0
 67 60  1  0  0  0  0
 75 68  1  0  0  0  0
 97 76  2  0  0  0  0
118112  1  0  0  0  0
 47 41  1  0  0  0  0
 54 48  1  0  0  0  0
 88 81  1  0  0  0  0
 96 89  1  0  0  0  0
  1125  1  0  0  0  0
  6126  1  0  0  0  0
 11127  1  0  0  0  0
 23128  1  0  0  0  0
 24129  1  0  0  0  0
 26130  1  0  0  0  0
 26131  1  0  0  0  0
 26132  1  0  0  0  0
 27133  1  0  0  0  0
 28134  1  0  0  0  0
 30135  1  0  0  0  0
 31136  1  0  0  0  0
 33137  1  0  0  0  0
 33138  1  0  0  0  0
 33139  1  0  0  0  0
 34140  1  0  0  0  0
 35141  1  0  0  0  0
 42142  1  0  0  0  0
 43143  1  0  0  0  0
 45144  1  0  0  0  0
 45145  1  0  0  0  0
 45146  1  0  0  0  0
 46147  1  0  0  0  0
 47148  1  0  0  0  0
 49149  1  0  0  0  0
 50150  1  0  0  0  0
 52151  1  0  0  0  0
 52152  1  0  0  0  0
 52153  1  0  0  0  0
 53154  1  0  0  0  0
 54155  1  0  0  0  0
 61156  1  0  0  0  0
 62157  1  0  0  0  0
 65158  1  0  0  0  0
 65159  1  0  0  0  0
 65160  1  0  0  0  0
 66161  1  0  0  0  0
 67162  1  0  0  0  0
 69163  1  0  0  0  0
 70164  1  0  0  0  0
 73165  1  0  0  0  0
 73166  1  0  0  0  0
 73167  1  0  0  0  0
 74168  1  0  0  0  0
 75169  1  0  0  0  0
 82170  1  0  0  0  0
 83171  1  0  0  0  0
 86172  1  0  0  0  0
 86173  1  0  0  0  0
 86174  1  0  0  0  0
 87175  1  0  0  0  0
 88176  1  0  0  0  0
 90177  1  0  0  0  0
 91178  1  0  0  0  0
 94179  1  0  0  0  0
 94180  1  0  0  0  0
 94181  1  0  0  0  0
 95182  1  0  0  0  0
 96183  1  0  0  0  0
100184  1  0  0  0  0
104185  1  0  0  0  0
104186  1  0  0  0  0
105187  1  0  0  0  0
105188  1  0  0  0  0
105189  1  0  0  0  0
108190  1  0  0  0  0
115191  1  0  0  0  0
116192  1  0  0  0  0
117193  1  0  0  0  0
M  END
