244

C          4.67260       -7.37110       -3.37610
C          4.17460       -8.37290       -4.19700
C          3.44200       -8.11910       -5.44000
O          3.14470       -7.04290       -5.92590
C          3.23550       -9.45410       -6.05300
C          2.59270       -9.77640       -7.22740
C          2.49730      -11.11900       -7.57810
Cl         1.68140      -11.56250       -9.02600
C          3.05330      -12.10270       -6.75980
Cl         2.92820      -13.75950       -7.20520
C          3.71210      -11.77100       -5.57920
C          3.79910      -10.43810       -5.22400
C          4.37810       -9.78140       -4.05200
C          4.86580      -10.41800       -2.93360
C          4.93710      -11.81450       -2.79080
N          5.00040      -12.94820       -2.61230
C          5.26700       -9.74860       -1.76210
N          5.57520       -9.26950       -0.76380
C          4.14820       -6.09430       -3.23590
C          2.86090       -5.57050       -3.51960
N          1.73440       -6.27880       -3.80420
C          1.54760       -7.61910       -3.43930
C          2.00990       -8.11400       -2.22020
C          1.84770       -9.44690       -1.90820
C          1.22390      -10.32530       -2.79200
C          1.11190      -11.77900       -2.45880
C          0.71880       -9.81290       -3.97920
C          0.87080       -8.47760       -4.30290
C          0.64350       -5.62030       -4.42180
C          0.81060       -4.97410       -5.63990
C         -0.27310       -4.36540       -6.24440
C         -1.52560       -4.36880       -5.64340
C         -2.70070       -3.69870       -6.28640
C         -1.67640       -5.01320       -4.41940
C         -0.60840       -5.64350       -3.81460
C          2.83530       -4.18080       -3.28500
S          1.60160       -2.97140       -3.43750
C          2.62030       -1.80530       -2.60060
C          3.89100       -2.30850       -2.32850
N          4.89750       -1.59380       -1.69830
C          5.25700       -0.31460       -2.13490
C          5.03090        0.08480       -3.45050
C          5.38720        1.35430       -3.85780
C          5.97220        2.26010       -2.98040
C          6.33910        3.63800       -3.44130
C          6.18990        1.85460       -1.66980
C          5.83870        0.58910       -1.24750
C          5.63930       -2.26930       -0.71450
C          7.02680       -2.18310       -0.66080
C          7.72750       -2.90320        0.28610
C          7.07330       -3.72860        1.19410
C          7.84090       -4.54650        2.18690
C          5.68510       -3.79590        1.14330
C          4.97290       -3.07290        0.20790
C          3.99330       -3.65990       -2.71770
S          5.21280       -4.86400       -2.52530
C          2.02520       -0.65800       -2.03300
C          0.72280       -0.22340       -2.26820
N          0.03020       -0.52070       -3.43270
C         -1.31200       -0.91640       -3.35390
C         -1.68150       -1.89950       -2.43840
C         -2.99040       -2.31540       -2.35780
C         -3.96000       -1.76160       -3.19230
S         -5.59490       -2.40690       -3.02510
C         -6.56750       -1.46630       -4.23430
C         -3.59600       -0.77600       -4.10100
C         -2.28170       -0.35620       -4.17820
C          0.64550       -0.30290       -4.67020
C          1.66460        0.63570       -4.81240
C          2.28230        0.82870       -6.03220
C          1.89420        0.08580       -7.13790
S          2.61190        0.24820       -8.74350
C          4.07040        1.29160       -8.46020
C          0.86630       -0.84520       -7.00300
C          0.25130       -1.04030       -5.78790
C          0.26530        0.59390       -1.21620
S         -1.25220        1.31590       -0.82890
C         -0.58100        1.94990        0.67500
C          0.78340        1.72080        0.78530
N          1.59420        2.33260        1.72180
C          1.22500        3.59730        2.22290
C          0.65080        4.56300        1.40310
C          0.20990        5.76330        1.92350
C          0.34800        6.02230        3.27970
S         -0.27290        7.47250        4.07160
C         -1.08680        8.38250        2.72910
C          1.00300        5.09500        4.08830
C          1.44110        3.89670        3.56640
C          2.91370        1.90020        1.93870
C          3.20560        0.55680        2.15270
C          4.50870        0.13830        2.34800
C          5.54240        1.06330        2.34610
S          7.24270        0.62790        2.55580
C          7.15370       -0.96500        3.42160
C          5.25440        2.41130        2.14160
C          3.95800        2.82620        1.93840
C          1.23400        0.88080       -0.26180
S          2.74100        0.11570       -0.62760
C         -1.45530        2.58070        1.62050
C         -1.68020        2.22640        2.94450
N         -1.12850        1.13360        3.58210
C         -1.07460        1.10140        4.99060
C         -1.47920       -0.03630        5.68160
C         -1.45740       -0.05260        7.06230
C         -1.03850        1.05520        7.78740
C         -1.06080        1.06280        9.28410
C         -0.61730        2.17940        7.08870
C         -0.63150        2.20800        5.70890
C         -0.82060       -0.03760        2.87420
C          0.29560       -0.78800        3.23320
C          0.64130       -1.91300        2.50840
C         -0.11050       -2.32290        1.41410
C          0.31890       -3.49360        0.58210
C         -1.26150       -1.60750        1.10600
C         -1.61900       -0.48500        1.82500
C         -2.62100        3.09750        3.55100
S         -3.28200        3.20680        5.14150
C         -4.29260        4.56470        4.64180
C         -4.02770        4.95690        3.30110
N         -4.55740        6.05450        2.67930
C         -4.80220        7.26230        3.36220
C         -3.96340        7.67830        4.39350
C         -4.21470        8.86550        5.05100
C         -5.29070        9.67100        4.69530
C         -5.58040       10.94660        5.42370
C         -6.10740        9.25690        3.64960
C         -5.87570        8.06690        2.98900
C         -4.75710        6.00980        1.28610
C         -5.32920        4.88110        0.70340
C         -5.51450        4.82640       -0.66210
C         -5.14570        5.88940       -1.47980
C         -5.34380        5.80510       -2.96150
C         -4.59170        7.01690       -0.88760
C         -4.39550        7.08260        0.47820
C         -3.11750        4.07520        2.69610
S         -2.46160        3.92760        1.09980
C         -5.32060        5.10720        5.40240
C         -5.70830        4.84780        6.70290
C         -4.99900        4.00940        7.66750
O         -4.00090        3.33230        7.49380
C         -5.72720        4.16230        8.94650
C         -5.45950        3.57980       10.16650
C         -6.29510        3.87950       11.23610
Cl        -5.99620        3.17280       12.77390
C         -7.37410        4.74960       11.06320
Cl        -8.39970        5.11330       12.39350
C         -7.64190        5.33250        9.82810
C         -6.81120        5.03670        8.76140
C         -6.83510        5.46090        7.36050
C         -7.79250        6.27420        6.80060
C         -7.90590        6.59130        5.43410
N         -8.09730        6.87640        4.33620
C         -8.83000        6.88870        7.52910
N         -9.68960        7.43510        8.06040
H          5.57190       -7.57520       -2.80750
H          2.16630       -9.00900       -7.85380
H          4.13730      -12.55600       -4.97550
H          2.50130       -7.45390       -1.52130
H          2.22100       -9.81820       -0.96490
H          0.56900      -12.31520       -3.23240
H          0.59670      -11.91460       -1.50900
H          2.10270      -12.22250       -2.36100
H          0.21370      -10.46920       -4.67260
H          0.48430       -8.09420       -5.23500
H          1.77940       -4.98990       -6.11390
H         -0.14030       -3.88850       -7.20420
H         -3.51820       -4.40690       -6.41330
H         -3.05980       -2.88720       -5.65350
H         -2.43620       -3.29190       -7.25940
H         -2.64440       -5.02060       -3.94050
H         -0.73290       -6.15380       -2.87050
H          4.58290       -0.60260       -4.15370
H          5.21960        1.64690       -4.88470
H          7.02040        4.11210       -2.73970
H          6.81140        3.60420       -4.42150
H          5.44610        4.25900       -3.52200
H          6.63680        2.53730       -0.96210
H          6.00600        0.29690       -0.22330
H          7.55120       -1.56100       -1.37010
H          8.80500       -2.83220        0.31290
H          7.98740       -5.55380        1.79660
H          8.81920       -4.11220        2.37790
H          7.29980       -4.63000        3.12740
H          5.15740       -4.42340        1.84750
H          3.89370       -3.12520        0.18250
H         -0.92180       -2.34260       -1.81440
H         -3.28210       -3.08590       -1.65980
H         -7.58290       -1.83960       -4.14410
H         -6.54130       -0.40840       -3.99000
H         -6.19580       -1.65120       -5.23810
H         -4.32490       -0.32360       -4.75410
H         -2.00380        0.41020       -4.88630
H          1.98080        1.22650       -3.96540
H          3.05820        1.57290       -6.10470
H          4.69890        0.84260       -7.69660
H          4.60060        1.31630       -9.40720
H          3.76670        2.29740       -8.18430
H          0.56560       -1.41860       -7.86630
H         -0.52740       -1.77850       -5.68570
H          0.53270        4.37030        0.34700
H         -0.24540        6.47820        1.25810
H         -0.34850        8.72030        2.00730
H         -1.83940        7.75440        2.26150
H         -1.56350        9.23660        3.20040
H          1.14510        5.32000        5.13450
H          1.94060        3.17540        4.19590
H          2.40440       -0.16330        2.16860
H          4.70490       -0.91270        2.48910
H          8.16280       -1.16990        3.76510
H          6.48260       -0.87460        4.27030
H          6.83230       -1.74730        2.74060
H          6.06290        3.12600        2.13740
H          3.74520        3.87220        1.77440
H         -1.82440       -0.90030        5.13240
H         -1.78950       -0.93880        7.58370
H         -0.10200        1.38960        9.68360
H         -1.28900        0.07610        9.67880
H         -1.82180        1.76080        9.63120
H         -0.28340        3.05020        7.63310
H         -0.30960        3.09040        5.17870
H          0.89030       -0.47650        4.07980
H          1.51900       -2.47700        2.79240
H         -0.54050       -4.00810        0.15750
H          0.89540       -4.20150        1.17370
H          0.94960       -3.15300       -0.24260
H         -1.89600       -1.92960        0.29470
H         -2.52620        0.04600        1.57770
H         -3.11960        7.07000        4.68330
H         -3.55580        9.17210        5.85060
H         -4.75490       11.22120        6.07540
H         -6.47650       10.83140        6.03360
H         -5.76120       11.75810        4.72120
H         -6.95010        9.86550        3.35890
H         -6.53110        7.75020        2.19330
H         -5.63460        4.05650        1.33030
H         -5.95840        3.94580       -1.10260
H         -6.37440        5.54210       -3.19420
H         -4.70020        5.03230       -3.38120
H         -5.10750        6.75070       -3.44210
H         -4.30320        7.85690       -1.50290
H         -3.96380        7.96750        0.92330
H         -5.91570        5.84440        4.87910
H         -4.62590        2.90610       10.28520
H         -8.48490        5.99700        9.73400
