
  xtb     02112214363D
 energy: -397.881276943630 gnorm: 0.000571995081 xtb: 6.4.1 (unknown)
241262  0     0  0            999 V2000
   -6.2481    6.4620   -2.4567 C   0  0  0  0  0  0  0  0  0  0  0  0
   -6.3567    7.2190   -3.6143 C   0  0  0  0  0  0  0  0  0  0  0  0
   -5.8588    6.7771   -4.9167 C   0  0  0  0  0  0  0  0  0  0  0  0
   -5.2733    5.7399   -5.1825 O   0  0  0  0  0  0  0  0  0  0  0  0
   -6.3201    7.7996   -5.8846 C   0  0  0  0  0  0  0  0  0  0  0  0
   -6.1109    7.8610   -7.2445 C   0  0  0  0  0  0  0  0  0  0  0  0
   -6.6195    8.9530   -7.9398 C   0  0  0  0  0  0  0  0  0  0  0  0
   -6.3601    9.0751   -9.6358 Cl  0  0  0  0  0  0  0  0  0  0  0  0
   -7.3308    9.9476   -7.2678 C   0  0  0  0  0  0  0  0  0  0  0  0
   -7.9532   11.2932   -8.1393 Cl  0  0  0  0  0  0  0  0  0  0  0  0
   -7.5487    9.8755   -5.8945 C   0  0  0  0  0  0  0  0  0  0  0  0
   -7.0367    8.7955   -5.2005 C   0  0  0  0  0  0  0  0  0  0  0  0
   -7.0610    8.4548   -3.7779 C   0  0  0  0  0  0  0  0  0  0  0  0
   -7.5298    9.2607   -2.7673 C   0  0  0  0  0  0  0  0  0  0  0  0
   -8.1169   10.5214   -2.9734 C   0  0  0  0  0  0  0  0  0  0  0  0
   -8.5864   11.5649   -3.0802 N   0  0  0  0  0  0  0  0  0  0  0  0
   -7.4032    8.9565   -1.3981 C   0  0  0  0  0  0  0  0  0  0  0  0
   -7.3034    8.7852   -0.2664 N   0  0  0  0  0  0  0  0  0  0  0  0
   -5.2621    5.5187   -2.1992 C   0  0  0  0  0  0  0  0  0  0  0  0
   -3.9629    5.3538   -2.7405 C   0  0  0  0  0  0  0  0  0  0  0  0
   -3.2747    6.2583   -3.4891 N   0  0  0  0  0  0  0  0  0  0  0  0
   -3.5646    7.6314   -3.5008 C   0  0  0  0  0  0  0  0  0  0  0  0
   -3.4998    8.3342   -4.7015 C   0  0  0  0  0  0  0  0  0  0  0  0
   -3.8215    9.6784   -4.7391 C   0  0  0  0  0  0  0  0  0  0  0  0
   -4.2036   10.3563   -3.5897 C   0  0  0  0  0  0  0  0  0  0  0  0
   -4.5990   11.7981   -3.6302 C   0  0  0  0  0  0  0  0  0  0  0  0
   -4.2151    9.6564   -2.3843 C   0  0  0  0  0  0  0  0  0  0  0  0
   -3.9015    8.3151   -2.3333 C   0  0  0  0  0  0  0  0  0  0  0  0
   -2.1671    5.8301   -4.2563 C   0  0  0  0  0  0  0  0  0  0  0  0
   -2.2957    4.7796   -5.1583 C   0  0  0  0  0  0  0  0  0  0  0  0
   -1.2040    4.3726   -5.8986 C   0  0  0  0  0  0  0  0  0  0  0  0
    0.0302    4.9979   -5.7595 C   0  0  0  0  0  0  0  0  0  0  0  0
    1.2164    4.5284   -6.5430 C   0  0  0  0  0  0  0  0  0  0  0  0
    0.1403    6.0583   -4.8675 C   0  0  0  0  0  0  0  0  0  0  0  0
   -0.9444    6.4777   -4.1224 C   0  0  0  0  0  0  0  0  0  0  0  0
   -3.3942    4.1478   -2.2820 C   0  0  0  0  0  0  0  0  0  0  0  0
   -1.8684    3.3799   -2.5509 S   0  0  0  0  0  0  0  0  0  0  0  0
   -2.3032    2.0782   -1.4554 C   0  0  0  0  0  0  0  0  0  0  0  0
   -3.5354    2.2834   -0.8398 C   0  0  0  0  0  0  0  0  0  0  0  0
   -4.0391    1.5121    0.1878 N   0  0  0  0  0  0  0  0  0  0  0  0
   -3.1603    0.8641    1.0751 C   0  0  0  0  0  0  0  0  0  0  0  0
   -1.9897    1.4794    1.5111 C   0  0  0  0  0  0  0  0  0  0  0  0
   -1.1042    0.7963    2.3219 C   0  0  0  0  0  0  0  0  0  0  0  0
   -1.3718   -0.4984    2.7460 C   0  0  0  0  0  0  0  0  0  0  0  0
   -0.4023   -1.2548    3.6000 C   0  0  0  0  0  0  0  0  0  0  0  0
   -2.5770   -1.0783    2.3653 C   0  0  0  0  0  0  0  0  0  0  0  0
   -3.4559   -0.4177    1.5298 C   0  0  0  0  0  0  0  0  0  0  0  0
   -5.4178    1.4856    0.4600 C   0  0  0  0  0  0  0  0  0  0  0  0
   -5.8704    1.4690    1.7782 C   0  0  0  0  0  0  0  0  0  0  0  0
   -7.2226    1.4353    2.0483 C   0  0  0  0  0  0  0  0  0  0  0  0
   -8.1633    1.4248    1.0236 C   0  0  0  0  0  0  0  0  0  0  0  0
   -9.6289    1.4178    1.3311 C   0  0  0  0  0  0  0  0  0  0  0  0
   -7.7049    1.4461   -0.2859 C   0  0  0  0  0  0  0  0  0  0  0  0
   -6.3529    1.4761   -0.5700 C   0  0  0  0  0  0  0  0  0  0  0  0
   -4.1559    3.4486   -1.3514 C   0  0  0  0  0  0  0  0  0  0  0  0
   -5.6319    4.2698   -0.9960 S   0  0  0  0  0  0  0  0  0  0  0  0
   -1.3183    1.0705   -1.2198 C   0  0  0  0  0  0  0  0  0  0  0  0
   -1.4204   -0.3125   -1.1074 C   0  0  0  0  0  0  0  0  0  0  0  0
   -2.4863   -1.0542   -1.5670 N   0  0  0  0  0  0  0  0  0  0  0  0
   -2.4339   -2.4682   -1.5786 C   0  0  0  0  0  0  0  0  0  0  0  0
   -2.3623   -3.2178   -0.4090 C   0  0  0  0  0  0  0  0  0  0  0  0
   -2.2848   -4.5943   -0.4715 C   0  0  0  0  0  0  0  0  0  0  0  0
   -2.3043   -5.2485   -1.7004 C   0  0  0  0  0  0  0  0  0  0  0  0
   -2.1824   -7.0095   -1.6795 S   0  0  0  0  0  0  0  0  0  0  0  0
   -2.3635   -7.4948   -3.4177 C   0  0  0  0  0  0  0  0  0  0  0  0
   -2.4135   -4.5054   -2.8681 C   0  0  0  0  0  0  0  0  0  0  0  0
   -2.4731   -3.1285   -2.8034 C   0  0  0  0  0  0  0  0  0  0  0  0
   -3.4370   -0.5007   -2.4547 C   0  0  0  0  0  0  0  0  0  0  0  0
   -4.7637   -0.9077   -2.3305 C   0  0  0  0  0  0  0  0  0  0  0  0
   -5.7330   -0.3847   -3.1572 C   0  0  0  0  0  0  0  0  0  0  0  0
   -5.4054    0.5798   -4.1109 C   0  0  0  0  0  0  0  0  0  0  0  0
   -6.7444    1.2576   -5.0370 S   0  0  0  0  0  0  0  0  0  0  0  0
   -6.0084    2.6398   -5.9516 C   0  0  0  0  0  0  0  0  0  0  0  0
   -4.0753    0.9399   -4.2795 C   0  0  0  0  0  0  0  0  0  0  0  0
   -3.0989    0.3843   -3.4741 C   0  0  0  0  0  0  0  0  0  0  0  0
   -0.2170   -0.8433   -0.5673 C   0  0  0  0  0  0  0  0  0  0  0  0
    0.2824   -2.3626    0.0934 S   0  0  0  0  0  0  0  0  0  0  0  0
    1.8767   -1.7271    0.5201 C   0  0  0  0  0  0  0  0  0  0  0  0
    2.0437   -0.4330    0.0395 C   0  0  0  0  0  0  0  0  0  0  0  0
    3.2235    0.3046   -0.0708 N   0  0  0  0  0  0  0  0  0  0  0  0
    3.0434    1.6949    0.0801 C   0  0  0  0  0  0  0  0  0  0  0  0
    3.3979    2.6078   -0.9093 C   0  0  0  0  0  0  0  0  0  0  0  0
    3.0849    3.9453   -0.7716 C   0  0  0  0  0  0  0  0  0  0  0  0
    2.4012    4.3909    0.3515 C   0  0  0  0  0  0  0  0  0  0  0  0
    1.8959    6.0702    0.5660 S   0  0  0  0  0  0  0  0  0  0  0  0
    1.7568    6.6646   -1.1466 C   0  0  0  0  0  0  0  0  0  0  0  0
    2.0792    3.4893    1.3617 C   0  0  0  0  0  0  0  0  0  0  0  0
    2.3944    2.1565    1.2251 C   0  0  0  0  0  0  0  0  0  0  0  0
    4.2962   -0.1906   -0.8227 C   0  0  0  0  0  0  0  0  0  0  0  0
    4.1834   -1.3386   -1.6022 C   0  0  0  0  0  0  0  0  0  0  0  0
    5.2525   -1.8074   -2.3438 C   0  0  0  0  0  0  0  0  0  0  0  0
    6.4676   -1.1413   -2.3178 C   0  0  0  0  0  0  0  0  0  0  0  0
    7.9106   -1.6555   -3.1942 S   0  0  0  0  0  0  0  0  0  0  0  0
    7.4429   -3.2637   -3.8959 C   0  0  0  0  0  0  0  0  0  0  0  0
    6.5842    0.0190   -1.5567 C   0  0  0  0  0  0  0  0  0  0  0  0
    5.5178    0.4891   -0.8277 C   0  0  0  0  0  0  0  0  0  0  0  0
    0.8168    0.0738   -0.4626 C   0  0  0  0  0  0  0  0  0  0  0  0
    0.3233    1.6501   -0.9499 S   0  0  0  0  0  0  0  0  0  0  0  0
    2.6824   -2.6084    1.2943 C   0  0  0  0  0  0  0  0  0  0  0  0
    3.9627   -2.5201    1.8284 C   0  0  0  0  0  0  0  0  0  0  0  0
    4.8135   -1.4068    1.8494 N   0  0  0  0  0  0  0  0  0  0  0  0
    6.1541   -1.6782    1.5231 C   0  0  0  0  0  0  0  0  0  0  0  0
    6.4166   -2.6147    0.5224 C   0  0  0  0  0  0  0  0  0  0  0  0
    7.7115   -2.9025    0.1513 C   0  0  0  0  0  0  0  0  0  0  0  0
    8.7905   -2.2647    0.7511 C   0  0  0  0  0  0  0  0  0  0  0  0
   10.1866   -2.5484    0.2913 C   0  0  0  0  0  0  0  0  0  0  0  0
    8.5264   -1.3707    1.7783 C   0  0  0  0  0  0  0  0  0  0  0  0
    7.2328   -1.0903    2.1760 C   0  0  0  0  0  0  0  0  0  0  0  0
    4.4385   -0.3156    2.6464 C   0  0  0  0  0  0  0  0  0  0  0  0
    3.4267   -0.4404    3.5978 C   0  0  0  0  0  0  0  0  0  0  0  0
    3.0607    0.6344    4.3872 C   0  0  0  0  0  0  0  0  0  0  0  0
    3.6875    1.8664    4.2643 C   0  0  0  0  0  0  0  0  0  0  0  0
    3.3074    3.0279    5.1295 C   0  0  0  0  0  0  0  0  0  0  0  0
    4.6954    1.9879    3.3145 C   0  0  0  0  0  0  0  0  0  0  0  0
    5.0651    0.9241    2.5182 C   0  0  0  0  0  0  0  0  0  0  0  0
    4.3249   -3.7176    2.4876 C   0  0  0  0  0  0  0  0  0  0  0  0
    5.7749   -4.2024    3.2812 S   0  0  0  0  0  0  0  0  0  0  0  0
    5.0324   -5.7511    3.7142 C   0  0  0  0  0  0  0  0  0  0  0  0
    3.6580   -5.7917    3.3798 C   0  0  0  0  0  0  0  0  0  0  0  0
    2.7516   -6.6614    3.8991 N   0  0  0  0  0  0  0  0  0  0  0  0
    3.0114   -7.4202    5.0580 C   0  0  0  0  0  0  0  0  0  0  0  0
    2.6395   -8.7618    5.0910 C   0  0  0  0  0  0  0  0  0  0  0  0
    2.9143   -9.5325    6.2049 C   0  0  0  0  0  0  0  0  0  0  0  0
    3.5558   -8.9911    7.3116 C   0  0  0  0  0  0  0  0  0  0  0  0
    3.9092   -9.8430    8.4896 C   0  0  0  0  0  0  0  0  0  0  0  0
    3.8758   -7.6361    7.2892 C   0  0  0  0  0  0  0  0  0  0  0  0
    3.6067   -6.8561    6.1835 C   0  0  0  0  0  0  0  0  0  0  0  0
    1.4486   -6.7930    3.3710 C   0  0  0  0  0  0  0  0  0  0  0  0
    0.3720   -6.7498    4.2539 C   0  0  0  0  0  0  0  0  0  0  0  0
   -0.9083   -6.9618    3.7904 C   0  0  0  0  0  0  0  0  0  0  0  0
   -1.1475   -7.2186    2.4437 C   0  0  0  0  0  0  0  0  0  0  0  0
   -2.5426   -7.5111    1.9836 C   0  0  0  0  0  0  0  0  0  0  0  0
   -0.0697   -7.2304    1.5677 C   0  0  0  0  0  0  0  0  0  0  0  0
    1.2224   -7.0243    2.0203 C   0  0  0  0  0  0  0  0  0  0  0  0
    3.3183   -4.6668    2.5919 C   0  0  0  0  0  0  0  0  0  0  0  0
    1.8979   -4.1247    1.7607 S   0  0  0  0  0  0  0  0  0  0  0  0
    5.8593   -6.7010    4.3118 C   0  0  0  0  0  0  0  0  0  0  0  0
    5.6533   -8.0642    4.3209 C   0  0  0  0  0  0  0  0  0  0  0  0
    4.8326   -8.7959    3.3334 C   0  0  0  0  0  0  0  0  0  0  0  0
    4.2052   -8.3307    2.4004 O   0  0  0  0  0  0  0  0  0  0  0  0
    5.0262  -10.2225    3.6601 C   0  0  0  0  0  0  0  0  0  0  0  0
    4.5786  -11.4730    3.2048 C   0  0  0  0  0  0  0  0  0  0  0  0
    5.0900  -12.4827    3.9664 C   0  0  0  0  0  0  0  0  0  0  0  0
    6.1200  -11.9387    5.2419 S   0  0  0  0  0  0  0  0  0  0  0  0
    5.8757  -10.3167    4.7481 C   0  0  0  0  0  0  0  0  0  0  0  0
    6.2827   -9.0123    5.2032 C   0  0  0  0  0  0  0  0  0  0  0  0
    7.0044   -8.7632    6.3471 C   0  0  0  0  0  0  0  0  0  0  0  0
    7.2818   -7.4829    6.8550 C   0  0  0  0  0  0  0  0  0  0  0  0
    7.5155   -6.4647    7.3338 N   0  0  0  0  0  0  0  0  0  0  0  0
    7.4636   -9.8204    7.1529 C   0  0  0  0  0  0  0  0  0  0  0  0
    7.8240  -10.6813    7.8228 N   0  0  0  0  0  0  0  0  0  0  0  0
   -7.0157    6.5639   -1.6995 H   0  0  0  0  0  0  0  0  0  0  0  0
   -5.5591    7.0883   -7.7560 H   0  0  0  0  0  0  0  0  0  0  0  0
   -8.1090   10.6576   -5.4090 H   0  0  0  0  0  0  0  0  0  0  0  0
   -3.2102    7.8175   -5.6041 H   0  0  0  0  0  0  0  0  0  0  0  0
   -3.7877   10.2023   -5.6831 H   0  0  0  0  0  0  0  0  0  0  0  0
   -4.4331   12.2203   -4.6176 H   0  0  0  0  0  0  0  0  0  0  0  0
   -4.0299   12.3717   -2.9005 H   0  0  0  0  0  0  0  0  0  0  0  0
   -5.6549   11.9078   -3.3822 H   0  0  0  0  0  0  0  0  0  0  0  0
   -4.4818   10.1716   -1.4732 H   0  0  0  0  0  0  0  0  0  0  0  0
   -3.9208    7.7926   -1.3888 H   0  0  0  0  0  0  0  0  0  0  0  0
   -3.2623    4.3189   -5.2853 H   0  0  0  0  0  0  0  0  0  0  0  0
   -1.3107    3.5602   -6.6028 H   0  0  0  0  0  0  0  0  0  0  0  0
    0.9133    4.1471   -7.5153 H   0  0  0  0  0  0  0  0  0  0  0  0
    1.9327    5.3337   -6.6865 H   0  0  0  0  0  0  0  0  0  0  0  0
    1.7172    3.7215   -6.0070 H   0  0  0  0  0  0  0  0  0  0  0  0
    1.0889    6.5631   -4.7533 H   0  0  0  0  0  0  0  0  0  0  0  0
   -0.8515    7.3040   -3.4325 H   0  0  0  0  0  0  0  0  0  0  0  0
   -1.7701    2.4931    1.2099 H   0  0  0  0  0  0  0  0  0  0  0  0
   -0.1915    1.2842    2.6315 H   0  0  0  0  0  0  0  0  0  0  0  0
   -0.7649   -1.3126    4.6265 H   0  0  0  0  0  0  0  0  0  0  0  0
    0.5675   -0.7644    3.6040 H   0  0  0  0  0  0  0  0  0  0  0  0
   -0.2811   -2.2730    3.2320 H   0  0  0  0  0  0  0  0  0  0  0  0
   -2.8214   -2.0689    2.7239 H   0  0  0  0  0  0  0  0  0  0  0  0
   -4.3754   -0.8907    1.2170 H   0  0  0  0  0  0  0  0  0  0  0  0
   -5.1563    1.4876    2.5883 H   0  0  0  0  0  0  0  0  0  0  0  0
   -7.5559    1.4264    3.0760 H   0  0  0  0  0  0  0  0  0  0  0  0
  -10.2012    1.0420    0.4866 H   0  0  0  0  0  0  0  0  0  0  0  0
   -9.8396    0.8035    2.2039 H   0  0  0  0  0  0  0  0  0  0  0  0
   -9.9678    2.4317    1.5457 H   0  0  0  0  0  0  0  0  0  0  0  0
   -8.4115    1.4380   -1.1029 H   0  0  0  0  0  0  0  0  0  0  0  0
   -6.0203    1.4775   -1.5946 H   0  0  0  0  0  0  0  0  0  0  0  0
   -2.3737   -2.7171    0.5447 H   0  0  0  0  0  0  0  0  0  0  0  0
   -2.2019   -5.1715    0.4348 H   0  0  0  0  0  0  0  0  0  0  0  0
   -3.3193   -7.1498   -3.8011 H   0  0  0  0  0  0  0  0  0  0  0  0
   -2.3357   -8.5801   -3.4201 H   0  0  0  0  0  0  0  0  0  0  0  0
   -1.5358   -7.1051   -4.0033 H   0  0  0  0  0  0  0  0  0  0  0  0
   -2.4390   -4.9804   -3.8354 H   0  0  0  0  0  0  0  0  0  0  0  0
   -2.5434   -2.5554   -3.7164 H   0  0  0  0  0  0  0  0  0  0  0  0
   -5.0281   -1.6297   -1.5727 H   0  0  0  0  0  0  0  0  0  0  0  0
   -6.7620   -0.6928   -3.0548 H   0  0  0  0  0  0  0  0  0  0  0  0
   -6.8283    3.0862   -6.5061 H   0  0  0  0  0  0  0  0  0  0  0  0
   -5.2577    2.2747   -6.6463 H   0  0  0  0  0  0  0  0  0  0  0  0
   -5.5986    3.3751   -5.2651 H   0  0  0  0  0  0  0  0  0  0  0  0
   -3.7813    1.6453   -5.0397 H   0  0  0  0  0  0  0  0  0  0  0  0
   -2.0648    0.6367   -3.6531 H   0  0  0  0  0  0  0  0  0  0  0  0
    3.8906    2.2663   -1.8074 H   0  0  0  0  0  0  0  0  0  0  0  0
    3.3597    4.6292   -1.5585 H   0  0  0  0  0  0  0  0  0  0  0  0
    1.1917    7.5900   -1.0924 H   0  0  0  0  0  0  0  0  0  0  0  0
    1.2186    5.9301   -1.7390 H   0  0  0  0  0  0  0  0  0  0  0  0
    2.7407    6.8629   -1.5618 H   0  0  0  0  0  0  0  0  0  0  0  0
    1.5606    3.8420    2.2396 H   0  0  0  0  0  0  0  0  0  0  0  0
    2.1160    1.4469    1.9879 H   0  0  0  0  0  0  0  0  0  0  0  0
    3.2473   -1.8745   -1.6473 H   0  0  0  0  0  0  0  0  0  0  0  0
    5.1154   -2.6965   -2.9385 H   0  0  0  0  0  0  0  0  0  0  0  0
    7.1180   -3.9315   -3.1036 H   0  0  0  0  0  0  0  0  0  0  0  0
    6.6670   -3.1350   -4.6451 H   0  0  0  0  0  0  0  0  0  0  0  0
    8.3423   -3.6531   -4.3627 H   0  0  0  0  0  0  0  0  0  0  0  0
    7.5263    0.5448   -1.5417 H   0  0  0  0  0  0  0  0  0  0  0  0
    5.6249    1.4002   -0.2618 H   0  0  0  0  0  0  0  0  0  0  0  0
    5.5928   -3.1154    0.0361 H   0  0  0  0  0  0  0  0  0  0  0  0
    7.8939   -3.6343   -0.6223 H   0  0  0  0  0  0  0  0  0  0  0  0
   10.3938   -3.6167    0.3324 H   0  0  0  0  0  0  0  0  0  0  0  0
   10.3099   -2.2241   -0.7421 H   0  0  0  0  0  0  0  0  0  0  0  0
   10.9142   -2.0277    0.9082 H   0  0  0  0  0  0  0  0  0  0  0  0
    9.3470   -0.8907    2.2919 H   0  0  0  0  0  0  0  0  0  0  0  0
    7.0669   -0.4276    3.0110 H   0  0  0  0  0  0  0  0  0  0  0  0
    2.9341   -1.3915    3.7385 H   0  0  0  0  0  0  0  0  0  0  0  0
    2.2783    0.5050    5.1225 H   0  0  0  0  0  0  0  0  0  0  0  0
    3.2956    3.9493    4.5504 H   0  0  0  0  0  0  0  0  0  0  0  0
    2.3275    2.8777    5.5765 H   0  0  0  0  0  0  0  0  0  0  0  0
    4.0326    3.1493    5.9347 H   0  0  0  0  0  0  0  0  0  0  0  0
    5.1972    2.9370    3.1924 H   0  0  0  0  0  0  0  0  0  0  0  0
    5.8491    1.0516    1.7912 H   0  0  0  0  0  0  0  0  0  0  0  0
    2.1432   -9.1950    4.2355 H   0  0  0  0  0  0  0  0  0  0  0  0
    2.6352  -10.5763    6.2079 H   0  0  0  0  0  0  0  0  0  0  0  0
    4.9077  -10.2644    8.3608 H   0  0  0  0  0  0  0  0  0  0  0  0
    3.9125   -9.2573    9.4055 H   0  0  0  0  0  0  0  0  0  0  0  0
    3.2100  -10.6689    8.5964 H   0  0  0  0  0  0  0  0  0  0  0  0
    4.3486   -7.1859    8.1496 H   0  0  0  0  0  0  0  0  0  0  0  0
    3.8646   -5.8077    6.1899 H   0  0  0  0  0  0  0  0  0  0  0  0
    0.5506   -6.5628    5.3030 H   0  0  0  0  0  0  0  0  0  0  0  0
   -1.7369   -6.9390    4.4836 H   0  0  0  0  0  0  0  0  0  0  0  0
   -2.5825   -7.6338    0.9052 H   0  0  0  0  0  0  0  0  0  0  0  0
   -2.9005   -8.4291    2.4490 H   0  0  0  0  0  0  0  0  0  0  0  0
   -3.2209   -6.7104    2.2759 H   0  0  0  0  0  0  0  0  0  0  0  0
   -0.2415   -7.4243    0.5193 H   0  0  0  0  0  0  0  0  0  0  0  0
    2.0637   -7.0910    1.3485 H   0  0  0  0  0  0  0  0  0  0  0  0
    6.7619   -6.3163    4.7718 H   0  0  0  0  0  0  0  0  0  0  0  0
    3.9161  -11.6193    2.3717 H   0  0  0  0  0  0  0  0  0  0  0  0
    4.9203  -13.5362    3.8586 H   0  0  0  0  0  0  0  0  0  0  0  0
  1  2  2  0  0  0  0
  2  3  1  0  0  0  0
  3  4  2  0  0  0  0
  3  5  1  0  0  0  0
  5  6  2  0  0  0  0
  6  7  1  0  0  0  0
  7  8  1  0  0  0  0
  7  9  2  0  0  0  0
  9 10  1  0  0  0  0
  9 11  1  0  0  0  0
 11 12  2  0  0  0  0
 12 13  1  0  0  0  0
 13 14  2  0  0  0  0
 14 15  1  0  0  0  0
 15 16  3  0  0  0  0
 14 17  1  0  0  0  0
 17 18  3  0  0  0  0
  1 19  1  0  0  0  0
 19 20  2  0  0  0  0
 20 21  1  0  0  0  0
 21 22  1  0  0  0  0
 22 23  2  0  0  0  0
 23 24  1  0  0  0  0
 24 25  2  0  0  0  0
 25 26  1  0  0  0  0
 25 27  1  0  0  0  0
 27 28  2  0  0  0  0
 21 29  1  0  0  0  0
 29 30  2  0  0  0  0
 30 31  1  0  0  0  0
 31 32  2  0  0  0  0
 32 33  1  0  0  0  0
 32 34  1  0  0  0  0
 34 35  2  0  0  0  0
 20 36  1  0  0  0  0
 36 37  1  0  0  0  0
 37 38  1  0  0  0  0
 38 39  2  0  0  0  0
 39 40  1  0  0  0  0
 40 41  1  0  0  0  0
 41 42  2  0  0  0  0
 42 43  1  0  0  0  0
 43 44  2  0  0  0  0
 44 45  1  0  0  0  0
 44 46  1  0  0  0  0
 46 47  2  0  0  0  0
 40 48  1  0  0  0  0
 48 49  2  0  0  0  0
 49 50  1  0  0  0  0
 50 51  2  0  0  0  0
 51 52  1  0  0  0  0
 51 53  1  0  0  0  0
 53 54  2  0  0  0  0
 39 55  1  0  0  0  0
 55 56  1  0  0  0  0
 38 57  1  0  0  0  0
 57 58  2  0  0  0  0
 58 59  1  0  0  0  0
 59 60  1  0  0  0  0
 60 61  2  0  0  0  0
 61 62  1  0  0  0  0
 62 63  2  0  0  0  0
 63 64  1  0  0  0  0
 64 65  1  0  0  0  0
 63 66  1  0  0  0  0
 66 67  2  0  0  0  0
 59 68  1  0  0  0  0
 68 69  2  0  0  0  0
 69 70  1  0  0  0  0
 70 71  2  0  0  0  0
 71 72  1  0  0  0  0
 72 73  1  0  0  0  0
 71 74  1  0  0  0  0
 74 75  2  0  0  0  0
 58 76  1  0  0  0  0
 76 77  1  0  0  0  0
 77 78  1  0  0  0  0
 78 79  2  0  0  0  0
 79 80  1  0  0  0  0
 80 81  1  0  0  0  0
 81 82  2  0  0  0  0
 82 83  1  0  0  0  0
 83 84  2  0  0  0  0
 84 85  1  0  0  0  0
 85 86  1  0  0  0  0
 84 87  1  0  0  0  0
 87 88  2  0  0  0  0
 80 89  1  0  0  0  0
 89 90  2  0  0  0  0
 90 91  1  0  0  0  0
 91 92  2  0  0  0  0
 92 93  1  0  0  0  0
 93 94  1  0  0  0  0
 92 95  1  0  0  0  0
 95 96  2  0  0  0  0
 79 97  1  0  0  0  0
 97 98  1  0  0  0  0
 78 99  1  0  0  0  0
 99100  2  0  0  0  0
100101  1  0  0  0  0
101102  1  0  0  0  0
102103  2  0  0  0  0
103104  1  0  0  0  0
104105  2  0  0  0  0
105106  1  0  0  0  0
105107  1  0  0  0  0
107108  2  0  0  0  0
101109  1  0  0  0  0
109110  2  0  0  0  0
110111  1  0  0  0  0
111112  2  0  0  0  0
112113  1  0  0  0  0
112114  1  0  0  0  0
114115  2  0  0  0  0
100116  1  0  0  0  0
116117  1  0  0  0  0
117118  1  0  0  0  0
118119  2  0  0  0  0
119120  1  0  0  0  0
120121  1  0  0  0  0
121122  2  0  0  0  0
122123  1  0  0  0  0
123124  2  0  0  0  0
124125  1  0  0  0  0
124126  1  0  0  0  0
126127  2  0  0  0  0
120128  1  0  0  0  0
128129  2  0  0  0  0
129130  1  0  0  0  0
130131  2  0  0  0  0
131132  1  0  0  0  0
131133  1  0  0  0  0
133134  2  0  0  0  0
119135  1  0  0  0  0
135136  1  0  0  0  0
118137  1  0  0  0  0
137138  2  0  0  0  0
138139  1  0  0  0  0
139140  2  0  0  0  0
139141  1  0  0  0  0
141142  1  0  0  0  0
142143  2  0  0  0  0
143144  1  0  0  0  0
144145  1  0  0  0  0
145146  1  0  0  0  0
146147  2  0  0  0  0
147148  1  0  0  0  0
148149  3  0  0  0  0
147150  1  0  0  0  0
150151  3  0  0  0  0
 13  2  1  0  0  0  0
 56 19  1  0  0  0  0
 98 57  1  0  0  0  0
136 99  1  0  0  0  0
146138  1  0  0  0  0
 12  5  1  0  0  0  0
 28 22  1  0  0  0  0
 35 29  1  0  0  0  0
 55 36  2  0  0  0  0
 67 60  1  0  0  0  0
 75 68  1  0  0  0  0
 97 76  2  0  0  0  0
108102  1  0  0  0  0
115109  1  0  0  0  0
135116  2  0  0  0  0
145141  2  0  0  0  0
 47 41  1  0  0  0  0
 54 48  1  0  0  0  0
 88 81  1  0  0  0  0
 96 89  1  0  0  0  0
127121  1  0  0  0  0
134128  1  0  0  0  0
  1152  1  0  0  0  0
  6153  1  0  0  0  0
 11154  1  0  0  0  0
 23155  1  0  0  0  0
 24156  1  0  0  0  0
 26157  1  0  0  0  0
 26158  1  0  0  0  0
 26159  1  0  0  0  0
 27160  1  0  0  0  0
 28161  1  0  0  0  0
 30162  1  0  0  0  0
 31163  1  0  0  0  0
 33164  1  0  0  0  0
 33165  1  0  0  0  0
 33166  1  0  0  0  0
 34167  1  0  0  0  0
 35168  1  0  0  0  0
 42169  1  0  0  0  0
 43170  1  0  0  0  0
 45171  1  0  0  0  0
 45172  1  0  0  0  0
 45173  1  0  0  0  0
 46174  1  0  0  0  0
 47175  1  0  0  0  0
 49176  1  0  0  0  0
 50177  1  0  0  0  0
 52178  1  0  0  0  0
 52179  1  0  0  0  0
 52180  1  0  0  0  0
 53181  1  0  0  0  0
 54182  1  0  0  0  0
 61183  1  0  0  0  0
 62184  1  0  0  0  0
 65185  1  0  0  0  0
 65186  1  0  0  0  0
 65187  1  0  0  0  0
 66188  1  0  0  0  0
 67189  1  0  0  0  0
 69190  1  0  0  0  0
 70191  1  0  0  0  0
 73192  1  0  0  0  0
 73193  1  0  0  0  0
 73194  1  0  0  0  0
 74195  1  0  0  0  0
 75196  1  0  0  0  0
 82197  1  0  0  0  0
 83198  1  0  0  0  0
 86199  1  0  0  0  0
 86200  1  0  0  0  0
 86201  1  0  0  0  0
 87202  1  0  0  0  0
 88203  1  0  0  0  0
 90204  1  0  0  0  0
 91205  1  0  0  0  0
 94206  1  0  0  0  0
 94207  1  0  0  0  0
 94208  1  0  0  0  0
 95209  1  0  0  0  0
 96210  1  0  0  0  0
103211  1  0  0  0  0
104212  1  0  0  0  0
106213  1  0  0  0  0
106214  1  0  0  0  0
106215  1  0  0  0  0
107216  1  0  0  0  0
108217  1  0  0  0  0
110218  1  0  0  0  0
111219  1  0  0  0  0
113220  1  0  0  0  0
113221  1  0  0  0  0
113222  1  0  0  0  0
114223  1  0  0  0  0
115224  1  0  0  0  0
122225  1  0  0  0  0
123226  1  0  0  0  0
125227  1  0  0  0  0
125228  1  0  0  0  0
125229  1  0  0  0  0
126230  1  0  0  0  0
127231  1  0  0  0  0
129232  1  0  0  0  0
130233  1  0  0  0  0
132234  1  0  0  0  0
132235  1  0  0  0  0
132236  1  0  0  0  0
133237  1  0  0  0  0
134238  1  0  0  0  0
137239  1  0  0  0  0
142240  1  0  0  0  0
143241  1  0  0  0  0
M  END
