268

C         -1.83880        8.25790       -8.30910
C         -1.79740        7.71500       -9.56020
C         -1.76350        8.62930      -10.73410
O         -2.00870        9.81210      -10.74270
C         -1.31270        7.78610      -11.86400
C         -1.00880        8.15960      -13.15670
C         -0.57380        7.17980      -14.04140
Cl        -0.18640        7.60540      -15.65920
C         -0.44870        5.85150      -13.61920
Cl         0.10540        4.65550      -14.71930
C         -0.76690        5.47590      -12.31850
C         -1.20410        6.44990      -11.43730
C         -1.64920        6.36120      -10.04810
C         -2.08580        5.21250       -9.43790
C         -2.80690        5.20930       -8.22940
N         -3.44960        5.16200       -7.27920
C         -1.93800        3.91900       -9.97750
N         -1.81760        2.84070      -10.35280
C         -1.49630        7.66800       -7.07190
C         -0.75210        6.53910       -6.82700
C         -0.56450        6.26290       -5.46260
C          0.13570        5.17200       -4.90450
C          0.56070        4.02160       -5.66200
C          1.57960        3.15050       -5.36910
C          1.53070        1.99390       -6.16000
S          2.45940        0.54630       -6.26860
C          1.43100       -0.07220       -7.53730
Si         1.85580       -1.69710       -8.40910
C          3.02950       -2.74230       -7.32120
C          4.46630       -2.23300       -7.25570
C          2.64880       -1.21580      -10.08970
C          3.47920        0.06420      -10.03550
C          0.22510       -2.65060       -8.69670
C          0.39800       -3.86440       -9.60160
C          0.42920        0.80250       -7.84970
C          0.47520        1.96720       -7.06820
S         -0.47020        3.40740       -6.95640
C          0.21820        5.15720       -3.51730
C         -0.42860        6.08550       -2.66570
C         -1.13320        7.17360       -3.22670
C         -1.79620        8.16800       -2.41520
S         -1.08230        8.69340       -0.89480
C         -2.36510        9.82290       -0.64800
C         -2.70050       10.75510        0.34660
C         -3.86080       11.41890        0.06670
Si        -4.74740       12.71690        1.11380
C         -5.96470       11.80540        2.27780
C         -5.29980       10.71390        3.11110
C         -3.43060       13.67210        2.11970
C         -2.43180       14.42580        1.24630
C         -5.69320       13.85910       -0.08960
C         -6.45570       14.97980        0.60870
S         -4.56580       10.88990       -1.44290
C         -3.27880        9.77140       -1.69690
C         -2.95180        8.84750       -2.69860
C         -1.17120        7.23090       -4.62100
S         -1.95890        8.45840       -5.57360
C         -0.43730        5.63650       -1.31290
C          0.15980        4.43040       -1.14170
S          0.91500        3.85340       -2.62080
C          0.10380        3.40660       -0.12990
C         -0.39640        2.16150       -0.47690
N         -1.13080        1.91900       -1.63040
C         -2.07980        2.86960       -2.03970
C         -2.82980        3.55320       -1.08170
C         -3.70800        4.54030       -1.46170
C         -3.87080        4.86550       -2.80720
S         -5.00770        6.16820       -3.14590
C         -5.10140        6.22000       -4.95430
C         -3.15090        4.17040       -3.76990
C         -2.26450        3.18180       -3.38390
C         -0.84560        0.78900       -2.40100
C         -1.85810        0.13210       -3.09490
C         -1.58140       -0.99420       -3.84240
C         -0.28700       -1.49330       -3.89750
S          0.16410       -2.94560       -4.79260
C         -1.43480       -3.71920       -5.17450
C          0.73260       -0.83020       -3.21970
C          0.45890        0.29990       -2.48280
C         -0.10660        1.20290        0.51450
S         -0.35280       -0.49210        0.63800
C          0.47850       -0.52560        2.19250
C          0.85590        0.74620        2.61350
N          1.50200        1.08790        3.79140
C          2.49800        2.07910        3.68670
C          2.52520        3.17600        4.54120
C          3.49310        4.15140        4.40220
C          4.44500        4.05040        3.39610
S          5.71960        5.23500        3.11170
C          5.42850        6.50770        4.37280
C          4.41880        2.95310        2.53660
C          3.45970        1.97700        2.68120
C          1.04590        0.67690        5.04270
C          1.91690        0.67390        6.13520
C          1.47570        0.27870        7.37670
C          0.16590       -0.15840        7.55880
S         -0.29930       -0.65500        9.18920
C         -1.71370       -1.75380        8.89390
C         -0.70530       -0.15830        6.47790
C         -0.27260        0.26520        5.23620
C          0.55260        1.71550        1.61940
S          0.82500        3.42590        1.46130
C          0.70020       -1.83860        2.70380
C          0.99380       -2.33880        3.94130
C          1.03730       -3.75350        3.98430
C          1.22390       -4.57060        5.11500
C          1.51530       -4.01380        6.42250
C          2.47160       -3.09000        6.74300
C          2.52650       -2.85590        8.12740
S          3.51220       -1.90400        9.17560
C          2.64550       -2.47470       10.58280
Si         3.10860       -1.84130       12.29910
C          4.98690       -1.47950       12.26090
C          5.52770       -0.92540       13.57520
C          2.09960       -0.25830       12.67030
C          2.29250        0.83650       11.62680
C          2.67500       -3.19570       13.57580
C          3.41890       -4.50660       13.34450
C          1.65860       -3.35320       10.24480
C          1.59200       -3.57960        8.86060
S          0.63200       -4.57920        7.82970
C          1.11440       -5.94390        4.92250
C          0.91750       -6.53120        3.64260
C          0.81380       -5.71310        2.48620
C          0.76800       -6.27800        1.15990
S         -0.12980       -5.49100       -0.13090
C          0.41170       -6.67390       -1.26720
C          0.23340       -6.89210       -2.64210
C          0.91300       -7.98890       -3.09110
Si         0.96320       -8.69570       -4.84410
C         -0.29610      -10.13630       -4.90160
C         -0.41170      -10.78830       -6.27580
C          0.45320       -7.30990       -6.05890
C          1.41170       -6.12350       -6.07150
C          2.73770       -9.28530       -5.25150
C          3.12710      -10.59850       -4.57910
S          1.78660       -8.78010       -1.79970
C          1.23530       -7.61470       -0.65350
C          1.43660       -7.39260        0.71500
C          0.80710       -4.34400        2.71440
S          0.54970       -3.12100        1.50830
C          0.80020       -7.92190        3.73670
C          0.94200       -8.42110        5.02330
S          1.22950       -7.13940        6.18090
C          0.83010       -9.79580        5.29440
C          0.92910      -10.48550        6.47520
C          1.20800       -9.90570        7.79780
O          1.42540       -8.74500        8.07960
C          1.18210      -11.03900        8.74800
C          1.37460      -11.01090       10.11380
C          1.30080      -12.20950       10.81300
Cl         1.52790      -12.24820       12.51750
C          1.03820      -13.39140       10.11690
F          0.96770      -14.54290       10.79600
C          0.84560      -13.42550        8.74440
C          0.91850      -12.22860        8.04850
C          0.76590      -11.91870        6.62790
C          0.51700      -12.84300        5.64520
C          0.37720      -12.57460        4.26760
N          0.25040      -12.45280        3.13200
C          0.36820      -14.22590        5.88340
N          0.23410      -15.35940        6.00530
H         -2.09940        9.31120       -8.27830
H         -1.10820        9.18640      -13.47110
H         -0.65780        4.44470      -12.02410
H         -0.29020        5.96360       -7.60820
H          2.35580        3.35170       -4.65440
H          3.04400       -3.76630       -7.69720
H          2.62650       -2.79610       -6.30890
H          5.06780       -2.87230       -6.61190
H          4.49870       -1.22330       -6.85450
H          4.91950       -2.22560       -8.24380
H          3.27910       -2.03290      -10.44320
H          1.86410       -1.08690      -10.83710
H          4.28240       -0.02300       -9.30870
H          2.85680        0.90900       -9.74970
H          3.91940        0.27890      -11.00760
H         -0.17350       -2.97850       -7.73770
H         -0.52150       -1.98840       -9.13490
H          0.76070       -3.56350      -10.58090
H          1.11400       -4.56310       -9.17640
H         -0.54760       -4.38750       -9.73550
H         -0.30640        0.61910       -8.61060
H         -2.11640       10.93420        1.23010
H         -6.44140       12.52060        2.94880
H         -6.76300       11.35710        1.68440
H         -4.53560       11.13640        3.75860
H         -4.82870        9.97570        2.46640
H         -6.03130       10.20500        3.73600
H         -3.92600       14.38010        2.78500
H         -2.88540       12.98090        2.76330
H         -2.93890       15.17280        0.64130
H         -1.68740       14.93240        1.85800
H         -1.91640       13.74110        0.57700
H         -4.99500       14.29630       -0.80460
H         -6.39400       13.26330       -0.67620
H         -5.77620       15.61340        1.17330
H         -6.97740       15.60260       -0.11580
H         -7.19140       14.57190        1.29730
H         -3.56930        8.66240       -3.55600
H         -0.96140        6.13830       -0.52110
H         -2.71190        3.30930       -0.03650
H         -4.28330        5.07420       -0.72080
H         -4.13900        6.49080       -5.37560
H         -5.42750        5.25830       -5.33670
H         -5.83780        6.98260       -5.18920
H         -3.25520        4.39460       -4.81970
H         -1.69510        2.65510       -4.13570
H         -2.86990        0.50550       -3.04200
H         -2.38830       -1.47650       -4.36990
H         -1.19670       -4.68290       -5.61340
H         -2.00180       -3.85510       -4.25800
H         -1.98580       -3.11750       -5.89200
H          1.74070       -1.20980       -3.28190
H          1.25660        0.81700       -1.97090
H          1.77800        3.27020        5.31490
H          3.48330        4.99000        5.07910
H          4.44790        6.95260        4.23140
H          5.53130        6.07920        5.36550
H          6.19880        7.25590        4.21380
H          5.16240        2.87800        1.75830
H          3.44510        1.12690        2.01500
H          2.94430        0.97640        6.00220
H          2.15120        0.29210        8.21700
H         -2.59830       -1.17700        8.63930
H         -1.87700       -2.28080        9.82860
H         -1.46270       -2.46180        8.10980
H         -1.73010       -0.47290        6.59300
H         -0.96350        0.27400        4.40690
H          1.13010       -1.73840        4.81870
H          3.13120       -2.64070        6.02330
H          5.53160       -2.39110       12.00970
H          5.20150       -0.77040       11.45960
H          6.59770       -0.73710       13.50500
H          5.35980       -1.62950       14.38640
H          5.03490        0.00950       13.83000
H          2.37550        0.12930       13.65180
H          1.03840       -0.50490       12.72190
H          1.72480        1.72670       11.89100
H          3.34070        1.11210       11.54130
H          1.94530        0.49280       10.65610
H          1.60180       -3.38760       13.55500
H          2.89830       -2.83280       14.57930
H          3.20860       -4.89560       12.35120
H          4.49230       -4.35840       13.42980
H          3.12090       -5.25590       14.07600
H          1.01280       -3.81950       10.96500
H         -0.36120       -6.26480       -3.27890
H         -1.28060       -9.77630       -4.59770
H         -0.00990      -10.89380       -4.17100
H         -0.75250      -10.06740       -7.01460
H          0.54970      -11.17770       -6.60080
H         -1.12200      -11.61280       -6.25310
H          0.39160       -7.72140       -7.06660
H         -0.55130       -6.96310       -5.81250
H          2.40500       -6.44200       -6.37620
H          1.48850       -5.67550       -5.08440
H          1.07420       -5.35490       -6.76440
H          2.84020       -9.40010       -6.33220
H          3.45270       -8.51610       -4.95460
H          4.14760      -10.87470       -4.83890
H          2.46800      -11.40410       -4.89140
H          3.06470      -10.50950       -3.49750
H          2.08920       -7.98420        1.32970
H          0.57730       -8.56370        2.90300
H          0.62530      -10.38190        4.40660
H          1.57590      -10.08080       10.62090
H          0.64670      -14.37340        8.27210
