192

C          2.52970       -3.04220       -6.27180
C          2.86060       -2.54370       -7.51630
C          2.99790       -1.13210       -7.87350
O          2.95670       -0.16640       -7.12870
C          3.23670       -1.09900       -9.32880
C          3.39440       -0.01720      -10.17830
Cl         3.32770        1.59410       -9.58690
C          3.60100       -0.25630      -11.53580
C          3.64600       -1.55360      -12.01220
C          3.48810       -2.64820      -11.16830
C          3.28170       -2.41740       -9.82010
C          3.09250       -3.33880       -8.69580
C          3.15680       -4.70930       -8.78510
C          3.09860       -5.60760       -7.70270
N          3.09750       -6.40910       -6.87790
C          3.33810       -5.41930       -9.98900
N          3.47030       -6.06420      -10.93020
C          2.22620       -2.38380       -5.08460
C          1.93900       -3.06620       -3.87460
N          1.77160       -4.42690       -3.73390
C          0.91850       -5.12560       -4.60920
C          1.13030       -6.47990       -4.86690
C          0.25860       -7.17070       -5.67930
C         -0.83220       -6.52620       -6.26100
S         -1.89740       -7.51910       -7.25580
C         -3.06680       -6.32730       -7.96970
C         -1.03970       -5.17500       -6.01220
C         -0.17430       -4.48500       -5.18740
C          2.10090       -4.99030       -2.49010
C          1.26220       -5.90000       -1.85400
C          1.55630       -6.36780       -0.58860
C          2.70020       -5.93310        0.06750
S          3.13900       -6.40650        1.70680
C          1.75010       -7.43290        2.26090
C          3.57350       -5.06690       -0.58840
C          3.28240       -4.60570       -1.85150
C          1.77460       -2.16560       -2.81670
S          1.38040       -2.36840       -1.14830
C          1.16070       -0.63230       -0.97130
C          1.41110        0.05720       -2.16040
N          1.27470        1.42430       -2.36460
C          0.17370        2.12130       -1.85690
C         -1.04720        1.47390       -1.66180
C         -2.08180        2.11930       -1.02380
C         -1.93260        3.43410       -0.58540
S         -3.29690        4.12070        0.30100
C         -2.74090        5.78440        0.76180
C         -0.74950        4.10940       -0.85240
C          0.29430        3.45790       -1.47830
C          2.16480        2.03120       -3.26120
C          3.49990        1.63030       -3.27910
C          4.36710        2.12660       -4.22940
C          3.91450        3.04180       -5.16870
S          4.97260        3.62620       -6.46200
C          5.72570        2.05250       -6.98300
C          2.60440        3.50020       -5.11030
C          1.73290        2.99590       -4.16960
C          1.78930       -0.82940       -3.19390
S          2.18260       -0.62790       -4.86600
C          0.84590       -0.12440        0.31300
C          0.31840       -0.80720        1.40840
N         -0.14700       -2.11920        1.41910
C          0.33320       -2.96390        2.43130
C          1.66890       -2.89330        2.81500
C          2.17160       -3.73760        3.78470
C          1.34270       -4.67650        4.38190
S          1.88570       -5.83990        5.59380
C          3.69520       -5.70540        5.53580
C         -0.00300       -4.73160        4.02120
C         -0.50600       -3.88220        3.06150
C         -1.00470       -2.59010        0.42660
C         -0.99580       -3.93330        0.05030
C         -1.75390       -4.37610       -1.01370
C         -2.53160       -3.48290       -1.73660
S         -3.44660       -3.91980       -3.18370
C         -3.27640       -5.72390       -3.28720
C         -2.58950       -2.15070       -1.33110
C         -1.84800       -1.71180       -0.25700
C          0.27470        0.02220        2.55140
S         -0.35040       -0.17170        4.14930
C         -0.01080        1.51310        4.50690
C          0.52410        2.19590        3.41940
N          0.70770        3.56910        3.34450
C          1.61400        4.09140        2.41410
C          1.30290        5.24000        1.68410
C          2.14090        5.67990        0.68670
C          3.31260        4.98650        0.38790
S          4.25100        5.57340       -0.98750
C          5.33910        4.17620       -1.37970
C          3.67290        3.89830        1.16980
C          2.83380        3.46050        2.17710
C         -0.21000        4.43020        3.97540
C          0.24560        5.58390        4.61210
C         -0.63640        6.39550        5.29190
C         -1.98880        6.07100        5.35100
S         -3.03750        7.12660        6.30660
C         -4.66220        6.86360        5.54200
C         -2.45390        4.94310        4.68750
C         -1.57120        4.13720        3.99810
C          0.71770        1.31720        2.32920
S          1.26680        1.53490        0.71040
C         -0.36920        2.10650        5.77050
C         -1.57780        1.82700        6.42190
F         -2.35240        0.82490        5.96370
C         -2.04630        2.58610        7.46700
C         -1.27910        3.65310        7.94650
C          0.01830        3.81680        7.43400
C          0.44880        3.08230        6.35890
C         -1.72750        4.60000        8.92670
C         -2.98260        5.07180        9.15480
C         -4.18820        4.85700        8.31110
O         -4.30650        4.15090        7.33350
C         -5.22410        5.75370        8.86620
C         -6.53950        5.93690        8.46930
Cl        -7.22800        5.01190        7.19250
C         -7.32140        6.87460        9.13810
C         -6.78490        7.60950       10.18090
C         -5.47480        7.42280       10.60280
C         -4.69580        6.48370        9.94690
C         -3.32090        6.04980       10.17730
C         -2.53290        6.45040       11.22220
C         -1.23270        5.97800       11.50670
N         -0.18180        5.64580       11.82920
C         -2.92450        7.38770       12.20310
N         -3.17140        8.13870       13.03520
H          2.48770       -4.12140       -6.19160
H          3.72340        0.57890      -12.20680
H          3.80630       -1.72250      -13.06610
H          3.52590       -3.64590      -11.57230
H          1.97820       -6.98180       -4.42920
H          0.42020       -8.21740       -5.88250
H         -2.52600       -5.57020       -8.52970
H         -3.67650       -5.88070       -7.18940
H         -3.69530       -6.90390       -8.64120
H         -1.88230       -4.64960       -6.43100
H         -0.36210       -3.44260       -4.97640
H          0.36100       -6.23040       -2.34680
H          0.87630       -7.06200       -0.12150
H          1.97170       -7.70130        3.28930
H          0.83080       -6.85510        2.22820
H          1.68410       -8.32990        1.65220
H          4.47940       -4.75830       -0.09010
H          3.96270       -3.93330       -2.35250
H         -1.17070        0.45620       -2.00070
H         -3.02000        1.61280       -0.85290
H         -2.52040        6.36640       -0.12810
H         -3.57380        6.23150        1.29580
H         -1.87890        5.71770        1.41940
H         -0.61350        5.13650       -0.55780
H          1.22510        3.97910       -1.64110
H          3.84970        0.91010       -2.55260
H          5.39360        1.79400       -4.24000
H          6.55660        1.79230       -6.33330
H          6.08600        2.20560       -7.99540
H          4.95820        1.28430       -6.96540
H          2.26700        4.22710       -5.83240
H          0.70230        3.31720       -4.15910
H          2.32330       -2.18170        2.33310
H          3.21280       -3.66360        4.05130
H          4.01300       -4.75050        5.94420
H          4.03680       -5.83480        4.51260
H          4.06880       -6.51210        6.15890
H         -0.64690       -5.44880        4.50740
H         -1.55000       -3.92540        2.78990
H         -0.35150       -4.62760        0.56670
H         -1.70950       -5.41860       -1.28220
H         -3.62880       -6.18110       -2.36750
H         -2.24540       -5.99320       -3.49990
H         -3.90980       -6.03150       -4.11340
H         -3.22350       -1.46430       -1.87220
H         -1.90430       -0.67960        0.05370
H          0.38750        5.77300        1.89290
H          1.88790        6.55340        0.10540
H          6.12910        4.09140       -0.63880
H          4.74890        3.26680       -1.44170
H          5.76710        4.40330       -2.35120
H          4.60210        3.37820        1.00210
H          3.12320        2.61330        2.78120
H          1.29590        5.83230        4.57590
H         -0.28470        7.28210        5.79640
H         -5.32470        7.60080        5.98520
H         -5.01830        5.86240        5.76230
H         -4.58300        7.02560        4.47130
H         -3.49550        4.67130        4.71480
H         -1.94260        3.26560        3.47980
H         -3.00790        2.34970        7.88880
H          0.65960        4.57600        7.85570
H          1.43080        3.25240        5.94540
H         -0.92470        5.05240        9.49640
H         -8.34650        7.02050        8.83620
H         -7.40180        8.33870       10.68340
H         -5.08730        8.00490       11.42180
