210

C         -0.45390        6.95360        5.94000
C         -0.21670        6.57330        7.23270
C          0.54970        5.39540        7.66040
O          1.00020        4.51600        6.95020
C          0.67910        5.50970        9.12480
C          1.34860        4.69400       10.02240
Cl         2.17840        3.28950        9.49020
C          1.34030        5.03500       11.37350
C          0.67330        6.16970       11.79930
C         -0.00660        6.99430       10.90980
C         -0.00440        6.66010        9.56680
C         -0.62140        7.31060        8.41030
C         -1.48890        8.36950        8.46080
C         -2.18480        8.93020        7.36820
N         -2.83190        9.44520        6.57110
C         -1.86290        9.02870        9.65110
N         -2.20790        9.61210       10.57780
C         -0.21970        6.26690        4.73810
S          0.32530        4.61150        4.59720
C         -0.05610        4.58720        2.90960
C         -0.49530        5.82950        2.45200
C         -0.78180        6.13510        1.04370
O         -0.45610        5.40220        0.12430
C         -1.48570        7.40570        0.86200
C         -2.10090        7.80670       -0.29610
C         -2.26150        7.07530       -1.58030
C         -3.73370        6.83260       -1.91570
S         -2.80320        9.38220       -0.10320
C         -2.23990        9.51720        1.52670
C         -2.53680       10.74480        2.31020
C         -3.64250       10.50260        3.34140
C         -1.58000        8.37680        1.91250
C         -1.00250        8.16950        3.24030
O         -0.89150        9.06190        4.06530
C         -0.57500        6.78160        3.48250
C         -0.03510        3.37750        2.15980
C         -1.03890        2.92430        1.30510
N         -2.29390        3.49050        1.21710
C         -3.05030        3.39140        0.04490
C         -4.43450        3.26100        0.11970
C         -5.19780        3.17010       -1.02710
C         -4.58600        3.19710       -2.27290
S         -5.45940        3.10760       -3.80280
C         -7.20280        2.97630       -3.31120
C         -3.20020        3.32110       -2.35200
C         -2.43860        3.42180       -1.20930
C         -2.83400        4.10740        2.36000
C         -2.66050        3.52000        3.61540
C         -3.08740        4.16520        4.75140
C         -3.70610        5.41240        4.66830
S         -4.12610        6.16890        6.20470
C         -5.21570        7.53980        5.73560
C         -3.93640        5.97360        3.41950
C         -3.51140        5.31980        2.27670
C         -0.64360        1.72450        0.67450
S         -1.32970        0.68250       -0.51540
C          0.04410       -0.43320       -0.40820
C          0.94260       -0.02600        0.57070
N          2.10210       -0.66320        1.03650
C          3.25240        0.13730        0.96010
C          4.22110        0.20360        1.95820
C          5.36080        0.96440        1.78500
C          5.53770        1.71360        0.63050
S          6.97730        2.68560        0.30870
C          8.25100        1.83760        1.28550
C          4.52420        1.73660       -0.32190
C          3.40660        0.95070       -0.16650
C          1.97620       -1.80150        1.83500
C          3.08800       -2.55180        2.22660
C          2.93320       -3.71630        2.94340
C          1.67010       -4.17210        3.30910
S          1.61190       -5.71200        4.16730
C         -0.15620       -6.00080        4.44490
C          0.56390       -3.40600        2.97530
C          0.71890       -2.23860        2.25180
C          0.56560        1.22110        1.12570
S          1.28870        2.23880        2.32060
C         -0.01440       -1.49770       -1.35610
C          0.65590       -2.70120       -1.54050
N          1.75100       -3.23130       -0.83990
C          3.02650       -2.71270       -1.05320
C          4.13290       -3.19970       -0.35070
C          5.37340       -2.62530       -0.50790
C          5.56220       -1.55520       -1.37720
S          7.18820       -0.86870       -1.43140
C          7.09170        0.41320       -2.70960
C          4.48390       -1.09820       -2.11840
C          3.23690       -1.67290       -1.95810
C          1.50880       -4.54270       -0.38310
C          2.37640       -5.60950       -0.59330
C          2.06960       -6.87250       -0.12540
C          0.86970       -7.10410        0.53100
S          0.37380       -8.66300        1.18520
C          1.83170       -9.71520        0.95470
C         -0.03380       -6.05490        0.68060
C          0.28340       -4.79280        0.23880
C          0.08250       -3.45950       -2.59090
S          0.34730       -5.07270       -3.14420
C         -0.89500       -4.86070       -4.38530
C         -1.51270       -3.58470       -4.30380
N         -2.52830       -3.11270       -5.09630
C         -2.55090       -1.73220       -5.37050
C         -3.73960       -1.00570       -5.31590
C         -3.73090        0.34990       -5.55430
C         -2.53850        1.01060       -5.84920
S         -2.64450        2.74730       -6.12060
C         -0.90810        3.28230       -6.18980
C         -1.35710        0.28500       -5.92990
C         -1.36730       -1.07470       -5.69490
C         -3.55940       -3.93210       -5.58170
C         -4.06020       -4.97830       -4.80300
C         -4.99820       -5.83810       -5.32500
C         -5.47670       -5.65820       -6.62310
S         -6.60890       -6.86410       -7.23510
C         -6.47220       -6.67460       -9.03560
C         -5.04870       -4.56490       -7.36330
C         -4.08830       -3.71470       -6.85050
C         -0.94430       -2.82400       -3.27120
S         -1.26400       -1.26560       -2.59080
C         -1.20550       -5.80750       -5.35760
C         -0.85980       -7.13930       -5.45290
C         -0.07920       -7.90090       -4.47580
O          0.56690       -7.47040       -3.53750
C         -0.22830       -9.31940       -4.85950
C          0.26720      -10.46010       -4.25420
Cl         1.21930      -10.35730       -2.83350
C         -0.02030      -11.70200       -4.81640
C         -0.78910      -11.77930       -5.96350
C         -1.29250      -10.64070       -6.58410
C         -1.01090       -9.40660       -6.02620
C         -1.37710       -8.05060       -6.44030
C         -2.07940       -7.73530       -7.57930
C         -2.29390       -6.43490       -8.07100
N         -2.48590       -5.41830       -8.57430
C         -2.66120       -8.67760       -8.44970
N         -3.18790       -9.37360       -9.19670
H         -0.91090        7.92540        5.79150
H          1.85970        4.40730       12.07980
H          0.68050        6.42200       12.84860
H         -0.51390        7.87280       11.27200
H         -1.73400        6.12440       -1.50540
H         -1.80550        7.66010       -2.38400
H         -3.81570        6.29980       -2.85910
H         -4.20640        6.22750       -1.14450
H         -4.26970        7.77620       -1.99790
H         -1.63290       11.04970        2.84180
H         -2.83620       11.54140        1.62620
H         -3.91620       11.44210        3.81270
H         -4.52610       10.07860        2.86740
H         -3.28250        9.83130        4.11530
H         -4.91670        3.22750        1.08570
H         -6.26690        3.07190       -0.93080
H         -7.50060        3.85790       -2.75130
H         -7.36150        2.06890       -2.73590
H         -7.76250        2.92570       -4.24010
H         -2.73580        3.35040       -3.32510
H         -1.37080        3.56080       -1.27240
H         -2.17660        2.55790        3.69380
H         -2.94110        3.71600        5.72150
H         -4.63740        8.33140        5.26940
H         -5.64060        7.90520        6.66540
H         -6.00320        7.17170        5.08500
H         -4.42570        6.92950        3.32300
H         -3.68720        5.76510        1.30900
H          4.07740       -0.31640        2.89180
H          6.09860        0.98220        2.57120
H          8.18460        0.76970        1.09970
H          8.13590        2.06650        2.34100
H          9.20250        2.22030        0.93010
H          4.62730        2.37100       -1.18970
H          2.64110        0.95870       -0.92720
H          4.07800       -2.23860        1.94540
H          3.79970       -4.29630        3.22330
H         -0.67220       -6.05170        3.49160
H         -0.21960       -6.96070        4.94770
H         -0.56540       -5.22130        5.08120
H         -0.42950       -3.70480        3.26890
H         -0.16080       -1.66200        2.00640
H          4.01580       -4.01810        0.33870
H          6.21660       -2.99960        0.05330
H          8.09240        0.82720       -2.78450
H          6.39740        1.18840       -2.40150
H          6.80250       -0.03180       -3.65720
H          4.59630       -0.29210       -2.82540
H          2.41340       -1.29920       -2.54850
H          3.28470       -5.46760       -1.15740
H          2.76710       -7.67320       -0.30830
H          2.68460       -9.27270        1.46100
H          2.02590       -9.85490       -0.10460
H          1.58220      -10.66810        1.41110
H         -0.99150       -6.24800        1.14120
H         -0.42400       -3.98660        0.36100
H         -4.66250       -1.51040       -5.07300
H         -4.64300        0.92260       -5.49860
H         -0.42850        2.89490       -7.08390
H         -0.38800        2.96370       -5.29130
H         -0.93990        4.36660       -6.23350
H         -0.42440        0.76190       -6.18320
H         -0.44830       -1.63790       -5.76880
H         -3.68410       -5.12820       -3.80190
H         -5.36850       -6.66490       -4.73860
H         -6.93090       -7.56180       -9.46060
H         -7.00770       -5.78900       -9.36550
H         -5.42370       -6.62980       -9.31440
H         -5.42980       -4.38150       -8.35390
H         -3.72580       -2.89350       -7.44870
H         -1.86790       -5.44350       -6.13240
H          0.36100      -12.59640       -4.34970
H         -1.00420      -12.74800       -6.38810
H         -1.88940      -10.73380       -7.47620
