
  xtb     02172217343D
 energy: -332.522300045417 gnorm: 0.000299595656 xtb: 6.4.1 (unknown)
192208  0     0  0            999 V2000
    2.5297   -3.0422   -6.2718 C   0  0  0  0  0  0  0  0  0  0  0  0
    2.8606   -2.5437   -7.5163 C   0  0  0  0  0  0  0  0  0  0  0  0
    2.9979   -1.1321   -7.8735 C   0  0  0  0  0  0  0  0  0  0  0  0
    2.9567   -0.1664   -7.1287 O   0  0  0  0  0  0  0  0  0  0  0  0
    3.2367   -1.0990   -9.3288 C   0  0  0  0  0  0  0  0  0  0  0  0
    3.3944   -0.0172  -10.1783 C   0  0  0  0  0  0  0  0  0  0  0  0
    3.3277    1.5941   -9.5869 Cl  0  0  0  0  0  0  0  0  0  0  0  0
    3.6010   -0.2563  -11.5358 C   0  0  0  0  0  0  0  0  0  0  0  0
    3.6460   -1.5536  -12.0122 C   0  0  0  0  0  0  0  0  0  0  0  0
    3.4881   -2.6482  -11.1683 C   0  0  0  0  0  0  0  0  0  0  0  0
    3.2817   -2.4174   -9.8201 C   0  0  0  0  0  0  0  0  0  0  0  0
    3.0925   -3.3388   -8.6958 C   0  0  0  0  0  0  0  0  0  0  0  0
    3.1568   -4.7093   -8.7851 C   0  0  0  0  0  0  0  0  0  0  0  0
    3.0986   -5.6076   -7.7027 C   0  0  0  0  0  0  0  0  0  0  0  0
    3.0975   -6.4091   -6.8779 N   0  0  0  0  0  0  0  0  0  0  0  0
    3.3381   -5.4193   -9.9890 C   0  0  0  0  0  0  0  0  0  0  0  0
    3.4703   -6.0642  -10.9302 N   0  0  0  0  0  0  0  0  0  0  0  0
    2.2262   -2.3838   -5.0846 C   0  0  0  0  0  0  0  0  0  0  0  0
    1.9390   -3.0662   -3.8746 C   0  0  0  0  0  0  0  0  0  0  0  0
    1.7716   -4.4269   -3.7339 N   0  0  0  0  0  0  0  0  0  0  0  0
    0.9185   -5.1256   -4.6092 C   0  0  0  0  0  0  0  0  0  0  0  0
    1.1303   -6.4799   -4.8669 C   0  0  0  0  0  0  0  0  0  0  0  0
    0.2586   -7.1707   -5.6793 C   0  0  0  0  0  0  0  0  0  0  0  0
   -0.8322   -6.5262   -6.2610 C   0  0  0  0  0  0  0  0  0  0  0  0
   -1.8974   -7.5191   -7.2558 S   0  0  0  0  0  0  0  0  0  0  0  0
   -3.0668   -6.3273   -7.9697 C   0  0  0  0  0  0  0  0  0  0  0  0
   -1.0397   -5.1750   -6.0122 C   0  0  0  0  0  0  0  0  0  0  0  0
   -0.1743   -4.4850   -5.1874 C   0  0  0  0  0  0  0  0  0  0  0  0
    2.1009   -4.9903   -2.4901 C   0  0  0  0  0  0  0  0  0  0  0  0
    1.2622   -5.9000   -1.8540 C   0  0  0  0  0  0  0  0  0  0  0  0
    1.5563   -6.3678   -0.5886 C   0  0  0  0  0  0  0  0  0  0  0  0
    2.7002   -5.9331    0.0675 C   0  0  0  0  0  0  0  0  0  0  0  0
    3.1390   -6.4065    1.7068 S   0  0  0  0  0  0  0  0  0  0  0  0
    1.7501   -7.4329    2.2609 C   0  0  0  0  0  0  0  0  0  0  0  0
    3.5735   -5.0669   -0.5884 C   0  0  0  0  0  0  0  0  0  0  0  0
    3.2824   -4.6057   -1.8515 C   0  0  0  0  0  0  0  0  0  0  0  0
    1.7746   -2.1656   -2.8167 C   0  0  0  0  0  0  0  0  0  0  0  0
    1.3804   -2.3684   -1.1483 S   0  0  0  0  0  0  0  0  0  0  0  0
    1.1607   -0.6323   -0.9713 C   0  0  0  0  0  0  0  0  0  0  0  0
    1.4111    0.0572   -2.1604 C   0  0  0  0  0  0  0  0  0  0  0  0
    1.2747    1.4243   -2.3646 N   0  0  0  0  0  0  0  0  0  0  0  0
    0.1737    2.1213   -1.8569 C   0  0  0  0  0  0  0  0  0  0  0  0
   -1.0472    1.4739   -1.6618 C   0  0  0  0  0  0  0  0  0  0  0  0
   -2.0818    2.1193   -1.0238 C   0  0  0  0  0  0  0  0  0  0  0  0
   -1.9326    3.4341   -0.5854 C   0  0  0  0  0  0  0  0  0  0  0  0
   -3.2969    4.1207    0.3010 S   0  0  0  0  0  0  0  0  0  0  0  0
   -2.7409    5.7844    0.7618 C   0  0  0  0  0  0  0  0  0  0  0  0
   -0.7495    4.1094   -0.8524 C   0  0  0  0  0  0  0  0  0  0  0  0
    0.2943    3.4579   -1.4783 C   0  0  0  0  0  0  0  0  0  0  0  0
    2.1648    2.0312   -3.2612 C   0  0  0  0  0  0  0  0  0  0  0  0
    3.4999    1.6303   -3.2791 C   0  0  0  0  0  0  0  0  0  0  0  0
    4.3671    2.1266   -4.2294 C   0  0  0  0  0  0  0  0  0  0  0  0
    3.9145    3.0418   -5.1687 C   0  0  0  0  0  0  0  0  0  0  0  0
    4.9726    3.6262   -6.4620 S   0  0  0  0  0  0  0  0  0  0  0  0
    5.7257    2.0525   -6.9830 C   0  0  0  0  0  0  0  0  0  0  0  0
    2.6044    3.5002   -5.1103 C   0  0  0  0  0  0  0  0  0  0  0  0
    1.7329    2.9959   -4.1696 C   0  0  0  0  0  0  0  0  0  0  0  0
    1.7893   -0.8294   -3.1939 C   0  0  0  0  0  0  0  0  0  0  0  0
    2.1826   -0.6279   -4.8660 S   0  0  0  0  0  0  0  0  0  0  0  0
    0.8459   -0.1244    0.3130 C   0  0  0  0  0  0  0  0  0  0  0  0
    0.3184   -0.8072    1.4084 C   0  0  0  0  0  0  0  0  0  0  0  0
   -0.1470   -2.1192    1.4191 N   0  0  0  0  0  0  0  0  0  0  0  0
    0.3332   -2.9639    2.4313 C   0  0  0  0  0  0  0  0  0  0  0  0
    1.6689   -2.8933    2.8150 C   0  0  0  0  0  0  0  0  0  0  0  0
    2.1716   -3.7376    3.7847 C   0  0  0  0  0  0  0  0  0  0  0  0
    1.3427   -4.6765    4.3819 C   0  0  0  0  0  0  0  0  0  0  0  0
    1.8857   -5.8399    5.5938 S   0  0  0  0  0  0  0  0  0  0  0  0
    3.6952   -5.7054    5.5358 C   0  0  0  0  0  0  0  0  0  0  0  0
   -0.0030   -4.7316    4.0212 C   0  0  0  0  0  0  0  0  0  0  0  0
   -0.5060   -3.8822    3.0615 C   0  0  0  0  0  0  0  0  0  0  0  0
   -1.0047   -2.5901    0.4266 C   0  0  0  0  0  0  0  0  0  0  0  0
   -0.9958   -3.9333    0.0503 C   0  0  0  0  0  0  0  0  0  0  0  0
   -1.7539   -4.3761   -1.0137 C   0  0  0  0  0  0  0  0  0  0  0  0
   -2.5316   -3.4829   -1.7366 C   0  0  0  0  0  0  0  0  0  0  0  0
   -3.4466   -3.9198   -3.1837 S   0  0  0  0  0  0  0  0  0  0  0  0
   -3.2764   -5.7239   -3.2872 C   0  0  0  0  0  0  0  0  0  0  0  0
   -2.5895   -2.1507   -1.3311 C   0  0  0  0  0  0  0  0  0  0  0  0
   -1.8480   -1.7118   -0.2570 C   0  0  0  0  0  0  0  0  0  0  0  0
    0.2747    0.0222    2.5514 C   0  0  0  0  0  0  0  0  0  0  0  0
   -0.3504   -0.1717    4.1493 S   0  0  0  0  0  0  0  0  0  0  0  0
   -0.0108    1.5131    4.5069 C   0  0  0  0  0  0  0  0  0  0  0  0
    0.5241    2.1959    3.4194 C   0  0  0  0  0  0  0  0  0  0  0  0
    0.7077    3.5691    3.3445 N   0  0  0  0  0  0  0  0  0  0  0  0
    1.6140    4.0914    2.4141 C   0  0  0  0  0  0  0  0  0  0  0  0
    1.3029    5.2400    1.6841 C   0  0  0  0  0  0  0  0  0  0  0  0
    2.1409    5.6799    0.6867 C   0  0  0  0  0  0  0  0  0  0  0  0
    3.3126    4.9865    0.3879 C   0  0  0  0  0  0  0  0  0  0  0  0
    4.2510    5.5734   -0.9875 S   0  0  0  0  0  0  0  0  0  0  0  0
    5.3391    4.1762   -1.3797 C   0  0  0  0  0  0  0  0  0  0  0  0
    3.6729    3.8983    1.1698 C   0  0  0  0  0  0  0  0  0  0  0  0
    2.8338    3.4605    2.1771 C   0  0  0  0  0  0  0  0  0  0  0  0
   -0.2100    4.4302    3.9754 C   0  0  0  0  0  0  0  0  0  0  0  0
    0.2456    5.5839    4.6121 C   0  0  0  0  0  0  0  0  0  0  0  0
   -0.6364    6.3955    5.2919 C   0  0  0  0  0  0  0  0  0  0  0  0
   -1.9888    6.0710    5.3510 C   0  0  0  0  0  0  0  0  0  0  0  0
   -3.0375    7.1266    6.3066 S   0  0  0  0  0  0  0  0  0  0  0  0
   -4.6622    6.8636    5.5420 C   0  0  0  0  0  0  0  0  0  0  0  0
   -2.4539    4.9431    4.6875 C   0  0  0  0  0  0  0  0  0  0  0  0
   -1.5712    4.1372    3.9981 C   0  0  0  0  0  0  0  0  0  0  0  0
    0.7177    1.3172    2.3292 C   0  0  0  0  0  0  0  0  0  0  0  0
    1.2668    1.5349    0.7104 S   0  0  0  0  0  0  0  0  0  0  0  0
   -0.3692    2.1065    5.7705 C   0  0  0  0  0  0  0  0  0  0  0  0
   -1.5778    1.8270    6.4219 C   0  0  0  0  0  0  0  0  0  0  0  0
   -2.3524    0.8249    5.9637 F   0  0  0  0  0  0  0  0  0  0  0  0
   -2.0463    2.5861    7.4670 C   0  0  0  0  0  0  0  0  0  0  0  0
   -1.2791    3.6531    7.9465 C   0  0  0  0  0  0  0  0  0  0  0  0
    0.0183    3.8168    7.4340 C   0  0  0  0  0  0  0  0  0  0  0  0
    0.4488    3.0823    6.3589 C   0  0  0  0  0  0  0  0  0  0  0  0
   -1.7275    4.6000    8.9267 C   0  0  0  0  0  0  0  0  0  0  0  0
   -2.9826    5.0718    9.1548 C   0  0  0  0  0  0  0  0  0  0  0  0
   -4.1882    4.8570    8.3111 C   0  0  0  0  0  0  0  0  0  0  0  0
   -4.3065    4.1509    7.3335 O   0  0  0  0  0  0  0  0  0  0  0  0
   -5.2241    5.7537    8.8662 C   0  0  0  0  0  0  0  0  0  0  0  0
   -6.5395    5.9369    8.4693 C   0  0  0  0  0  0  0  0  0  0  0  0
   -7.2280    5.0119    7.1925 Cl  0  0  0  0  0  0  0  0  0  0  0  0
   -7.3214    6.8746    9.1381 C   0  0  0  0  0  0  0  0  0  0  0  0
   -6.7849    7.6095   10.1809 C   0  0  0  0  0  0  0  0  0  0  0  0
   -5.4748    7.4228   10.6028 C   0  0  0  0  0  0  0  0  0  0  0  0
   -4.6958    6.4837    9.9469 C   0  0  0  0  0  0  0  0  0  0  0  0
   -3.3209    6.0498   10.1773 C   0  0  0  0  0  0  0  0  0  0  0  0
   -2.5329    6.4504   11.2222 C   0  0  0  0  0  0  0  0  0  0  0  0
   -1.2327    5.9780   11.5067 C   0  0  0  0  0  0  0  0  0  0  0  0
   -0.1818    5.6458   11.8292 N   0  0  0  0  0  0  0  0  0  0  0  0
   -2.9245    7.3877   12.2031 C   0  0  0  0  0  0  0  0  0  0  0  0
   -3.1714    8.1387   13.0352 N   0  0  0  0  0  0  0  0  0  0  0  0
    2.4877   -4.1214   -6.1916 H   0  0  0  0  0  0  0  0  0  0  0  0
    3.7234    0.5789  -12.2068 H   0  0  0  0  0  0  0  0  0  0  0  0
    3.8063   -1.7225  -13.0661 H   0  0  0  0  0  0  0  0  0  0  0  0
    3.5259   -3.6459  -11.5723 H   0  0  0  0  0  0  0  0  0  0  0  0
    1.9782   -6.9818   -4.4292 H   0  0  0  0  0  0  0  0  0  0  0  0
    0.4202   -8.2174   -5.8825 H   0  0  0  0  0  0  0  0  0  0  0  0
   -2.5260   -5.5702   -8.5297 H   0  0  0  0  0  0  0  0  0  0  0  0
   -3.6765   -5.8807   -7.1894 H   0  0  0  0  0  0  0  0  0  0  0  0
   -3.6953   -6.9039   -8.6412 H   0  0  0  0  0  0  0  0  0  0  0  0
   -1.8823   -4.6496   -6.4310 H   0  0  0  0  0  0  0  0  0  0  0  0
   -0.3621   -3.4426   -4.9764 H   0  0  0  0  0  0  0  0  0  0  0  0
    0.3610   -6.2304   -2.3468 H   0  0  0  0  0  0  0  0  0  0  0  0
    0.8763   -7.0620   -0.1215 H   0  0  0  0  0  0  0  0  0  0  0  0
    1.9717   -7.7013    3.2893 H   0  0  0  0  0  0  0  0  0  0  0  0
    0.8308   -6.8551    2.2282 H   0  0  0  0  0  0  0  0  0  0  0  0
    1.6841   -8.3299    1.6522 H   0  0  0  0  0  0  0  0  0  0  0  0
    4.4794   -4.7583   -0.0901 H   0  0  0  0  0  0  0  0  0  0  0  0
    3.9627   -3.9333   -2.3525 H   0  0  0  0  0  0  0  0  0  0  0  0
   -1.1707    0.4562   -2.0007 H   0  0  0  0  0  0  0  0  0  0  0  0
   -3.0200    1.6128   -0.8529 H   0  0  0  0  0  0  0  0  0  0  0  0
   -2.5204    6.3664   -0.1281 H   0  0  0  0  0  0  0  0  0  0  0  0
   -3.5738    6.2315    1.2958 H   0  0  0  0  0  0  0  0  0  0  0  0
   -1.8789    5.7177    1.4194 H   0  0  0  0  0  0  0  0  0  0  0  0
   -0.6135    5.1365   -0.5578 H   0  0  0  0  0  0  0  0  0  0  0  0
    1.2251    3.9791   -1.6411 H   0  0  0  0  0  0  0  0  0  0  0  0
    3.8497    0.9101   -2.5526 H   0  0  0  0  0  0  0  0  0  0  0  0
    5.3936    1.7940   -4.2400 H   0  0  0  0  0  0  0  0  0  0  0  0
    6.5566    1.7923   -6.3333 H   0  0  0  0  0  0  0  0  0  0  0  0
    6.0860    2.2056   -7.9954 H   0  0  0  0  0  0  0  0  0  0  0  0
    4.9582    1.2843   -6.9654 H   0  0  0  0  0  0  0  0  0  0  0  0
    2.2670    4.2271   -5.8324 H   0  0  0  0  0  0  0  0  0  0  0  0
    0.7023    3.3172   -4.1591 H   0  0  0  0  0  0  0  0  0  0  0  0
    2.3233   -2.1817    2.3331 H   0  0  0  0  0  0  0  0  0  0  0  0
    3.2128   -3.6636    4.0513 H   0  0  0  0  0  0  0  0  0  0  0  0
    4.0130   -4.7505    5.9442 H   0  0  0  0  0  0  0  0  0  0  0  0
    4.0368   -5.8348    4.5126 H   0  0  0  0  0  0  0  0  0  0  0  0
    4.0688   -6.5121    6.1589 H   0  0  0  0  0  0  0  0  0  0  0  0
   -0.6469   -5.4488    4.5074 H   0  0  0  0  0  0  0  0  0  0  0  0
   -1.5500   -3.9254    2.7899 H   0  0  0  0  0  0  0  0  0  0  0  0
   -0.3515   -4.6276    0.5667 H   0  0  0  0  0  0  0  0  0  0  0  0
   -1.7095   -5.4186   -1.2822 H   0  0  0  0  0  0  0  0  0  0  0  0
   -3.6288   -6.1811   -2.3675 H   0  0  0  0  0  0  0  0  0  0  0  0
   -2.2454   -5.9932   -3.4999 H   0  0  0  0  0  0  0  0  0  0  0  0
   -3.9098   -6.0315   -4.1134 H   0  0  0  0  0  0  0  0  0  0  0  0
   -3.2235   -1.4643   -1.8722 H   0  0  0  0  0  0  0  0  0  0  0  0
   -1.9043   -0.6796    0.0537 H   0  0  0  0  0  0  0  0  0  0  0  0
    0.3875    5.7730    1.8929 H   0  0  0  0  0  0  0  0  0  0  0  0
    1.8879    6.5534    0.1054 H   0  0  0  0  0  0  0  0  0  0  0  0
    6.1291    4.0914   -0.6388 H   0  0  0  0  0  0  0  0  0  0  0  0
    4.7489    3.2668   -1.4417 H   0  0  0  0  0  0  0  0  0  0  0  0
    5.7671    4.4033   -2.3512 H   0  0  0  0  0  0  0  0  0  0  0  0
    4.6021    3.3782    1.0021 H   0  0  0  0  0  0  0  0  0  0  0  0
    3.1232    2.6133    2.7812 H   0  0  0  0  0  0  0  0  0  0  0  0
    1.2959    5.8323    4.5759 H   0  0  0  0  0  0  0  0  0  0  0  0
   -0.2847    7.2821    5.7964 H   0  0  0  0  0  0  0  0  0  0  0  0
   -5.3247    7.6008    5.9852 H   0  0  0  0  0  0  0  0  0  0  0  0
   -5.0183    5.8624    5.7623 H   0  0  0  0  0  0  0  0  0  0  0  0
   -4.5830    7.0256    4.4713 H   0  0  0  0  0  0  0  0  0  0  0  0
   -3.4955    4.6713    4.7148 H   0  0  0  0  0  0  0  0  0  0  0  0
   -1.9426    3.2656    3.4798 H   0  0  0  0  0  0  0  0  0  0  0  0
   -3.0079    2.3497    7.8888 H   0  0  0  0  0  0  0  0  0  0  0  0
    0.6596    4.5760    7.8557 H   0  0  0  0  0  0  0  0  0  0  0  0
    1.4308    3.2524    5.9454 H   0  0  0  0  0  0  0  0  0  0  0  0
   -0.9247    5.0524    9.4964 H   0  0  0  0  0  0  0  0  0  0  0  0
   -8.3465    7.0205    8.8362 H   0  0  0  0  0  0  0  0  0  0  0  0
   -7.4018    8.3387   10.6834 H   0  0  0  0  0  0  0  0  0  0  0  0
   -5.0873    8.0049   11.4218 H   0  0  0  0  0  0  0  0  0  0  0  0
  1  2  2  0  0  0  0
  2  3  1  0  0  0  0
  3  4  2  0  0  0  0
  3  5  1  0  0  0  0
  5  6  2  0  0  0  0
  6  7  1  0  0  0  0
  6  8  1  0  0  0  0
  8  9  2  0  0  0  0
  9 10  1  0  0  0  0
 10 11  2  0  0  0  0
 11 12  1  0  0  0  0
 12 13  2  0  0  0  0
 13 14  1  0  0  0  0
 14 15  3  0  0  0  0
 13 16  1  0  0  0  0
 16 17  3  0  0  0  0
  1 18  1  0  0  0  0
 18 19  2  0  0  0  0
 19 20  1  0  0  0  0
 20 21  1  0  0  0  0
 21 22  2  0  0  0  0
 22 23  1  0  0  0  0
 23 24  2  0  0  0  0
 24 25  1  0  0  0  0
 25 26  1  0  0  0  0
 24 27  1  0  0  0  0
 27 28  2  0  0  0  0
 20 29  1  0  0  0  0
 29 30  2  0  0  0  0
 30 31  1  0  0  0  0
 31 32  2  0  0  0  0
 32 33  1  0  0  0  0
 33 34  1  0  0  0  0
 32 35  1  0  0  0  0
 35 36  2  0  0  0  0
 19 37  1  0  0  0  0
 37 38  1  0  0  0  0
 38 39  1  0  0  0  0
 39 40  2  0  0  0  0
 40 41  1  0  0  0  0
 41 42  1  0  0  0  0
 42 43  2  0  0  0  0
 43 44  1  0  0  0  0
 44 45  2  0  0  0  0
 45 46  1  0  0  0  0
 46 47  1  0  0  0  0
 45 48  1  0  0  0  0
 48 49  2  0  0  0  0
 41 50  1  0  0  0  0
 50 51  2  0  0  0  0
 51 52  1  0  0  0  0
 52 53  2  0  0  0  0
 53 54  1  0  0  0  0
 54 55  1  0  0  0  0
 53 56  1  0  0  0  0
 56 57  2  0  0  0  0
 40 58  1  0  0  0  0
 58 59  1  0  0  0  0
 39 60  1  0  0  0  0
 60 61  2  0  0  0  0
 61 62  1  0  0  0  0
 62 63  1  0  0  0  0
 63 64  2  0  0  0  0
 64 65  1  0  0  0  0
 65 66  2  0  0  0  0
 66 67  1  0  0  0  0
 67 68  1  0  0  0  0
 66 69  1  0  0  0  0
 69 70  2  0  0  0  0
 62 71  1  0  0  0  0
 71 72  2  0  0  0  0
 72 73  1  0  0  0  0
 73 74  2  0  0  0  0
 74 75  1  0  0  0  0
 75 76  1  0  0  0  0
 74 77  1  0  0  0  0
 77 78  2  0  0  0  0
 61 79  1  0  0  0  0
 79 80  1  0  0  0  0
 80 81  1  0  0  0  0
 81 82  2  0  0  0  0
 82 83  1  0  0  0  0
 83 84  1  0  0  0  0
 84 85  2  0  0  0  0
 85 86  1  0  0  0  0
 86 87  2  0  0  0  0
 87 88  1  0  0  0  0
 88 89  1  0  0  0  0
 87 90  1  0  0  0  0
 90 91  2  0  0  0  0
 83 92  1  0  0  0  0
 92 93  2  0  0  0  0
 93 94  1  0  0  0  0
 94 95  2  0  0  0  0
 95 96  1  0  0  0  0
 96 97  1  0  0  0  0
 95 98  1  0  0  0  0
 98 99  2  0  0  0  0
 82100  1  0  0  0  0
100101  1  0  0  0  0
 81102  1  0  0  0  0
102103  2  0  0  0  0
103104  1  0  0  0  0
103105  1  0  0  0  0
105106  2  0  0  0  0
106107  1  0  0  0  0
107108  2  0  0  0  0
106109  1  0  0  0  0
109110  2  0  0  0  0
110111  1  0  0  0  0
111112  2  0  0  0  0
111113  1  0  0  0  0
113114  2  0  0  0  0
114115  1  0  0  0  0
114116  1  0  0  0  0
116117  2  0  0  0  0
117118  1  0  0  0  0
118119  2  0  0  0  0
119120  1  0  0  0  0
120121  2  0  0  0  0
121122  1  0  0  0  0
122123  3  0  0  0  0
121124  1  0  0  0  0
124125  3  0  0  0  0
 12  2  1  0  0  0  0
 59 18  1  0  0  0  0
101 60  1  0  0  0  0
108102  1  0  0  0  0
120110  1  0  0  0  0
 11  5  1  0  0  0  0
 28 21  1  0  0  0  0
 36 29  1  0  0  0  0
 58 37  2  0  0  0  0
 70 63  1  0  0  0  0
 78 71  1  0  0  0  0
100 79  2  0  0  0  0
119113  1  0  0  0  0
 49 42  1  0  0  0  0
 57 50  1  0  0  0  0
 91 84  1  0  0  0  0
 99 92  1  0  0  0  0
  1126  1  0  0  0  0
  8127  1  0  0  0  0
  9128  1  0  0  0  0
 10129  1  0  0  0  0
 22130  1  0  0  0  0
 23131  1  0  0  0  0
 26132  1  0  0  0  0
 26133  1  0  0  0  0
 26134  1  0  0  0  0
 27135  1  0  0  0  0
 28136  1  0  0  0  0
 30137  1  0  0  0  0
 31138  1  0  0  0  0
 34139  1  0  0  0  0
 34140  1  0  0  0  0
 34141  1  0  0  0  0
 35142  1  0  0  0  0
 36143  1  0  0  0  0
 43144  1  0  0  0  0
 44145  1  0  0  0  0
 47146  1  0  0  0  0
 47147  1  0  0  0  0
 47148  1  0  0  0  0
 48149  1  0  0  0  0
 49150  1  0  0  0  0
 51151  1  0  0  0  0
 52152  1  0  0  0  0
 55153  1  0  0  0  0
 55154  1  0  0  0  0
 55155  1  0  0  0  0
 56156  1  0  0  0  0
 57157  1  0  0  0  0
 64158  1  0  0  0  0
 65159  1  0  0  0  0
 68160  1  0  0  0  0
 68161  1  0  0  0  0
 68162  1  0  0  0  0
 69163  1  0  0  0  0
 70164  1  0  0  0  0
 72165  1  0  0  0  0
 73166  1  0  0  0  0
 76167  1  0  0  0  0
 76168  1  0  0  0  0
 76169  1  0  0  0  0
 77170  1  0  0  0  0
 78171  1  0  0  0  0
 85172  1  0  0  0  0
 86173  1  0  0  0  0
 89174  1  0  0  0  0
 89175  1  0  0  0  0
 89176  1  0  0  0  0
 90177  1  0  0  0  0
 91178  1  0  0  0  0
 93179  1  0  0  0  0
 94180  1  0  0  0  0
 97181  1  0  0  0  0
 97182  1  0  0  0  0
 97183  1  0  0  0  0
 98184  1  0  0  0  0
 99185  1  0  0  0  0
105186  1  0  0  0  0
107187  1  0  0  0  0
108188  1  0  0  0  0
109189  1  0  0  0  0
116190  1  0  0  0  0
117191  1  0  0  0  0
118192  1  0  0  0  0
M  END
