
  xtb     02032221033D
 energy: -323.063946127385 gnorm: 0.000271189905 xtb: 6.4.1 (unknown)
188205  0     0  0            999 V2000
   -1.6513    7.2826   -6.4257 C   0  0  0  0  0  0  0  0  0  0  0  0
   -0.8898    8.3793   -6.1624 C   0  0  0  0  0  0  0  0  0  0  0  0
   -0.1731    8.6834   -4.8986 C   0  0  0  0  0  0  0  0  0  0  0  0
   -0.0900    8.0121   -3.8923 O   0  0  0  0  0  0  0  0  0  0  0  0
    0.5348    9.9596   -5.1461 C   0  0  0  0  0  0  0  0  0  0  0  0
    1.3031   10.7275   -4.2874 C   0  0  0  0  0  0  0  0  0  0  0  0
    1.5036   10.2917   -2.6344 Cl  0  0  0  0  0  0  0  0  0  0  0  0
    1.9083   11.8846   -4.7679 C   0  0  0  0  0  0  0  0  0  0  0  0
    1.7434   12.2525   -6.0918 C   0  0  0  0  0  0  0  0  0  0  0  0
    0.9672   11.4996   -6.9633 C   0  0  0  0  0  0  0  0  0  0  0  0
    0.3559   10.3521   -6.4847 C   0  0  0  0  0  0  0  0  0  0  0  0
   -0.5243    9.3881   -7.1420 C   0  0  0  0  0  0  0  0  0  0  0  0
   -0.9461    9.4690   -8.4417 C   0  0  0  0  0  0  0  0  0  0  0  0
   -1.8334    8.5811   -9.0891 C   0  0  0  0  0  0  0  0  0  0  0  0
   -2.5522    7.9293   -9.7037 N   0  0  0  0  0  0  0  0  0  0  0  0
   -0.5563   10.4809   -9.3461 C   0  0  0  0  0  0  0  0  0  0  0  0
   -0.2876   11.2660  -10.1393 N   0  0  0  0  0  0  0  0  0  0  0  0
   -2.0767    6.2787   -5.5070 C   0  0  0  0  0  0  0  0  0  0  0  0
   -2.3807    6.5027   -4.1504 C   0  0  0  0  0  0  0  0  0  0  0  0
   -2.5536    7.7236   -3.5838 N   0  0  0  0  0  0  0  0  0  0  0  0
   -2.7547    7.6651   -2.3245 C   0  0  0  0  0  0  0  0  0  0  0  0
   -2.9086    8.8380   -1.4347 C   0  0  0  0  0  0  0  0  0  0  0  0
   -1.6408    9.0236   -0.5977 C   0  0  0  0  0  0  0  0  0  0  0  0
   -2.7719    6.0321   -1.6471 S   0  0  0  0  0  0  0  0  0  0  0  0
   -2.5232    5.4196   -3.2506 C   0  0  0  0  0  0  0  0  0  0  0  0
   -2.4019    4.0916   -3.6516 C   0  0  0  0  0  0  0  0  0  0  0  0
   -2.3584    3.8750   -5.0408 C   0  0  0  0  0  0  0  0  0  0  0  0
   -2.2013    4.9505   -5.9363 C   0  0  0  0  0  0  0  0  0  0  0  0
   -2.1141    4.3393   -7.5547 S   0  0  0  0  0  0  0  0  0  0  0  0
   -2.3819    2.7125   -6.9051 C   0  0  0  0  0  0  0  0  0  0  0  0
   -2.5173    1.5507   -7.8175 C   0  0  0  0  0  0  0  0  0  0  0  0
   -1.1861    1.1586   -8.4613 C   0  0  0  0  0  0  0  0  0  0  0  0
   -2.4644    2.6531   -5.6326 N   0  0  0  0  0  0  0  0  0  0  0  0
   -2.2312    2.9934   -2.7429 C   0  0  0  0  0  0  0  0  0  0  0  0
   -1.3172    1.9600   -2.8865 C   0  0  0  0  0  0  0  0  0  0  0  0
   -0.3634    1.8725   -3.8930 N   0  0  0  0  0  0  0  0  0  0  0  0
    0.2712    3.0330   -4.3544 C   0  0  0  0  0  0  0  0  0  0  0  0
    0.6002    3.1912   -5.7016 C   0  0  0  0  0  0  0  0  0  0  0  0
    1.1699    4.3606   -6.1543 C   0  0  0  0  0  0  0  0  0  0  0  0
    1.4366    5.4031   -5.2733 C   0  0  0  0  0  0  0  0  0  0  0  0
    2.1347    6.8804   -5.9529 S   0  0  0  0  0  0  0  0  0  0  0  0
    3.0502    7.5647   -4.5435 C   0  0  0  0  0  0  0  0  0  0  0  0
    1.1378    5.2479   -3.9261 C   0  0  0  0  0  0  0  0  0  0  0  0
    0.5667    4.0753   -3.4754 C   0  0  0  0  0  0  0  0  0  0  0  0
   -0.1874    0.6501   -4.5490 C   0  0  0  0  0  0  0  0  0  0  0  0
   -1.2620   -0.2179   -4.7182 C   0  0  0  0  0  0  0  0  0  0  0  0
   -1.1066   -1.4102   -5.3991 C   0  0  0  0  0  0  0  0  0  0  0  0
    0.1301   -1.7534   -5.9278 C   0  0  0  0  0  0  0  0  0  0  0  0
    0.4507   -3.2340   -6.8335 S   0  0  0  0  0  0  0  0  0  0  0  0
   -1.1098   -4.1552   -6.7329 C   0  0  0  0  0  0  0  0  0  0  0  0
    1.2136   -0.8943   -5.7451 C   0  0  0  0  0  0  0  0  0  0  0  0
    1.0619    0.2873   -5.0564 C   0  0  0  0  0  0  0  0  0  0  0  0
   -1.3805    1.0836   -1.7754 C   0  0  0  0  0  0  0  0  0  0  0  0
   -0.5592   -0.3636   -1.3135 S   0  0  0  0  0  0  0  0  0  0  0  0
   -1.3708   -0.3702    0.2608 C   0  0  0  0  0  0  0  0  0  0  0  0
   -2.2751    0.6822    0.3806 C   0  0  0  0  0  0  0  0  0  0  0  0
   -3.0584    1.0356    1.4653 N   0  0  0  0  0  0  0  0  0  0  0  0
   -3.7707    0.1343    2.2540 C   0  0  0  0  0  0  0  0  0  0  0  0
   -4.1742   -1.1066    1.7640 C   0  0  0  0  0  0  0  0  0  0  0  0
   -4.8044   -2.0164    2.5904 C   0  0  0  0  0  0  0  0  0  0  0  0
   -5.0530   -1.6973    3.9185 C   0  0  0  0  0  0  0  0  0  0  0  0
   -5.8202   -2.8021    5.0614 S   0  0  0  0  0  0  0  0  0  0  0  0
   -5.3464   -4.4322    4.4165 C   0  0  0  0  0  0  0  0  0  0  0  0
   -4.7035   -0.4369    4.3961 C   0  0  0  0  0  0  0  0  0  0  0  0
   -4.0674    0.4668    3.5787 C   0  0  0  0  0  0  0  0  0  0  0  0
   -3.2153    2.4221    1.6777 C   0  0  0  0  0  0  0  0  0  0  0  0
   -2.0912    3.2481    1.6951 C   0  0  0  0  0  0  0  0  0  0  0  0
   -2.2347    4.6130    1.7956 C   0  0  0  0  0  0  0  0  0  0  0  0
   -3.5035    5.1814    1.8907 C   0  0  0  0  0  0  0  0  0  0  0  0
   -3.5720    6.9413    1.9629 S   0  0  0  0  0  0  0  0  0  0  0  0
   -5.3354    7.3150    1.7490 C   0  0  0  0  0  0  0  0  0  0  0  0
   -4.6214    4.3585    1.9262 C   0  0  0  0  0  0  0  0  0  0  0  0
   -4.4771    2.9891    1.8171 C   0  0  0  0  0  0  0  0  0  0  0  0
   -2.2658    1.4854   -0.7906 C   0  0  0  0  0  0  0  0  0  0  0  0
   -3.1016    2.9335   -1.2300 S   0  0  0  0  0  0  0  0  0  0  0  0
   -0.9480   -1.3605    1.1890 C   0  0  0  0  0  0  0  0  0  0  0  0
   -0.1044   -2.4092    0.9198 C   0  0  0  0  0  0  0  0  0  0  0  0
    0.2182   -3.2009    2.0443 C   0  0  0  0  0  0  0  0  0  0  0  0
    1.0322   -4.3482    2.1106 C   0  0  0  0  0  0  0  0  0  0  0  0
    1.7766   -4.8369    0.9428 C   0  0  0  0  0  0  0  0  0  0  0  0
    1.7986   -6.1941    0.6251 C   0  0  0  0  0  0  0  0  0  0  0  0
    2.5275   -6.6482   -0.4583 C   0  0  0  0  0  0  0  0  0  0  0  0
    3.2070   -5.7569   -1.2690 C   0  0  0  0  0  0  0  0  0  0  0  0
    3.1642   -4.4020   -0.9753 C   0  0  0  0  0  0  0  0  0  0  0  0
    3.9542   -3.2476   -2.0770 S   0  0  0  0  0  0  0  0  0  0  0  0
    2.5135   -2.1822   -2.4542 C   0  0  0  0  0  0  0  0  0  0  0  0
    1.3569   -2.9820   -3.0181 C   0  0  0  0  0  0  0  0  0  0  0  0
    2.4851   -3.9464    0.1421 C   0  0  0  0  0  0  0  0  0  0  0  0
    1.1122   -4.9895    3.3398 C   0  0  0  0  0  0  0  0  0  0  0  0
    0.3815   -4.5582    4.4818 C   0  0  0  0  0  0  0  0  0  0  0  0
   -0.4606   -3.4250    4.4106 C   0  0  0  0  0  0  0  0  0  0  0  0
   -1.3588   -3.0537    5.5088 C   0  0  0  0  0  0  0  0  0  0  0  0
   -1.5336   -1.7294    5.9003 C   0  0  0  0  0  0  0  0  0  0  0  0
   -2.4681   -1.4098    6.8700 C   0  0  0  0  0  0  0  0  0  0  0  0
   -3.2187   -2.3976    7.4764 C   0  0  0  0  0  0  0  0  0  0  0  0
   -3.0300   -3.7268    7.1118 C   0  0  0  0  0  0  0  0  0  0  0  0
   -4.0005   -4.9645    7.9208 S   0  0  0  0  0  0  0  0  0  0  0  0
   -2.8234   -6.3751    8.0023 C   0  0  0  0  0  0  0  0  0  0  0  0
   -3.1959   -7.2841    9.1556 C   0  0  0  0  0  0  0  0  0  0  0  0
   -2.1201   -4.0494    6.1183 C   0  0  0  0  0  0  0  0  0  0  0  0
   -0.4605   -2.7450    3.2089 C   0  0  0  0  0  0  0  0  0  0  0  0
   -1.3758   -1.2977    2.8865 S   0  0  0  0  0  0  0  0  0  0  0  0
    0.6598   -5.3540    5.5997 C   0  0  0  0  0  0  0  0  0  0  0  0
    1.5629   -6.3762    5.3588 C   0  0  0  0  0  0  0  0  0  0  0  0
    2.1191   -6.3675    3.6972 S   0  0  0  0  0  0  0  0  0  0  0  0
    1.9093   -7.2997    6.3627 C   0  0  0  0  0  0  0  0  0  0  0  0
    2.7845   -8.3514    6.3459 C   0  0  0  0  0  0  0  0  0  0  0  0
    3.7085   -8.6971    5.2499 C   0  0  0  0  0  0  0  0  0  0  0  0
    3.7428   -8.2199    4.1349 O   0  0  0  0  0  0  0  0  0  0  0  0
    4.5965   -9.7436    5.7942 C   0  0  0  0  0  0  0  0  0  0  0  0
    5.6795  -10.3778    5.2074 C   0  0  0  0  0  0  0  0  0  0  0  0
    6.1625  -10.0008    3.6047 Cl  0  0  0  0  0  0  0  0  0  0  0  0
    6.3773  -11.3319    5.9461 C   0  0  0  0  0  0  0  0  0  0  0  0
    5.9884  -11.6316    7.2394 C   0  0  0  0  0  0  0  0  0  0  0  0
    4.9002  -11.0064    7.8378 C   0  0  0  0  0  0  0  0  0  0  0  0
    4.2013  -10.0600    7.1085 C   0  0  0  0  0  0  0  0  0  0  0  0
    3.0307   -9.2531    7.4508 C   0  0  0  0  0  0  0  0  0  0  0  0
    2.2689   -9.3987    8.5824 C   0  0  0  0  0  0  0  0  0  0  0  0
    2.5558  -10.3064    9.6233 C   0  0  0  0  0  0  0  0  0  0  0  0
    2.7307  -11.0146   10.5098 N   0  0  0  0  0  0  0  0  0  0  0  0
    1.0671   -8.7108    8.8467 C   0  0  0  0  0  0  0  0  0  0  0  0
    0.0663   -8.2162    9.1199 N   0  0  0  0  0  0  0  0  0  0  0  0
   -1.9105    7.0790   -7.4580 H   0  0  0  0  0  0  0  0  0  0  0  0
    2.5046   12.4879   -4.1016 H   0  0  0  0  0  0  0  0  0  0  0  0
    2.2250   13.1480   -6.4535 H   0  0  0  0  0  0  0  0  0  0  0  0
    0.8538   11.8147   -7.9867 H   0  0  0  0  0  0  0  0  0  0  0  0
   -3.7620    8.6896   -0.7700 H   0  0  0  0  0  0  0  0  0  0  0  0
   -3.0825    9.7172   -2.0567 H   0  0  0  0  0  0  0  0  0  0  0  0
   -1.5086    8.1795    0.0751 H   0  0  0  0  0  0  0  0  0  0  0  0
   -0.7746    9.0941   -1.2500 H   0  0  0  0  0  0  0  0  0  0  0  0
   -1.7138    9.9316   -0.0054 H   0  0  0  0  0  0  0  0  0  0  0  0
   -2.9088    0.7129   -7.2386 H   0  0  0  0  0  0  0  0  0  0  0  0
   -3.2317    1.8064   -8.6036 H   0  0  0  0  0  0  0  0  0  0  0  0
   -0.7366    2.0149   -8.9593 H   0  0  0  0  0  0  0  0  0  0  0  0
   -0.4961    0.7785   -7.7113 H   0  0  0  0  0  0  0  0  0  0  0  0
   -1.3496    0.3769   -9.1984 H   0  0  0  0  0  0  0  0  0  0  0  0
    0.3902    2.3980   -6.4008 H   0  0  0  0  0  0  0  0  0  0  0  0
    1.4041    4.4804   -7.2011 H   0  0  0  0  0  0  0  0  0  0  0  0
    3.7126    6.8019   -4.1456 H   0  0  0  0  0  0  0  0  0  0  0  0
    3.6263    8.3976   -4.9348 H   0  0  0  0  0  0  0  0  0  0  0  0
    2.3559    7.9141   -3.7862 H   0  0  0  0  0  0  0  0  0  0  0  0
    1.3283    6.0403   -3.2222 H   0  0  0  0  0  0  0  0  0  0  0  0
    0.3401    3.9690   -2.4245 H   0  0  0  0  0  0  0  0  0  0  0  0
   -2.2332    0.0618   -4.3400 H   0  0  0  0  0  0  0  0  0  0  0  0
   -1.9627   -2.0541   -5.5207 H   0  0  0  0  0  0  0  0  0  0  0  0
   -0.9237   -5.0989   -7.2361 H   0  0  0  0  0  0  0  0  0  0  0  0
   -1.8984   -3.6143   -7.2481 H   0  0  0  0  0  0  0  0  0  0  0  0
   -1.3655   -4.3353   -5.6929 H   0  0  0  0  0  0  0  0  0  0  0  0
    2.1759   -1.1728   -6.1463 H   0  0  0  0  0  0  0  0  0  0  0  0
    1.9082    0.9416   -4.9111 H   0  0  0  0  0  0  0  0  0  0  0  0
   -3.9776   -1.3649    0.7336 H   0  0  0  0  0  0  0  0  0  0  0  0
   -5.0991   -2.9735    2.1893 H   0  0  0  0  0  0  0  0  0  0  0  0
   -5.9785   -4.7116    3.5784 H   0  0  0  0  0  0  0  0  0  0  0  0
   -4.2992   -4.4074    4.1307 H   0  0  0  0  0  0  0  0  0  0  0  0
   -5.4942   -5.1253    5.2388 H   0  0  0  0  0  0  0  0  0  0  0  0
   -4.9176   -0.1897    5.4238 H   0  0  0  0  0  0  0  0  0  0  0  0
   -3.7641    1.4271    3.9667 H   0  0  0  0  0  0  0  0  0  0  0  0
   -1.1080    2.8091    1.6085 H   0  0  0  0  0  0  0  0  0  0  0  0
   -1.3685    5.2564    1.7927 H   0  0  0  0  0  0  0  0  0  0  0  0
   -5.8996    6.9821    2.6153 H   0  0  0  0  0  0  0  0  0  0  0  0
   -5.3996    8.3959    1.6674 H   0  0  0  0  0  0  0  0  0  0  0  0
   -5.6983    6.8493    0.8373 H   0  0  0  0  0  0  0  0  0  0  0  0
   -5.6131    4.7694    2.0220 H   0  0  0  0  0  0  0  0  0  0  0  0
   -5.3497    2.3530    1.8218 H   0  0  0  0  0  0  0  0  0  0  0  0
    0.2408   -2.6193   -0.0766 H   0  0  0  0  0  0  0  0  0  0  0  0
    1.2309   -6.8929    1.2196 H   0  0  0  0  0  0  0  0  0  0  0  0
    2.5496   -7.7035   -0.6845 H   0  0  0  0  0  0  0  0  0  0  0  0
    3.7594   -6.0962   -2.1313 H   0  0  0  0  0  0  0  0  0  0  0  0
    2.8845   -1.4649   -3.1845 H   0  0  0  0  0  0  0  0  0  0  0  0
    2.2281   -1.6469   -1.5488 H   0  0  0  0  0  0  0  0  0  0  0  0
    1.6539   -3.4754   -3.9404 H   0  0  0  0  0  0  0  0  0  0  0  0
    0.5211   -2.3174   -3.2261 H   0  0  0  0  0  0  0  0  0  0  0  0
    1.0305   -3.7429   -2.3104 H   0  0  0  0  0  0  0  0  0  0  0  0
    2.5184   -2.8995    0.4037 H   0  0  0  0  0  0  0  0  0  0  0  0
   -0.9254   -0.9538    5.4612 H   0  0  0  0  0  0  0  0  0  0  0  0
   -2.6015   -0.3794    7.1630 H   0  0  0  0  0  0  0  0  0  0  0  0
   -3.9500   -2.1576    8.2319 H   0  0  0  0  0  0  0  0  0  0  0  0
   -2.8576   -6.9137    7.0545 H   0  0  0  0  0  0  0  0  0  0  0  0
   -1.8315   -5.9516    8.1526 H   0  0  0  0  0  0  0  0  0  0  0  0
   -2.4488   -8.0684    9.2485 H   0  0  0  0  0  0  0  0  0  0  0  0
   -4.1719   -7.7351    8.9924 H   0  0  0  0  0  0  0  0  0  0  0  0
   -3.2255   -6.7207   10.0851 H   0  0  0  0  0  0  0  0  0  0  0  0
   -2.0194   -5.0706    5.7828 H   0  0  0  0  0  0  0  0  0  0  0  0
    0.2391   -5.1818    6.5749 H   0  0  0  0  0  0  0  0  0  0  0  0
    1.3878   -7.1192    7.2958 H   0  0  0  0  0  0  0  0  0  0  0  0
    7.2224  -11.8305    5.4990 H   0  0  0  0  0  0  0  0  0  0  0  0
    6.5429  -12.3696    7.7986 H   0  0  0  0  0  0  0  0  0  0  0  0
    4.6234  -11.2587    8.8479 H   0  0  0  0  0  0  0  0  0  0  0  0
  1  2  2  0  0  0  0
  2  3  1  0  0  0  0
  3  4  2  0  0  0  0
  3  5  1  0  0  0  0
  5  6  2  0  0  0  0
  6  7  1  0  0  0  0
  6  8  1  0  0  0  0
  8  9  2  0  0  0  0
  9 10  1  0  0  0  0
 10 11  2  0  0  0  0
 11 12  1  0  0  0  0
 12 13  2  0  0  0  0
 13 14  1  0  0  0  0
 14 15  3  0  0  0  0
 13 16  1  0  0  0  0
 16 17  3  0  0  0  0
  1 18  1  0  0  0  0
 18 19  2  0  0  0  0
 19 20  1  0  0  0  0
 20 21  2  0  0  0  0
 21 22  1  0  0  0  0
 22 23  1  0  0  0  0
 21 24  1  0  0  0  0
 24 25  1  0  0  0  0
 25 26  2  0  0  0  0
 26 27  1  0  0  0  0
 27 28  2  0  0  0  0
 28 29  1  0  0  0  0
 29 30  1  0  0  0  0
 30 31  1  0  0  0  0
 31 32  1  0  0  0  0
 30 33  2  0  0  0  0
 26 34  1  0  0  0  0
 34 35  2  0  0  0  0
 35 36  1  0  0  0  0
 36 37  1  0  0  0  0
 37 38  2  0  0  0  0
 38 39  1  0  0  0  0
 39 40  2  0  0  0  0
 40 41  1  0  0  0  0
 41 42  1  0  0  0  0
 40 43  1  0  0  0  0
 43 44  2  0  0  0  0
 36 45  1  0  0  0  0
 45 46  2  0  0  0  0
 46 47  1  0  0  0  0
 47 48  2  0  0  0  0
 48 49  1  0  0  0  0
 49 50  1  0  0  0  0
 48 51  1  0  0  0  0
 51 52  2  0  0  0  0
 35 53  1  0  0  0  0
 53 54  1  0  0  0  0
 54 55  1  0  0  0  0
 55 56  2  0  0  0  0
 56 57  1  0  0  0  0
 57 58  1  0  0  0  0
 58 59  2  0  0  0  0
 59 60  1  0  0  0  0
 60 61  2  0  0  0  0
 61 62  1  0  0  0  0
 62 63  1  0  0  0  0
 61 64  1  0  0  0  0
 64 65  2  0  0  0  0
 57 66  1  0  0  0  0
 66 67  2  0  0  0  0
 67 68  1  0  0  0  0
 68 69  2  0  0  0  0
 69 70  1  0  0  0  0
 70 71  1  0  0  0  0
 69 72  1  0  0  0  0
 72 73  2  0  0  0  0
 56 74  1  0  0  0  0
 74 75  1  0  0  0  0
 55 76  1  0  0  0  0
 76 77  2  0  0  0  0
 77 78  1  0  0  0  0
 78 79  2  0  0  0  0
 79 80  1  0  0  0  0
 80 81  2  0  0  0  0
 81 82  1  0  0  0  0
 82 83  2  0  0  0  0
 83 84  1  0  0  0  0
 84 85  1  0  0  0  0
 85 86  1  0  0  0  0
 86 87  1  0  0  0  0
 84 88  2  0  0  0  0
 79 89  1  0  0  0  0
 89 90  2  0  0  0  0
 90 91  1  0  0  0  0
 91 92  1  0  0  0  0
 92 93  2  0  0  0  0
 93 94  1  0  0  0  0
 94 95  2  0  0  0  0
 95 96  1  0  0  0  0
 96 97  1  0  0  0  0
 97 98  1  0  0  0  0
 98 99  1  0  0  0  0
 96100  2  0  0  0  0
 91101  2  0  0  0  0
101102  1  0  0  0  0
 90103  1  0  0  0  0
103104  2  0  0  0  0
104105  1  0  0  0  0
104106  1  0  0  0  0
106107  2  0  0  0  0
107108  1  0  0  0  0
108109  2  0  0  0  0
108110  1  0  0  0  0
110111  2  0  0  0  0
111112  1  0  0  0  0
111113  1  0  0  0  0
113114  2  0  0  0  0
114115  1  0  0  0  0
115116  2  0  0  0  0
116117  1  0  0  0  0
117118  2  0  0  0  0
118119  1  0  0  0  0
119120  3  0  0  0  0
118121  1  0  0  0  0
121122  3  0  0  0  0
 12  2  1  0  0  0  0
 28 18  1  0  0  0  0
 75 34  1  0  0  0  0
102 76  1  0  0  0  0
117107  1  0  0  0  0
 11  5  1  0  0  0  0
 25 19  1  0  0  0  0
 33 27  1  0  0  0  0
 44 37  1  0  0  0  0
 52 45  1  0  0  0  0
 74 53  2  0  0  0  0
101 78  1  0  0  0  0
116110  1  0  0  0  0
 65 58  1  0  0  0  0
 73 66  1  0  0  0  0
 88 80  1  0  0  0  0
105 89  1  0  0  0  0
100 92  1  0  0  0  0
  1123  1  0  0  0  0
  8124  1  0  0  0  0
  9125  1  0  0  0  0
 10126  1  0  0  0  0
 22127  1  0  0  0  0
 22128  1  0  0  0  0
 23129  1  0  0  0  0
 23130  1  0  0  0  0
 23131  1  0  0  0  0
 31132  1  0  0  0  0
 31133  1  0  0  0  0
 32134  1  0  0  0  0
 32135  1  0  0  0  0
 32136  1  0  0  0  0
 38137  1  0  0  0  0
 39138  1  0  0  0  0
 42139  1  0  0  0  0
 42140  1  0  0  0  0
 42141  1  0  0  0  0
 43142  1  0  0  0  0
 44143  1  0  0  0  0
 46144  1  0  0  0  0
 47145  1  0  0  0  0
 50146  1  0  0  0  0
 50147  1  0  0  0  0
 50148  1  0  0  0  0
 51149  1  0  0  0  0
 52150  1  0  0  0  0
 59151  1  0  0  0  0
 60152  1  0  0  0  0
 63153  1  0  0  0  0
 63154  1  0  0  0  0
 63155  1  0  0  0  0
 64156  1  0  0  0  0
 65157  1  0  0  0  0
 67158  1  0  0  0  0
 68159  1  0  0  0  0
 71160  1  0  0  0  0
 71161  1  0  0  0  0
 71162  1  0  0  0  0
 72163  1  0  0  0  0
 73164  1  0  0  0  0
 77165  1  0  0  0  0
 81166  1  0  0  0  0
 82167  1  0  0  0  0
 83168  1  0  0  0  0
 86169  1  0  0  0  0
 86170  1  0  0  0  0
 87171  1  0  0  0  0
 87172  1  0  0  0  0
 87173  1  0  0  0  0
 88174  1  0  0  0  0
 93175  1  0  0  0  0
 94176  1  0  0  0  0
 95177  1  0  0  0  0
 98178  1  0  0  0  0
 98179  1  0  0  0  0
 99180  1  0  0  0  0
 99181  1  0  0  0  0
 99182  1  0  0  0  0
100183  1  0  0  0  0
103184  1  0  0  0  0
106185  1  0  0  0  0
113186  1  0  0  0  0
114187  1  0  0  0  0
115188  1  0  0  0  0
M  END
