164

C         -3.20810       -7.02960        0.32600
C         -2.57390       -8.05150        1.00770
C         -1.40840       -7.84270        1.87540
O         -0.85220       -6.78810        2.12080
C         -1.14690       -9.15580        2.50950
C         -0.14680       -9.53550        3.38450
Cl         1.07050       -8.42030        3.86810
C         -0.11940      -10.84780        3.85200
C         -1.08930      -11.74630        3.44600
C         -2.09500      -11.38060        2.55650
C         -2.11580      -10.08130        2.08260
C         -2.99580       -9.41740        1.11790
C         -3.93830      -10.04190        0.33740
C         -4.26500      -11.40770        0.43340
N         -4.57270      -12.51340        0.47780
C         -4.64780       -9.39950       -0.69630
N         -5.23380       -8.93900       -1.57050
C         -2.62890       -5.82370       -0.06780
C         -1.28280       -5.45540       -0.29390
N         -0.21220       -6.29410       -0.38410
C         -0.34420       -7.65120       -0.70210
C          0.44880       -8.59590       -0.05350
C          0.27510       -9.94630       -0.29000
C         -0.69650      -10.37620       -1.18420
S         -1.08380      -12.06370       -1.49260
C         -0.12360      -12.96310       -0.24300
C         -1.43750       -9.42810       -1.89510
C         -1.26520       -8.08530       -1.65900
C          1.08770       -5.79500       -0.15470
C          1.35510       -5.00090        0.95460
C          2.62900       -4.51520        1.17590
C          3.65310       -4.82110        0.28860
S          5.31400       -4.25830        0.45730
C          5.28010       -3.21930        1.94510
C          3.38770       -5.63320       -0.81440
C          2.11870       -6.11750       -1.03560
C         -1.18930       -4.06780       -0.55770
S          0.13100       -3.00920       -0.91670
C         -0.97220       -1.66670       -1.09600
C         -2.30080       -2.03010       -0.95240
N         -3.38080       -1.19710       -1.18440
C         -4.53520       -1.32920       -0.40790
C         -4.45780       -1.76240        0.91360
C         -5.60010       -1.91890        1.67460
C         -6.84330       -1.63440        1.12820
S         -8.36660       -1.77860        2.01060
C         -7.91600       -2.73840        3.48480
C         -6.92450       -1.18270       -0.18800
C         -5.78780       -1.03690       -0.95020
C         -3.25820       -0.16440       -2.12660
C         -2.59800       -0.39360       -3.33110
C         -2.35210        0.63840       -4.21480
C         -2.77290        1.92620       -3.91240
S         -2.43890        3.33980       -4.91210
C         -1.59150        2.65470       -6.36570
C         -3.49730        2.14780       -2.74260
C         -3.74280        1.11720       -1.86370
C         -2.40740       -3.40540       -0.62910
S         -3.73710       -4.47100       -0.36330
C         -0.46770       -0.33870       -1.37690
C          0.45100       -0.09150       -2.37500
F          0.92270       -1.10760       -3.11970
C          0.88530        1.20430       -2.68860
F          1.77920        1.32420       -3.68840
C          0.43280        2.31830       -2.01530
C         -0.50320        2.09240       -0.96900
N         -1.01760        3.14070       -0.30670
C         -1.86380        2.94510        0.67220
C         -2.42800        4.19280        1.28410
C         -3.42580        4.83920        0.32040
C         -2.18880        1.62250        1.09180
N         -1.72940        0.58860        0.43020
C         -0.92810        0.78240       -0.63220
C         -3.02090        1.31720        2.30200
C         -4.51560        1.54960        2.07320
C          0.88860        3.67420       -2.33700
C          1.23600        4.53290       -1.30170
C          1.68830        5.80220       -1.62250
N          2.09590        6.81740       -0.79580
C          2.21560        6.75420        0.63760
C          3.63920        6.40750        1.06990
C          2.52800        7.86200       -1.57340
C          2.34670        7.53790       -2.94490
C          1.80230        6.21890       -2.97500
C          1.43390        5.35140       -3.99920
C          0.98660        4.09240       -3.67380
C          2.69990        8.46350       -3.92550
C          3.25490        9.65780       -3.53810
C          3.49600        9.95700       -2.17700
C          3.08270        9.06520       -1.18400
C          4.15890       11.19030       -1.87020
C          4.99940       11.46520       -0.83290
C          5.66340       10.47480        0.05560
O          5.44030        9.28930        0.16550
C          6.73050       11.22510        0.74960
C          7.67690       10.77030        1.65430
Cl         7.72690        9.12250        2.13280
C          8.59450       11.67750        2.17900
C          8.55820       13.00560        1.79140
C          7.61460       13.47510        0.88590
C          6.69480       12.57890        0.36710
C          5.59680       12.76520       -0.57780
C          5.16400       13.96890       -1.06520
C          4.03730       14.15300       -1.89660
N          3.12590       14.39290       -2.55240
C          5.76880       15.20960       -0.77080
N          6.21790       16.24800       -0.57600
H         -4.26380       -7.13540        0.10690
H          0.66110      -11.15300        4.53090
H         -1.06290      -12.75700        3.82440
H         -2.83680      -12.10200        2.25570
H          1.19380       -8.26780        0.65560
H          0.89070      -10.65010        0.24580
H         -0.37480      -12.59520        0.74760
H          0.93870      -12.86770       -0.44460
H         -0.42510      -14.00060       -0.34020
H         -2.16120       -9.76410       -2.62170
H         -1.85360       -7.36600       -2.20750
H          0.56340       -4.79590        1.65780
H          2.80890       -3.90800        2.04810
H          5.00400       -3.81490        2.81030
H          6.29310       -2.84730        2.06340
H          4.59670       -2.38780        1.80130
H          4.19050       -5.87110       -1.49520
H          1.91530       -6.74150       -1.89320
H         -3.49230       -1.95800        1.35380
H         -5.50280       -2.25210        2.69510
H         -7.40400       -3.64780        3.18500
H         -7.30230       -2.14060        4.15280
H         -8.85420       -2.98440        3.97250
H         -7.89370       -0.96010       -0.60700
H         -5.86160       -0.70310       -1.97430
H         -2.25650       -1.38970       -3.57130
H         -1.82580        0.42150       -5.13000
H         -1.37810        3.50570       -7.00490
H         -2.24660        1.96010       -6.88320
H         -0.66300        2.17350       -6.07180
H         -3.84720        3.14510       -2.52480
H         -4.29000        1.30550       -0.95300
H         -2.90450        3.98390        2.24040
H         -1.60560        4.89220        1.44700
H         -4.26020        4.17020        0.11990
H         -2.93000        5.06470       -0.62030
H         -3.81500        5.76160        0.74440
H         -2.86140        0.26720        2.54950
H         -2.67990        1.92810        3.14120
H         -5.06820        1.28670        2.97200
H         -4.87710        0.92250        1.26260
H         -4.72670        2.58790        1.83360
H          1.17380        4.19480       -0.28060
H          1.51230        6.00240        1.00380
H          1.92470        7.72350        1.05360
H          3.69710        6.35850        2.15400
H          4.33650        7.16290        0.71680
H          3.93280        5.44400        0.65970
H          1.50610        5.66120       -5.03030
H          0.69570        3.41380       -4.45850
H          2.54270        8.23950       -4.96940
H          3.55320       10.37970       -4.28380
H          3.17920        9.32600       -0.14460
H          4.01490       11.97350       -2.60610
H          9.33220       11.33370        2.88650
H          9.28040       13.69410        2.20300
H          7.61460       14.51350        0.59960
