
  xtb     02092203313D
 energy: -363.140082842693 gnorm: 0.000430655428 xtb: 6.4.1 (unknown)
210228  0     0  0            999 V2000
   -0.4539    6.9536    5.9400 C   0  0  0  0  0  0  0  0  0  0  0  0
   -0.2167    6.5733    7.2327 C   0  0  0  0  0  0  0  0  0  0  0  0
    0.5497    5.3954    7.6604 C   0  0  0  0  0  0  0  0  0  0  0  0
    1.0002    4.5160    6.9502 O   0  0  0  0  0  0  0  0  0  0  0  0
    0.6791    5.5097    9.1248 C   0  0  0  0  0  0  0  0  0  0  0  0
    1.3486    4.6940   10.0224 C   0  0  0  0  0  0  0  0  0  0  0  0
    2.1784    3.2895    9.4902 Cl  0  0  0  0  0  0  0  0  0  0  0  0
    1.3403    5.0350   11.3735 C   0  0  0  0  0  0  0  0  0  0  0  0
    0.6733    6.1697   11.7993 C   0  0  0  0  0  0  0  0  0  0  0  0
   -0.0066    6.9943   10.9098 C   0  0  0  0  0  0  0  0  0  0  0  0
   -0.0044    6.6601    9.5668 C   0  0  0  0  0  0  0  0  0  0  0  0
   -0.6214    7.3106    8.4103 C   0  0  0  0  0  0  0  0  0  0  0  0
   -1.4889    8.3695    8.4608 C   0  0  0  0  0  0  0  0  0  0  0  0
   -2.1848    8.9302    7.3682 C   0  0  0  0  0  0  0  0  0  0  0  0
   -2.8319    9.4452    6.5711 N   0  0  0  0  0  0  0  0  0  0  0  0
   -1.8629    9.0287    9.6511 C   0  0  0  0  0  0  0  0  0  0  0  0
   -2.2079    9.6121   10.5778 N   0  0  0  0  0  0  0  0  0  0  0  0
   -0.2197    6.2669    4.7381 C   0  0  0  0  0  0  0  0  0  0  0  0
    0.3253    4.6115    4.5972 S   0  0  0  0  0  0  0  0  0  0  0  0
   -0.0561    4.5872    2.9096 C   0  0  0  0  0  0  0  0  0  0  0  0
   -0.4953    5.8295    2.4520 C   0  0  0  0  0  0  0  0  0  0  0  0
   -0.7818    6.1351    1.0437 C   0  0  0  0  0  0  0  0  0  0  0  0
   -0.4561    5.4022    0.1243 O   0  0  0  0  0  0  0  0  0  0  0  0
   -1.4857    7.4057    0.8620 C   0  0  0  0  0  0  0  0  0  0  0  0
   -2.1009    7.8067   -0.2961 C   0  0  0  0  0  0  0  0  0  0  0  0
   -2.2615    7.0753   -1.5803 C   0  0  0  0  0  0  0  0  0  0  0  0
   -3.7337    6.8326   -1.9157 C   0  0  0  0  0  0  0  0  0  0  0  0
   -2.8032    9.3822   -0.1032 S   0  0  0  0  0  0  0  0  0  0  0  0
   -2.2399    9.5172    1.5267 C   0  0  0  0  0  0  0  0  0  0  0  0
   -2.5368   10.7448    2.3102 C   0  0  0  0  0  0  0  0  0  0  0  0
   -3.6425   10.5026    3.3414 C   0  0  0  0  0  0  0  0  0  0  0  0
   -1.5800    8.3768    1.9125 C   0  0  0  0  0  0  0  0  0  0  0  0
   -1.0025    8.1695    3.2403 C   0  0  0  0  0  0  0  0  0  0  0  0
   -0.8915    9.0619    4.0653 O   0  0  0  0  0  0  0  0  0  0  0  0
   -0.5750    6.7816    3.4825 C   0  0  0  0  0  0  0  0  0  0  0  0
   -0.0351    3.3775    2.1598 C   0  0  0  0  0  0  0  0  0  0  0  0
   -1.0389    2.9243    1.3051 C   0  0  0  0  0  0  0  0  0  0  0  0
   -2.2939    3.4905    1.2171 N   0  0  0  0  0  0  0  0  0  0  0  0
   -3.0503    3.3914    0.0449 C   0  0  0  0  0  0  0  0  0  0  0  0
   -4.4345    3.2610    0.1197 C   0  0  0  0  0  0  0  0  0  0  0  0
   -5.1978    3.1701   -1.0271 C   0  0  0  0  0  0  0  0  0  0  0  0
   -4.5860    3.1971   -2.2729 C   0  0  0  0  0  0  0  0  0  0  0  0
   -5.4594    3.1076   -3.8028 S   0  0  0  0  0  0  0  0  0  0  0  0
   -7.2028    2.9763   -3.3112 C   0  0  0  0  0  0  0  0  0  0  0  0
   -3.2002    3.3211   -2.3520 C   0  0  0  0  0  0  0  0  0  0  0  0
   -2.4386    3.4218   -1.2093 C   0  0  0  0  0  0  0  0  0  0  0  0
   -2.8340    4.1074    2.3600 C   0  0  0  0  0  0  0  0  0  0  0  0
   -2.6605    3.5200    3.6154 C   0  0  0  0  0  0  0  0  0  0  0  0
   -3.0874    4.1652    4.7514 C   0  0  0  0  0  0  0  0  0  0  0  0
   -3.7061    5.4124    4.6683 C   0  0  0  0  0  0  0  0  0  0  0  0
   -4.1261    6.1689    6.2047 S   0  0  0  0  0  0  0  0  0  0  0  0
   -5.2157    7.5398    5.7356 C   0  0  0  0  0  0  0  0  0  0  0  0
   -3.9364    5.9736    3.4195 C   0  0  0  0  0  0  0  0  0  0  0  0
   -3.5114    5.3198    2.2767 C   0  0  0  0  0  0  0  0  0  0  0  0
   -0.6436    1.7245    0.6745 C   0  0  0  0  0  0  0  0  0  0  0  0
   -1.3297    0.6825   -0.5154 S   0  0  0  0  0  0  0  0  0  0  0  0
    0.0441   -0.4332   -0.4082 C   0  0  0  0  0  0  0  0  0  0  0  0
    0.9426   -0.0260    0.5707 C   0  0  0  0  0  0  0  0  0  0  0  0
    2.1021   -0.6632    1.0365 N   0  0  0  0  0  0  0  0  0  0  0  0
    3.2524    0.1373    0.9601 C   0  0  0  0  0  0  0  0  0  0  0  0
    4.2211    0.2036    1.9582 C   0  0  0  0  0  0  0  0  0  0  0  0
    5.3608    0.9644    1.7850 C   0  0  0  0  0  0  0  0  0  0  0  0
    5.5377    1.7136    0.6305 C   0  0  0  0  0  0  0  0  0  0  0  0
    6.9773    2.6856    0.3087 S   0  0  0  0  0  0  0  0  0  0  0  0
    8.2510    1.8376    1.2855 C   0  0  0  0  0  0  0  0  0  0  0  0
    4.5242    1.7366   -0.3219 C   0  0  0  0  0  0  0  0  0  0  0  0
    3.4066    0.9507   -0.1665 C   0  0  0  0  0  0  0  0  0  0  0  0
    1.9762   -1.8015    1.8350 C   0  0  0  0  0  0  0  0  0  0  0  0
    3.0880   -2.5518    2.2266 C   0  0  0  0  0  0  0  0  0  0  0  0
    2.9332   -3.7163    2.9434 C   0  0  0  0  0  0  0  0  0  0  0  0
    1.6701   -4.1721    3.3091 C   0  0  0  0  0  0  0  0  0  0  0  0
    1.6119   -5.7120    4.1673 S   0  0  0  0  0  0  0  0  0  0  0  0
   -0.1562   -6.0008    4.4449 C   0  0  0  0  0  0  0  0  0  0  0  0
    0.5639   -3.4060    2.9753 C   0  0  0  0  0  0  0  0  0  0  0  0
    0.7189   -2.2386    2.2518 C   0  0  0  0  0  0  0  0  0  0  0  0
    0.5656    1.2211    1.1257 C   0  0  0  0  0  0  0  0  0  0  0  0
    1.2887    2.2388    2.3206 S   0  0  0  0  0  0  0  0  0  0  0  0
   -0.0144   -1.4977   -1.3561 C   0  0  0  0  0  0  0  0  0  0  0  0
    0.6559   -2.7012   -1.5405 C   0  0  0  0  0  0  0  0  0  0  0  0
    1.7510   -3.2313   -0.8399 N   0  0  0  0  0  0  0  0  0  0  0  0
    3.0265   -2.7127   -1.0532 C   0  0  0  0  0  0  0  0  0  0  0  0
    4.1329   -3.1997   -0.3507 C   0  0  0  0  0  0  0  0  0  0  0  0
    5.3734   -2.6253   -0.5079 C   0  0  0  0  0  0  0  0  0  0  0  0
    5.5622   -1.5552   -1.3772 C   0  0  0  0  0  0  0  0  0  0  0  0
    7.1882   -0.8687   -1.4314 S   0  0  0  0  0  0  0  0  0  0  0  0
    7.0917    0.4132   -2.7096 C   0  0  0  0  0  0  0  0  0  0  0  0
    4.4839   -1.0982   -2.1184 C   0  0  0  0  0  0  0  0  0  0  0  0
    3.2369   -1.6729   -1.9581 C   0  0  0  0  0  0  0  0  0  0  0  0
    1.5088   -4.5427   -0.3831 C   0  0  0  0  0  0  0  0  0  0  0  0
    2.3764   -5.6095   -0.5933 C   0  0  0  0  0  0  0  0  0  0  0  0
    2.0696   -6.8725   -0.1254 C   0  0  0  0  0  0  0  0  0  0  0  0
    0.8697   -7.1041    0.5310 C   0  0  0  0  0  0  0  0  0  0  0  0
    0.3738   -8.6630    1.1852 S   0  0  0  0  0  0  0  0  0  0  0  0
    1.8317   -9.7152    0.9547 C   0  0  0  0  0  0  0  0  0  0  0  0
   -0.0338   -6.0549    0.6806 C   0  0  0  0  0  0  0  0  0  0  0  0
    0.2834   -4.7928    0.2388 C   0  0  0  0  0  0  0  0  0  0  0  0
    0.0825   -3.4595   -2.5909 C   0  0  0  0  0  0  0  0  0  0  0  0
    0.3473   -5.0727   -3.1442 S   0  0  0  0  0  0  0  0  0  0  0  0
   -0.8950   -4.8607   -4.3853 C   0  0  0  0  0  0  0  0  0  0  0  0
   -1.5127   -3.5847   -4.3038 C   0  0  0  0  0  0  0  0  0  0  0  0
   -2.5283   -3.1127   -5.0963 N   0  0  0  0  0  0  0  0  0  0  0  0
   -2.5509   -1.7322   -5.3705 C   0  0  0  0  0  0  0  0  0  0  0  0
   -3.7396   -1.0057   -5.3159 C   0  0  0  0  0  0  0  0  0  0  0  0
   -3.7309    0.3499   -5.5543 C   0  0  0  0  0  0  0  0  0  0  0  0
   -2.5385    1.0106   -5.8492 C   0  0  0  0  0  0  0  0  0  0  0  0
   -2.6445    2.7473   -6.1206 S   0  0  0  0  0  0  0  0  0  0  0  0
   -0.9081    3.2823   -6.1898 C   0  0  0  0  0  0  0  0  0  0  0  0
   -1.3571    0.2850   -5.9299 C   0  0  0  0  0  0  0  0  0  0  0  0
   -1.3673   -1.0747   -5.6949 C   0  0  0  0  0  0  0  0  0  0  0  0
   -3.5594   -3.9321   -5.5817 C   0  0  0  0  0  0  0  0  0  0  0  0
   -4.0602   -4.9783   -4.8030 C   0  0  0  0  0  0  0  0  0  0  0  0
   -4.9982   -5.8381   -5.3250 C   0  0  0  0  0  0  0  0  0  0  0  0
   -5.4767   -5.6582   -6.6231 C   0  0  0  0  0  0  0  0  0  0  0  0
   -6.6089   -6.8641   -7.2351 S   0  0  0  0  0  0  0  0  0  0  0  0
   -6.4722   -6.6746   -9.0356 C   0  0  0  0  0  0  0  0  0  0  0  0
   -5.0487   -4.5649   -7.3633 C   0  0  0  0  0  0  0  0  0  0  0  0
   -4.0883   -3.7147   -6.8505 C   0  0  0  0  0  0  0  0  0  0  0  0
   -0.9443   -2.8240   -3.2712 C   0  0  0  0  0  0  0  0  0  0  0  0
   -1.2640   -1.2656   -2.5908 S   0  0  0  0  0  0  0  0  0  0  0  0
   -1.2055   -5.8075   -5.3576 C   0  0  0  0  0  0  0  0  0  0  0  0
   -0.8598   -7.1393   -5.4529 C   0  0  0  0  0  0  0  0  0  0  0  0
   -0.0792   -7.9009   -4.4758 C   0  0  0  0  0  0  0  0  0  0  0  0
    0.5669   -7.4704   -3.5375 O   0  0  0  0  0  0  0  0  0  0  0  0
   -0.2283   -9.3194   -4.8595 C   0  0  0  0  0  0  0  0  0  0  0  0
    0.2672  -10.4601   -4.2542 C   0  0  0  0  0  0  0  0  0  0  0  0
    1.2193  -10.3573   -2.8335 Cl  0  0  0  0  0  0  0  0  0  0  0  0
   -0.0203  -11.7020   -4.8164 C   0  0  0  0  0  0  0  0  0  0  0  0
   -0.7891  -11.7793   -5.9635 C   0  0  0  0  0  0  0  0  0  0  0  0
   -1.2925  -10.6407   -6.5841 C   0  0  0  0  0  0  0  0  0  0  0  0
   -1.0109   -9.4066   -6.0262 C   0  0  0  0  0  0  0  0  0  0  0  0
   -1.3771   -8.0506   -6.4403 C   0  0  0  0  0  0  0  0  0  0  0  0
   -2.0794   -7.7353   -7.5793 C   0  0  0  0  0  0  0  0  0  0  0  0
   -2.2939   -6.4349   -8.0710 C   0  0  0  0  0  0  0  0  0  0  0  0
   -2.4859   -5.4183   -8.5743 N   0  0  0  0  0  0  0  0  0  0  0  0
   -2.6612   -8.6776   -8.4497 C   0  0  0  0  0  0  0  0  0  0  0  0
   -3.1879   -9.3736   -9.1967 N   0  0  0  0  0  0  0  0  0  0  0  0
   -0.9109    7.9254    5.7915 H   0  0  0  0  0  0  0  0  0  0  0  0
    1.8597    4.4073   12.0798 H   0  0  0  0  0  0  0  0  0  0  0  0
    0.6805    6.4220   12.8486 H   0  0  0  0  0  0  0  0  0  0  0  0
   -0.5139    7.8728   11.2720 H   0  0  0  0  0  0  0  0  0  0  0  0
   -1.7340    6.1244   -1.5054 H   0  0  0  0  0  0  0  0  0  0  0  0
   -1.8055    7.6601   -2.3840 H   0  0  0  0  0  0  0  0  0  0  0  0
   -3.8157    6.2998   -2.8591 H   0  0  0  0  0  0  0  0  0  0  0  0
   -4.2064    6.2275   -1.1445 H   0  0  0  0  0  0  0  0  0  0  0  0
   -4.2697    7.7762   -1.9979 H   0  0  0  0  0  0  0  0  0  0  0  0
   -1.6329   11.0497    2.8418 H   0  0  0  0  0  0  0  0  0  0  0  0
   -2.8362   11.5414    1.6262 H   0  0  0  0  0  0  0  0  0  0  0  0
   -3.9162   11.4421    3.8127 H   0  0  0  0  0  0  0  0  0  0  0  0
   -4.5261   10.0786    2.8674 H   0  0  0  0  0  0  0  0  0  0  0  0
   -3.2825    9.8313    4.1153 H   0  0  0  0  0  0  0  0  0  0  0  0
   -4.9167    3.2275    1.0857 H   0  0  0  0  0  0  0  0  0  0  0  0
   -6.2669    3.0719   -0.9308 H   0  0  0  0  0  0  0  0  0  0  0  0
   -7.5006    3.8579   -2.7513 H   0  0  0  0  0  0  0  0  0  0  0  0
   -7.3615    2.0689   -2.7359 H   0  0  0  0  0  0  0  0  0  0  0  0
   -7.7625    2.9257   -4.2401 H   0  0  0  0  0  0  0  0  0  0  0  0
   -2.7358    3.3504   -3.3251 H   0  0  0  0  0  0  0  0  0  0  0  0
   -1.3708    3.5608   -1.2724 H   0  0  0  0  0  0  0  0  0  0  0  0
   -2.1766    2.5579    3.6938 H   0  0  0  0  0  0  0  0  0  0  0  0
   -2.9411    3.7160    5.7215 H   0  0  0  0  0  0  0  0  0  0  0  0
   -4.6374    8.3314    5.2694 H   0  0  0  0  0  0  0  0  0  0  0  0
   -5.6406    7.9052    6.6654 H   0  0  0  0  0  0  0  0  0  0  0  0
   -6.0032    7.1717    5.0850 H   0  0  0  0  0  0  0  0  0  0  0  0
   -4.4257    6.9295    3.3230 H   0  0  0  0  0  0  0  0  0  0  0  0
   -3.6872    5.7651    1.3090 H   0  0  0  0  0  0  0  0  0  0  0  0
    4.0774   -0.3164    2.8918 H   0  0  0  0  0  0  0  0  0  0  0  0
    6.0986    0.9822    2.5712 H   0  0  0  0  0  0  0  0  0  0  0  0
    8.1846    0.7697    1.0997 H   0  0  0  0  0  0  0  0  0  0  0  0
    8.1359    2.0665    2.3410 H   0  0  0  0  0  0  0  0  0  0  0  0
    9.2025    2.2203    0.9301 H   0  0  0  0  0  0  0  0  0  0  0  0
    4.6273    2.3710   -1.1897 H   0  0  0  0  0  0  0  0  0  0  0  0
    2.6411    0.9587   -0.9272 H   0  0  0  0  0  0  0  0  0  0  0  0
    4.0780   -2.2386    1.9454 H   0  0  0  0  0  0  0  0  0  0  0  0
    3.7997   -4.2963    3.2233 H   0  0  0  0  0  0  0  0  0  0  0  0
   -0.6722   -6.0517    3.4916 H   0  0  0  0  0  0  0  0  0  0  0  0
   -0.2196   -6.9607    4.9477 H   0  0  0  0  0  0  0  0  0  0  0  0
   -0.5654   -5.2213    5.0812 H   0  0  0  0  0  0  0  0  0  0  0  0
   -0.4295   -3.7048    3.2689 H   0  0  0  0  0  0  0  0  0  0  0  0
   -0.1608   -1.6620    2.0064 H   0  0  0  0  0  0  0  0  0  0  0  0
    4.0158   -4.0181    0.3387 H   0  0  0  0  0  0  0  0  0  0  0  0
    6.2166   -2.9996    0.0533 H   0  0  0  0  0  0  0  0  0  0  0  0
    8.0924    0.8272   -2.7845 H   0  0  0  0  0  0  0  0  0  0  0  0
    6.3974    1.1884   -2.4015 H   0  0  0  0  0  0  0  0  0  0  0  0
    6.8025   -0.0318   -3.6572 H   0  0  0  0  0  0  0  0  0  0  0  0
    4.5963   -0.2921   -2.8254 H   0  0  0  0  0  0  0  0  0  0  0  0
    2.4134   -1.2992   -2.5485 H   0  0  0  0  0  0  0  0  0  0  0  0
    3.2847   -5.4676   -1.1574 H   0  0  0  0  0  0  0  0  0  0  0  0
    2.7671   -7.6732   -0.3083 H   0  0  0  0  0  0  0  0  0  0  0  0
    2.6846   -9.2727    1.4610 H   0  0  0  0  0  0  0  0  0  0  0  0
    2.0259   -9.8549   -0.1046 H   0  0  0  0  0  0  0  0  0  0  0  0
    1.5822  -10.6681    1.4111 H   0  0  0  0  0  0  0  0  0  0  0  0
   -0.9915   -6.2480    1.1412 H   0  0  0  0  0  0  0  0  0  0  0  0
   -0.4240   -3.9866    0.3610 H   0  0  0  0  0  0  0  0  0  0  0  0
   -4.6625   -1.5104   -5.0730 H   0  0  0  0  0  0  0  0  0  0  0  0
   -4.6430    0.9226   -5.4986 H   0  0  0  0  0  0  0  0  0  0  0  0
   -0.4285    2.8949   -7.0839 H   0  0  0  0  0  0  0  0  0  0  0  0
   -0.3880    2.9637   -5.2913 H   0  0  0  0  0  0  0  0  0  0  0  0
   -0.9399    4.3666   -6.2335 H   0  0  0  0  0  0  0  0  0  0  0  0
   -0.4244    0.7619   -6.1832 H   0  0  0  0  0  0  0  0  0  0  0  0
   -0.4483   -1.6379   -5.7688 H   0  0  0  0  0  0  0  0  0  0  0  0
   -3.6841   -5.1282   -3.8019 H   0  0  0  0  0  0  0  0  0  0  0  0
   -5.3685   -6.6649   -4.7386 H   0  0  0  0  0  0  0  0  0  0  0  0
   -6.9309   -7.5618   -9.4606 H   0  0  0  0  0  0  0  0  0  0  0  0
   -7.0077   -5.7890   -9.3655 H   0  0  0  0  0  0  0  0  0  0  0  0
   -5.4237   -6.6298   -9.3144 H   0  0  0  0  0  0  0  0  0  0  0  0
   -5.4298   -4.3815   -8.3539 H   0  0  0  0  0  0  0  0  0  0  0  0
   -3.7258   -2.8935   -7.4487 H   0  0  0  0  0  0  0  0  0  0  0  0
   -1.8679   -5.4435   -6.1324 H   0  0  0  0  0  0  0  0  0  0  0  0
    0.3610  -12.5964   -4.3497 H   0  0  0  0  0  0  0  0  0  0  0  0
   -1.0042  -12.7480   -6.3881 H   0  0  0  0  0  0  0  0  0  0  0  0
   -1.8894  -10.7338   -7.4762 H   0  0  0  0  0  0  0  0  0  0  0  0
  1  2  2  0  0  0  0
  2  3  1  0  0  0  0
  3  4  2  0  0  0  0
  3  5  1  0  0  0  0
  5  6  2  0  0  0  0
  6  7  1  0  0  0  0
  6  8  1  0  0  0  0
  8  9  2  0  0  0  0
  9 10  1  0  0  0  0
 10 11  2  0  0  0  0
 11 12  1  0  0  0  0
 12 13  2  0  0  0  0
 13 14  1  0  0  0  0
 14 15  3  0  0  0  0
 13 16  1  0  0  0  0
 16 17  3  0  0  0  0
  1 18  1  0  0  0  0
 18 19  1  0  0  0  0
 19 20  1  0  0  0  0
 20 21  2  0  0  0  0
 21 22  1  0  0  0  0
 22 23  2  0  0  0  0
 22 24  1  0  0  0  0
 24 25  2  0  0  0  0
 25 26  1  0  0  0  0
 26 27  1  0  0  0  0
 25 28  1  0  0  0  0
 28 29  1  0  0  0  0
 29 30  1  0  0  0  0
 30 31  1  0  0  0  0
 29 32  2  0  0  0  0
 32 33  1  0  0  0  0
 33 34  2  0  0  0  0
 33 35  1  0  0  0  0
 20 36  1  0  0  0  0
 36 37  2  0  0  0  0
 37 38  1  0  0  0  0
 38 39  1  0  0  0  0
 39 40  2  0  0  0  0
 40 41  1  0  0  0  0
 41 42  2  0  0  0  0
 42 43  1  0  0  0  0
 43 44  1  0  0  0  0
 42 45  1  0  0  0  0
 45 46  2  0  0  0  0
 38 47  1  0  0  0  0
 47 48  2  0  0  0  0
 48 49  1  0  0  0  0
 49 50  2  0  0  0  0
 50 51  1  0  0  0  0
 51 52  1  0  0  0  0
 50 53  1  0  0  0  0
 53 54  2  0  0  0  0
 37 55  1  0  0  0  0
 55 56  1  0  0  0  0
 56 57  1  0  0  0  0
 57 58  2  0  0  0  0
 58 59  1  0  0  0  0
 59 60  1  0  0  0  0
 60 61  2  0  0  0  0
 61 62  1  0  0  0  0
 62 63  2  0  0  0  0
 63 64  1  0  0  0  0
 64 65  1  0  0  0  0
 63 66  1  0  0  0  0
 66 67  2  0  0  0  0
 59 68  1  0  0  0  0
 68 69  2  0  0  0  0
 69 70  1  0  0  0  0
 70 71  2  0  0  0  0
 71 72  1  0  0  0  0
 72 73  1  0  0  0  0
 71 74  1  0  0  0  0
 74 75  2  0  0  0  0
 58 76  1  0  0  0  0
 76 77  1  0  0  0  0
 57 78  1  0  0  0  0
 78 79  2  0  0  0  0
 79 80  1  0  0  0  0
 80 81  1  0  0  0  0
 81 82  2  0  0  0  0
 82 83  1  0  0  0  0
 83 84  2  0  0  0  0
 84 85  1  0  0  0  0
 85 86  1  0  0  0  0
 84 87  1  0  0  0  0
 87 88  2  0  0  0  0
 80 89  1  0  0  0  0
 89 90  2  0  0  0  0
 90 91  1  0  0  0  0
 91 92  2  0  0  0  0
 92 93  1  0  0  0  0
 93 94  1  0  0  0  0
 92 95  1  0  0  0  0
 95 96  2  0  0  0  0
 79 97  1  0  0  0  0
 97 98  1  0  0  0  0
 98 99  1  0  0  0  0
 99100  2  0  0  0  0
100101  1  0  0  0  0
101102  1  0  0  0  0
102103  2  0  0  0  0
103104  1  0  0  0  0
104105  2  0  0  0  0
105106  1  0  0  0  0
106107  1  0  0  0  0
105108  1  0  0  0  0
108109  2  0  0  0  0
101110  1  0  0  0  0
110111  2  0  0  0  0
111112  1  0  0  0  0
112113  2  0  0  0  0
113114  1  0  0  0  0
114115  1  0  0  0  0
113116  1  0  0  0  0
116117  2  0  0  0  0
100118  1  0  0  0  0
118119  1  0  0  0  0
 99120  1  0  0  0  0
120121  2  0  0  0  0
121122  1  0  0  0  0
122123  2  0  0  0  0
122124  1  0  0  0  0
124125  2  0  0  0  0
125126  1  0  0  0  0
125127  1  0  0  0  0
127128  2  0  0  0  0
128129  1  0  0  0  0
129130  2  0  0  0  0
130131  1  0  0  0  0
131132  2  0  0  0  0
132133  1  0  0  0  0
133134  3  0  0  0  0
132135  1  0  0  0  0
135136  3  0  0  0  0
 12  2  1  0  0  0  0
 35 18  2  0  0  0  0
 77 36  1  0  0  0  0
119 78  1  0  0  0  0
131121  1  0  0  0  0
 11  5  1  0  0  0  0
 35 21  1  0  0  0  0
 46 39  1  0  0  0  0
 54 47  1  0  0  0  0
 76 55  2  0  0  0  0
 88 81  1  0  0  0  0
 96 89  1  0  0  0  0
118 97  2  0  0  0  0
130124  1  0  0  0  0
 32 24  1  0  0  0  0
 67 60  1  0  0  0  0
 75 68  1  0  0  0  0
109102  1  0  0  0  0
117110  1  0  0  0  0
  1137  1  0  0  0  0
  8138  1  0  0  0  0
  9139  1  0  0  0  0
 10140  1  0  0  0  0
 26141  1  0  0  0  0
 26142  1  0  0  0  0
 27143  1  0  0  0  0
 27144  1  0  0  0  0
 27145  1  0  0  0  0
 30146  1  0  0  0  0
 30147  1  0  0  0  0
 31148  1  0  0  0  0
 31149  1  0  0  0  0
 31150  1  0  0  0  0
 40151  1  0  0  0  0
 41152  1  0  0  0  0
 44153  1  0  0  0  0
 44154  1  0  0  0  0
 44155  1  0  0  0  0
 45156  1  0  0  0  0
 46157  1  0  0  0  0
 48158  1  0  0  0  0
 49159  1  0  0  0  0
 52160  1  0  0  0  0
 52161  1  0  0  0  0
 52162  1  0  0  0  0
 53163  1  0  0  0  0
 54164  1  0  0  0  0
 61165  1  0  0  0  0
 62166  1  0  0  0  0
 65167  1  0  0  0  0
 65168  1  0  0  0  0
 65169  1  0  0  0  0
 66170  1  0  0  0  0
 67171  1  0  0  0  0
 69172  1  0  0  0  0
 70173  1  0  0  0  0
 73174  1  0  0  0  0
 73175  1  0  0  0  0
 73176  1  0  0  0  0
 74177  1  0  0  0  0
 75178  1  0  0  0  0
 82179  1  0  0  0  0
 83180  1  0  0  0  0
 86181  1  0  0  0  0
 86182  1  0  0  0  0
 86183  1  0  0  0  0
 87184  1  0  0  0  0
 88185  1  0  0  0  0
 90186  1  0  0  0  0
 91187  1  0  0  0  0
 94188  1  0  0  0  0
 94189  1  0  0  0  0
 94190  1  0  0  0  0
 95191  1  0  0  0  0
 96192  1  0  0  0  0
103193  1  0  0  0  0
104194  1  0  0  0  0
107195  1  0  0  0  0
107196  1  0  0  0  0
107197  1  0  0  0  0
108198  1  0  0  0  0
109199  1  0  0  0  0
111200  1  0  0  0  0
112201  1  0  0  0  0
115202  1  0  0  0  0
115203  1  0  0  0  0
115204  1  0  0  0  0
116205  1  0  0  0  0
117206  1  0  0  0  0
120207  1  0  0  0  0
127208  1  0  0  0  0
128209  1  0  0  0  0
129210  1  0  0  0  0
M  END
