
  xtb     02082223353D
 energy: -300.422756256778 gnorm: 0.000547520092 xtb: 6.4.1 (unknown)
168183  0     0  0            999 V2000
    0.4000    6.9640   -2.9448 C   0  0  0  0  0  0  0  0  0  0  0  0
   -0.1059    8.2106   -3.1447 C   0  0  0  0  0  0  0  0  0  0  0  0
    0.6475    9.1357   -4.0412 C   0  0  0  0  0  0  0  0  0  0  0  0
    1.7976    9.0183   -4.3899 O   0  0  0  0  0  0  0  0  0  0  0  0
   -0.3348   10.1664   -4.4355 C   0  0  0  0  0  0  0  0  0  0  0  0
   -0.2242   11.1953   -5.3573 C   0  0  0  0  0  0  0  0  0  0  0  0
    1.2397   11.4629   -6.2102 Cl  0  0  0  0  0  0  0  0  0  0  0  0
   -1.3283   12.0150   -5.5839 C   0  0  0  0  0  0  0  0  0  0  0  0
   -2.5119   11.7947   -4.9016 C   0  0  0  0  0  0  0  0  0  0  0  0
   -2.6348   10.7732   -3.9669 C   0  0  0  0  0  0  0  0  0  0  0  0
   -1.5388    9.9625   -3.7317 C   0  0  0  0  0  0  0  0  0  0  0  0
   -1.3562    8.8476   -2.8044 C   0  0  0  0  0  0  0  0  0  0  0  0
   -2.1270    8.6055   -1.6986 C   0  0  0  0  0  0  0  0  0  0  0  0
   -1.7765    7.6807   -0.6962 C   0  0  0  0  0  0  0  0  0  0  0  0
   -1.5146    6.9675    0.1648 N   0  0  0  0  0  0  0  0  0  0  0  0
   -3.3624    9.2279   -1.4405 C   0  0  0  0  0  0  0  0  0  0  0  0
   -4.4034    9.6542   -1.2088 N   0  0  0  0  0  0  0  0  0  0  0  0
   -0.1890    5.7726   -2.4574 C   0  0  0  0  0  0  0  0  0  0  0  0
    0.9050    4.5288   -1.8965 S   0  0  0  0  0  0  0  0  0  0  0  0
   -0.4058    3.4704   -1.4723 C   0  0  0  0  0  0  0  0  0  0  0  0
   -1.6324    4.0895   -1.6996 C   0  0  0  0  0  0  0  0  0  0  0  0
   -2.8934    3.6302   -1.1163 C   0  0  0  0  0  0  0  0  0  0  0  0
   -2.9448    2.7200   -0.3016 O   0  0  0  0  0  0  0  0  0  0  0  0
   -4.0512    4.4209   -1.5304 C   0  0  0  0  0  0  0  0  0  0  0  0
   -5.3434    4.1502   -1.1672 C   0  0  0  0  0  0  0  0  0  0  0  0
   -5.8500    3.1254   -0.2192 C   0  0  0  0  0  0  0  0  0  0  0  0
   -5.8090    3.6564    1.2169 C   0  0  0  0  0  0  0  0  0  0  0  0
   -6.4464    5.2354   -1.9451 S   0  0  0  0  0  0  0  0  0  0  0  0
   -5.1736    6.0572   -2.7763 C   0  0  0  0  0  0  0  0  0  0  0  0
   -5.4821    7.2134   -3.6561 C   0  0  0  0  0  0  0  0  0  0  0  0
   -6.7376    6.9882   -4.4934 C   0  0  0  0  0  0  0  0  0  0  0  0
   -3.9506    5.5153   -2.4521 C   0  0  0  0  0  0  0  0  0  0  0  0
   -2.6731    5.9823   -2.9651 C   0  0  0  0  0  0  0  0  0  0  0  0
   -2.5544    6.7915   -3.8784 O   0  0  0  0  0  0  0  0  0  0  0  0
   -1.5078    5.3509   -2.3309 C   0  0  0  0  0  0  0  0  0  0  0  0
   -0.1438    2.1407   -1.0699 C   0  0  0  0  0  0  0  0  0  0  0  0
   -0.8719    0.9692   -1.2937 C   0  0  0  0  0  0  0  0  0  0  0  0
   -2.0651    0.7976   -1.9550 N   0  0  0  0  0  0  0  0  0  0  0  0
   -2.5410    1.5948   -2.9914 C   0  0  0  0  0  0  0  0  0  0  0  0
   -3.9210    1.7308   -3.1764 C   0  0  0  0  0  0  0  0  0  0  0  0
   -4.4190    2.5623   -4.1512 C   0  0  0  0  0  0  0  0  0  0  0  0
   -3.5586    3.2924   -4.9704 C   0  0  0  0  0  0  0  0  0  0  0  0
   -4.3150    4.3718   -6.1383 S   0  0  0  0  0  0  0  0  0  0  0  0
   -2.9483    5.3865   -6.7639 C   0  0  0  0  0  0  0  0  0  0  0  0
   -2.1876    3.1173   -4.8335 C   0  0  0  0  0  0  0  0  0  0  0  0
   -1.6872    2.2731   -3.8606 C   0  0  0  0  0  0  0  0  0  0  0  0
   -2.8606   -0.2831   -1.4993 C   0  0  0  0  0  0  0  0  0  0  0  0
   -3.1406   -0.3993   -0.1411 C   0  0  0  0  0  0  0  0  0  0  0  0
   -3.7896   -1.5152    0.3465 C   0  0  0  0  0  0  0  0  0  0  0  0
   -4.1725   -2.5272   -0.5254 C   0  0  0  0  0  0  0  0  0  0  0  0
   -4.9227   -4.0306    0.0070 S   0  0  0  0  0  0  0  0  0  0  0  0
   -4.4920   -4.1213    1.7690 C   0  0  0  0  0  0  0  0  0  0  0  0
   -3.9665   -2.3715   -1.8954 C   0  0  0  0  0  0  0  0  0  0  0  0
   -3.3134   -1.2600   -2.3823 C   0  0  0  0  0  0  0  0  0  0  0  0
   -0.1959   -0.1391   -0.7144 C   0  0  0  0  0  0  0  0  0  0  0  0
   -0.5168   -1.8371   -0.6773 S   0  0  0  0  0  0  0  0  0  0  0  0
    0.9204   -2.1072    0.2748 C   0  0  0  0  0  0  0  0  0  0  0  0
    1.6237   -0.9487    0.5392 C   0  0  0  0  0  0  0  0  0  0  0  0
    2.7377   -0.8696    1.3517 N   0  0  0  0  0  0  0  0  0  0  0  0
    3.6113   -1.9816    1.4293 C   0  0  0  0  0  0  0  0  0  0  0  0
    4.4686   -2.2676    0.3711 C   0  0  0  0  0  0  0  0  0  0  0  0
    5.3108   -3.3550    0.4457 C   0  0  0  0  0  0  0  0  0  0  0  0
    5.2960   -4.1877    1.5654 C   0  0  0  0  0  0  0  0  0  0  0  0
    6.3937   -5.5626    1.5271 S   0  0  0  0  0  0  0  0  0  0  0  0
    6.0608   -6.4604    3.0656 C   0  0  0  0  0  0  0  0  0  0  0  0
    4.4497   -3.8940    2.6281 C   0  0  0  0  0  0  0  0  0  0  0  0
    3.6280   -2.7846    2.5639 C   0  0  0  0  0  0  0  0  0  0  0  0
    2.9135    0.1861    2.2475 C   0  0  0  0  0  0  0  0  0  0  0  0
    4.2022    0.5202    2.6702 C   0  0  0  0  0  0  0  0  0  0  0  0
    4.4007    1.5793    3.5253 C   0  0  0  0  0  0  0  0  0  0  0  0
    3.3216    2.3367    3.9783 C   0  0  0  0  0  0  0  0  0  0  0  0
    3.6960    3.6888    5.0492 S   0  0  0  0  0  0  0  0  0  0  0  0
    2.1398    4.6212    5.1228 C   0  0  0  0  0  0  0  0  0  0  0  0
    2.0359    1.9865    3.5910 C   0  0  0  0  0  0  0  0  0  0  0  0
    1.8348    0.9165    2.7415 C   0  0  0  0  0  0  0  0  0  0  0  0
    0.9904    0.1654   -0.0726 C   0  0  0  0  0  0  0  0  0  0  0  0
    1.3723    1.8417   -0.2138 S   0  0  0  0  0  0  0  0  0  0  0  0
    1.1644   -3.4336    0.7876 C   0  0  0  0  0  0  0  0  0  0  0  0
    0.2968   -3.9846    2.1726 S   0  0  0  0  0  0  0  0  0  0  0  0
    1.1607   -5.5003    2.1639 C   0  0  0  0  0  0  0  0  0  0  0  0
    2.0358   -5.5689    1.0719 C   0  0  0  0  0  0  0  0  0  0  0  0
    2.8984   -6.7183    0.7528 C   0  0  0  0  0  0  0  0  0  0  0  0
    2.9109   -7.7496    1.4101 O   0  0  0  0  0  0  0  0  0  0  0  0
    3.7447   -6.5061   -0.4171 C   0  0  0  0  0  0  0  0  0  0  0  0
    4.7312   -7.3735   -0.8214 C   0  0  0  0  0  0  0  0  0  0  0  0
    5.1267   -8.6788   -0.2366 C   0  0  0  0  0  0  0  0  0  0  0  0
    4.2658   -9.8102   -0.8068 C   0  0  0  0  0  0  0  0  0  0  0  0
    5.5410   -6.7831   -2.2287 S   0  0  0  0  0  0  0  0  0  0  0  0
    4.5568   -5.3620   -2.2906 C   0  0  0  0  0  0  0  0  0  0  0  0
    4.7355   -4.3357   -3.3479 C   0  0  0  0  0  0  0  0  0  0  0  0
    6.0536   -4.4661   -4.0977 C   0  0  0  0  0  0  0  0  0  0  0  0
    3.6537   -5.3475   -1.2556 C   0  0  0  0  0  0  0  0  0  0  0  0
    2.7434   -4.2433   -0.9838 C   0  0  0  0  0  0  0  0  0  0  0  0
    2.5919   -3.2773   -1.7140 O   0  0  0  0  0  0  0  0  0  0  0  0
    2.0066   -4.4052    0.2782 C   0  0  0  0  0  0  0  0  0  0  0  0
    1.0636   -6.4760    3.1715 C   0  0  0  0  0  0  0  0  0  0  0  0
    0.1396   -6.6097    4.1711 C   0  0  0  0  0  0  0  0  0  0  0  0
   -1.1457   -5.8994    4.2775 C   0  0  0  0  0  0  0  0  0  0  0  0
   -1.5030   -4.9178    3.6543 O   0  0  0  0  0  0  0  0  0  0  0  0
   -1.9296   -6.6505    5.2778 C   0  0  0  0  0  0  0  0  0  0  0  0
   -3.2305   -6.4588    5.7138 C   0  0  0  0  0  0  0  0  0  0  0  0
   -4.1916   -5.1787    5.0955 Cl  0  0  0  0  0  0  0  0  0  0  0  0
   -3.7533   -7.3243    6.6726 C   0  0  0  0  0  0  0  0  0  0  0  0
   -2.9797   -8.3553    7.1756 C   0  0  0  0  0  0  0  0  0  0  0  0
   -1.6693   -8.5547    6.7557 C   0  0  0  0  0  0  0  0  0  0  0  0
   -1.1449   -7.6962    5.8058 C   0  0  0  0  0  0  0  0  0  0  0  0
    0.1794   -7.6346    5.1929 C   0  0  0  0  0  0  0  0  0  0  0  0
    1.2916   -8.3274    5.5926 C   0  0  0  0  0  0  0  0  0  0  0  0
    1.2892   -9.3168    6.5973 C   0  0  0  0  0  0  0  0  0  0  0  0
    1.3415  -10.1356    7.4000 N   0  0  0  0  0  0  0  0  0  0  0  0
    2.5954   -8.0735    5.1142 C   0  0  0  0  0  0  0  0  0  0  0  0
    3.6884   -7.8709    4.8260 N   0  0  0  0  0  0  0  0  0  0  0  0
    1.4364    6.8577   -3.2571 H   0  0  0  0  0  0  0  0  0  0  0  0
   -1.2502   12.8187   -6.2986 H   0  0  0  0  0  0  0  0  0  0  0  0
   -3.3596   12.4332   -5.0987 H   0  0  0  0  0  0  0  0  0  0  0  0
   -3.5694   10.6170   -3.4541 H   0  0  0  0  0  0  0  0  0  0  0  0
   -6.8744    2.8552   -0.4833 H   0  0  0  0  0  0  0  0  0  0  0  0
   -5.2124    2.2414   -0.2820 H   0  0  0  0  0  0  0  0  0  0  0  0
   -6.1966    2.9057    1.9003 H   0  0  0  0  0  0  0  0  0  0  0  0
   -6.4096    4.5588    1.3090 H   0  0  0  0  0  0  0  0  0  0  0  0
   -4.7838    3.8858    1.4948 H   0  0  0  0  0  0  0  0  0  0  0  0
   -4.6234    7.3949   -4.3038 H   0  0  0  0  0  0  0  0  0  0  0  0
   -5.6198    8.0998   -3.0250 H   0  0  0  0  0  0  0  0  0  0  0  0
   -6.6134    6.1146   -5.1293 H   0  0  0  0  0  0  0  0  0  0  0  0
   -7.6040    6.8357   -3.8532 H   0  0  0  0  0  0  0  0  0  0  0  0
   -6.9222    7.8536   -5.1242 H   0  0  0  0  0  0  0  0  0  0  0  0
   -4.5992    1.1948   -2.5307 H   0  0  0  0  0  0  0  0  0  0  0  0
   -5.4849    2.6755   -4.2776 H   0  0  0  0  0  0  0  0  0  0  0  0
   -2.2402    4.7702   -7.3099 H   0  0  0  0  0  0  0  0  0  0  0  0
   -3.4058    6.1037   -7.4383 H   0  0  0  0  0  0  0  0  0  0  0  0
   -2.4763    5.9089   -5.9365 H   0  0  0  0  0  0  0  0  0  0  0  0
   -1.4953    3.6385   -5.4754 H   0  0  0  0  0  0  0  0  0  0  0  0
   -0.6193    2.1342   -3.7815 H   0  0  0  0  0  0  0  0  0  0  0  0
   -2.8373    0.3955    0.5228 H   0  0  0  0  0  0  0  0  0  0  0  0
   -3.9830   -1.5914    1.4040 H   0  0  0  0  0  0  0  0  0  0  0  0
   -4.7688   -5.1237    2.0813 H   0  0  0  0  0  0  0  0  0  0  0  0
   -5.0638   -3.3935    2.3376 H   0  0  0  0  0  0  0  0  0  0  0  0
   -3.4237   -3.9761    1.9008 H   0  0  0  0  0  0  0  0  0  0  0  0
   -4.2975   -3.1481   -2.5673 H   0  0  0  0  0  0  0  0  0  0  0  0
   -3.1237   -1.1566   -3.4402 H   0  0  0  0  0  0  0  0  0  0  0  0
    4.4640   -1.6319   -0.5007 H   0  0  0  0  0  0  0  0  0  0  0  0
    5.9967   -3.5745   -0.3580 H   0  0  0  0  0  0  0  0  0  0  0  0
    5.0313   -6.8040    3.0930 H   0  0  0  0  0  0  0  0  0  0  0  0
    6.2911   -5.8321    3.9206 H   0  0  0  0  0  0  0  0  0  0  0  0
    6.7299   -7.3151    3.0514 H   0  0  0  0  0  0  0  0  0  0  0  0
    4.4230   -4.5196    3.5058 H   0  0  0  0  0  0  0  0  0  0  0  0
    2.9788   -2.5446    3.3936 H   0  0  0  0  0  0  0  0  0  0  0  0
    5.0452   -0.0512    2.3117 H   0  0  0  0  0  0  0  0  0  0  0  0
    5.3975    1.8433    3.8433 H   0  0  0  0  0  0  0  0  0  0  0  0
    1.7969    4.8402    4.1161 H   0  0  0  0  0  0  0  0  0  0  0  0
    1.3935    4.0653    5.6830 H   0  0  0  0  0  0  0  0  0  0  0  0
    2.3754    5.5442    5.6434 H   0  0  0  0  0  0  0  0  0  0  0  0
    1.1773    2.5302    3.9502 H   0  0  0  0  0  0  0  0  0  0  0  0
    0.8260    0.6408    2.4740 H   0  0  0  0  0  0  0  0  0  0  0  0
    6.1789   -8.8705   -0.4542 H   0  0  0  0  0  0  0  0  0  0  0  0
    4.9820   -8.6414    0.8443 H   0  0  0  0  0  0  0  0  0  0  0  0
    4.5841  -10.7615   -0.3900 H   0  0  0  0  0  0  0  0  0  0  0  0
    3.2234   -9.6487   -0.5452 H   0  0  0  0  0  0  0  0  0  0  0  0
    4.3571   -9.8532   -1.8901 H   0  0  0  0  0  0  0  0  0  0  0  0
    3.8978   -4.4127   -4.0495 H   0  0  0  0  0  0  0  0  0  0  0  0
    4.6463   -3.3493   -2.8831 H   0  0  0  0  0  0  0  0  0  0  0  0
    6.1375   -3.6833   -4.8468 H   0  0  0  0  0  0  0  0  0  0  0  0
    6.8944   -4.3806   -3.4126 H   0  0  0  0  0  0  0  0  0  0  0  0
    6.1165   -5.4302   -4.5981 H   0  0  0  0  0  0  0  0  0  0  0  0
    1.8273   -7.2429    3.0954 H   0  0  0  0  0  0  0  0  0  0  0  0
   -4.7653   -7.1817    7.0167 H   0  0  0  0  0  0  0  0  0  0  0  0
   -3.4029   -9.0192    7.9136 H   0  0  0  0  0  0  0  0  0  0  0  0
   -1.0886   -9.3659    7.1628 H   0  0  0  0  0  0  0  0  0  0  0  0
  1  2  2  0  0  0  0
  2  3  1  0  0  0  0
  3  4  2  0  0  0  0
  3  5  1  0  0  0  0
  5  6  2  0  0  0  0
  6  7  1  0  0  0  0
  6  8  1  0  0  0  0
  8  9  2  0  0  0  0
  9 10  1  0  0  0  0
 10 11  2  0  0  0  0
 11 12  1  0  0  0  0
 12 13  2  0  0  0  0
 13 14  1  0  0  0  0
 14 15  3  0  0  0  0
 13 16  1  0  0  0  0
 16 17  3  0  0  0  0
  1 18  1  0  0  0  0
 18 19  1  0  0  0  0
 19 20  1  0  0  0  0
 20 21  2  0  0  0  0
 21 22  1  0  0  0  0
 22 23  2  0  0  0  0
 22 24  1  0  0  0  0
 24 25  2  0  0  0  0
 25 26  1  0  0  0  0
 26 27  1  0  0  0  0
 25 28  1  0  0  0  0
 28 29  1  0  0  0  0
 29 30  1  0  0  0  0
 30 31  1  0  0  0  0
 29 32  2  0  0  0  0
 32 33  1  0  0  0  0
 33 34  2  0  0  0  0
 33 35  1  0  0  0  0
 20 36  1  0  0  0  0
 36 37  2  0  0  0  0
 37 38  1  0  0  0  0
 38 39  1  0  0  0  0
 39 40  2  0  0  0  0
 40 41  1  0  0  0  0
 41 42  2  0  0  0  0
 42 43  1  0  0  0  0
 43 44  1  0  0  0  0
 42 45  1  0  0  0  0
 45 46  2  0  0  0  0
 38 47  1  0  0  0  0
 47 48  2  0  0  0  0
 48 49  1  0  0  0  0
 49 50  2  0  0  0  0
 50 51  1  0  0  0  0
 51 52  1  0  0  0  0
 50 53  1  0  0  0  0
 53 54  2  0  0  0  0
 37 55  1  0  0  0  0
 55 56  1  0  0  0  0
 56 57  1  0  0  0  0
 57 58  2  0  0  0  0
 58 59  1  0  0  0  0
 59 60  1  0  0  0  0
 60 61  2  0  0  0  0
 61 62  1  0  0  0  0
 62 63  2  0  0  0  0
 63 64  1  0  0  0  0
 64 65  1  0  0  0  0
 63 66  1  0  0  0  0
 66 67  2  0  0  0  0
 59 68  1  0  0  0  0
 68 69  2  0  0  0  0
 69 70  1  0  0  0  0
 70 71  2  0  0  0  0
 71 72  1  0  0  0  0
 72 73  1  0  0  0  0
 71 74  1  0  0  0  0
 74 75  2  0  0  0  0
 58 76  1  0  0  0  0
 76 77  1  0  0  0  0
 57 78  1  0  0  0  0
 78 79  1  0  0  0  0
 79 80  1  0  0  0  0
 80 81  2  0  0  0  0
 81 82  1  0  0  0  0
 82 83  2  0  0  0  0
 82 84  1  0  0  0  0
 84 85  2  0  0  0  0
 85 86  1  0  0  0  0
 86 87  1  0  0  0  0
 85 88  1  0  0  0  0
 88 89  1  0  0  0  0
 89 90  1  0  0  0  0
 90 91  1  0  0  0  0
 89 92  2  0  0  0  0
 92 93  1  0  0  0  0
 93 94  2  0  0  0  0
 93 95  1  0  0  0  0
 80 96  1  0  0  0  0
 96 97  2  0  0  0  0
 97 98  1  0  0  0  0
 98 99  2  0  0  0  0
 98100  1  0  0  0  0
100101  2  0  0  0  0
101102  1  0  0  0  0
101103  1  0  0  0  0
103104  2  0  0  0  0
104105  1  0  0  0  0
105106  2  0  0  0  0
106107  1  0  0  0  0
107108  2  0  0  0  0
108109  1  0  0  0  0
109110  3  0  0  0  0
108111  1  0  0  0  0
111112  3  0  0  0  0
 12  2  1  0  0  0  0
 35 18  2  0  0  0  0
 77 36  1  0  0  0  0
 95 78  2  0  0  0  0
107 97  1  0  0  0  0
 11  5  1  0  0  0  0
 35 21  1  0  0  0  0
 46 39  1  0  0  0  0
 54 47  1  0  0  0  0
 76 55  2  0  0  0  0
 95 81  1  0  0  0  0
106100  1  0  0  0  0
 32 24  1  0  0  0  0
 67 60  1  0  0  0  0
 75 68  1  0  0  0  0
 92 84  1  0  0  0  0
  1113  1  0  0  0  0
  8114  1  0  0  0  0
  9115  1  0  0  0  0
 10116  1  0  0  0  0
 26117  1  0  0  0  0
 26118  1  0  0  0  0
 27119  1  0  0  0  0
 27120  1  0  0  0  0
 27121  1  0  0  0  0
 30122  1  0  0  0  0
 30123  1  0  0  0  0
 31124  1  0  0  0  0
 31125  1  0  0  0  0
 31126  1  0  0  0  0
 40127  1  0  0  0  0
 41128  1  0  0  0  0
 44129  1  0  0  0  0
 44130  1  0  0  0  0
 44131  1  0  0  0  0
 45132  1  0  0  0  0
 46133  1  0  0  0  0
 48134  1  0  0  0  0
 49135  1  0  0  0  0
 52136  1  0  0  0  0
 52137  1  0  0  0  0
 52138  1  0  0  0  0
 53139  1  0  0  0  0
 54140  1  0  0  0  0
 61141  1  0  0  0  0
 62142  1  0  0  0  0
 65143  1  0  0  0  0
 65144  1  0  0  0  0
 65145  1  0  0  0  0
 66146  1  0  0  0  0
 67147  1  0  0  0  0
 69148  1  0  0  0  0
 70149  1  0  0  0  0
 73150  1  0  0  0  0
 73151  1  0  0  0  0
 73152  1  0  0  0  0
 74153  1  0  0  0  0
 75154  1  0  0  0  0
 86155  1  0  0  0  0
 86156  1  0  0  0  0
 87157  1  0  0  0  0
 87158  1  0  0  0  0
 87159  1  0  0  0  0
 90160  1  0  0  0  0
 90161  1  0  0  0  0
 91162  1  0  0  0  0
 91163  1  0  0  0  0
 91164  1  0  0  0  0
 96165  1  0  0  0  0
103166  1  0  0  0  0
104167  1  0  0  0  0
105168  1  0  0  0  0
M  END
