196

C         -1.92270       -3.50820       -8.01070
C         -1.72610       -3.81140       -9.33480
C         -0.85920       -3.12520      -10.31470
O         -0.09690       -2.19710      -10.13150
C         -1.11820       -3.78700      -11.60950
C         -0.59320       -3.51070      -12.86140
Cl         0.55960       -2.25770      -13.08500
C         -1.01580       -4.27040      -13.94990
C         -1.94420       -5.28040      -13.77180
C         -2.47320       -5.57240      -12.52000
C         -2.05460       -4.82200      -11.43460
C         -2.41090       -4.89130      -10.01750
C         -3.19110       -5.87000       -9.45780
C         -3.46860       -6.03780       -8.08540
N         -3.73810       -6.27710       -6.99400
C         -3.81670       -6.90290      -10.18790
N         -4.36810       -7.76390      -10.71020
C         -1.25790       -2.62370       -7.14780
C         -0.17540       -1.77200       -7.29890
C          0.29650       -1.25340       -6.10030
S          1.73670       -0.23360       -5.99540
C          1.14630        1.21840       -6.93920
C          0.08750        1.99090       -6.17900
C         -0.38110       -1.72550       -4.97600
S         -1.73190       -2.69710       -5.45650
C         -0.05900       -1.49230       -3.61430
C         -0.15450       -2.36110       -2.52320
N         -0.41610       -3.71230       -2.59490
C         -0.10290       -4.44260       -3.75340
C         -0.99470       -5.39440       -4.25350
C         -0.77980       -5.97060       -5.48580
C          0.31930       -5.59690       -6.25510
S          0.41170       -6.25070       -7.89330
C          1.62460       -5.17080       -8.70750
C          1.26530       -4.73260       -5.71610
C          1.05950       -4.17080       -4.47200
C         -1.10440       -4.34640       -1.54950
C         -0.79540       -5.66120       -1.21220
C         -1.50750       -6.32290       -0.23410
C         -2.53020       -5.66830        0.43930
S         -3.50860       -6.42790        1.69800
C         -3.23130       -8.20200        1.43180
C         -2.82200       -4.34340        0.12930
C         -2.12550       -3.69040       -0.86340
C          0.14700       -1.67750       -1.31680
S          0.20720       -2.11320        0.36530
C          0.64540       -0.46420        0.79990
C          0.81260        0.33910       -0.31770
N          1.28810        1.64160       -0.27740
C          2.41580        1.92460        0.50880
C          2.52240        3.14860        1.16460
C          3.60810        3.41660        1.96740
C          4.61480        2.46740        2.13050
S          5.92240        2.87860        3.24500
C          7.21220        1.65590        2.85990
C          4.52270        1.25320        1.46190
C          3.43040        0.98460        0.66000
C          0.73650        2.57840       -1.15240
C         -0.62000        2.50940       -1.46400
C         -1.17540        3.35870       -2.39970
C         -0.38260        4.30520       -3.03210
S         -0.98460        5.42090       -4.26570
C         -2.53950        4.64840       -4.80440
C          0.96160        4.41490       -2.68500
C          1.51860        3.56130       -1.75990
C          0.50500       -0.35300       -1.50590
S          0.52340        0.10550       -3.16250
C          0.63870        0.07860        2.12700
C          1.23430       -0.30800        3.31400
N          2.01110       -1.44130        3.50490
C          1.51820       -2.70800        3.15660
C          2.41000       -3.69900        2.74740
C          1.96840       -4.98740        2.54140
C          0.62940       -5.30390        2.73900
S          0.14230       -7.00290        2.62230
C         -0.91920       -7.14700        4.09740
C         -0.27890       -4.30690        3.06270
C          0.16410       -3.01600        3.27490
C          3.07790       -1.35860        4.41780
C          3.89970       -0.23380        4.42310
C          4.94710       -0.12600        5.31660
C          5.19300       -1.14610        6.22550
S          6.49230       -1.09270        7.42060
C          7.71760        0.00950        6.65430
C          4.36590       -2.26640        6.23380
C          3.31980       -2.37280        5.34440
C          0.98010        0.63720        4.34010
S          1.43140        0.73720        6.00130
C          0.45090        2.19440        6.20970
C         -0.21950        2.54420        5.02840
N         -1.07720        3.59620        4.85900
C         -1.02810        4.30830        3.63870
C          0.18480        4.83050        3.19420
C          0.22990        5.53910        2.01430
C         -0.91850        5.70810        1.24060
S         -0.70750        6.58770       -0.27080
C         -2.34180        6.52020       -1.05240
C         -2.12750        5.19280        1.69130
C         -2.18190        4.50730        2.89010
C         -2.01100        3.96800        5.82990
C         -2.62450        3.00610        6.63660
C         -3.55180        3.38210        7.58080
C         -3.89560        4.72420        7.74200
S         -5.10290        5.08240        8.97270
C         -5.06600        6.89260        9.10450
C         -3.29840        5.68170        6.93090
C         -2.36450        5.30580        5.98600
C          0.15680        1.68510        3.96970
S         -0.29000        1.57210        2.30910
C          0.44590        2.84860        7.45250
C          1.45600        2.83850        8.37730
C          1.17280        3.13640        9.80210
O          0.14660        3.59230       10.25330
C          2.39410        2.71880       10.52930
C          2.64560        2.63630       11.88800
Cl         1.46160        3.11160       13.03660
C          3.88210        2.15400       12.31550
C          4.83380        1.75710       11.39350
C          4.60150        1.84530       10.02530
C          3.38220        2.33750        9.60010
C          2.86100        2.56070        8.25220
C          3.63950        2.77300        7.13900
C          3.12810        3.22530        5.90950
N          2.75230        3.64440        4.90760
C          5.04360        2.73070        7.14810
N          6.19180        2.74420        7.09830
H         -2.68840       -4.08430       -7.50560
H         -0.61400       -4.06110      -14.92850
H         -2.26580       -5.85670      -14.62580
H         -3.19530       -6.36430      -12.41510
H          0.27600       -1.57080       -8.25320
H          0.77840        0.86060       -7.90010
H          2.03980        1.82130       -7.09470
H         -0.79030        1.36830       -6.00920
H          0.47190        2.31660       -5.21430
H         -0.20960        2.86700       -6.75230
H         -1.88690       -5.63840       -3.69840
H         -1.49640       -6.67030       -5.88600
H          1.35870       -4.13130       -8.54100
H          1.56320       -5.40470       -9.76620
H          2.62540       -5.38540       -8.34440
H          2.16010       -4.47640       -6.25970
H          1.79100       -3.48330       -4.07340
H          0.00440       -6.17030       -1.72850
H         -1.24510       -7.34010        0.00270
H         -3.43730       -8.44460        0.39380
H         -3.93670       -8.71180        2.08070
H         -2.21500       -8.46990        1.70540
H         -3.61790       -3.84070        0.65720
H         -2.39050       -2.67860       -1.13070
H          1.73650        3.87570        1.04250
H          3.68180        4.35490        2.49280
H          7.44320        1.69080        1.79950
H          8.07880        1.95850        3.43960
H          6.89610        0.66080        3.16070
H          5.29070        0.50270        1.56140
H          3.36690        0.03480        0.14930
H         -1.24310        1.77990       -0.96720
H         -2.22630        3.26890       -2.62710
H         -2.82840        5.16910       -5.71190
H         -2.36680        3.59800       -5.01690
H         -3.31120        4.77660       -4.05030
H          1.56700        5.16750       -3.16560
H          2.56810        3.63500       -1.52000
H          3.45500       -3.45450        2.63080
H          2.65920       -5.76420        2.25180
H         -1.89780       -6.71740        3.90560
H         -1.01320       -8.20860        4.30270
H         -0.43210       -6.64830        4.92910
H         -1.32700       -4.53660        3.17380
H         -0.53740       -2.24770        3.56510
H          3.70830        0.56820        3.72640
H          5.55630        0.76320        5.30530
H          7.38000        1.04220        6.70050
H          7.89150       -0.30920        5.63110
H          8.62360       -0.10890        7.24030
H          4.54920       -3.04940        6.95320
H          2.68080       -3.24240        5.37000
H          1.07910        4.67680        3.77890
H          1.15380        5.98480        1.67770
H         -2.21280        6.97890       -2.02810
H         -3.06230        7.08520       -0.46790
H         -2.64530        5.48390       -1.16660
H         -3.03390        5.32010        1.12220
H         -3.12320        4.11450        3.24570
H         -2.37020        1.96400        6.51260
H         -4.02430        2.64090        8.20640
H         -4.05300        7.22250        9.31420
H         -5.45200        7.34600        8.19590
H         -5.71470        7.13720        9.93990
H         -3.54730        6.72590        7.02760
H         -1.89690        6.05530        5.36510
H         -0.46190        3.36100        7.75420
H          4.08390        2.08830       13.37280
H          5.77840        1.37000       11.74370
H          5.35140        1.51610        9.32460
